1NEM.B
 OpenBabel11021811403D
libRbt.so/2013.1/901 2013/11/27
 42 45  0  0  0  0  0  0  0  0999 V2000
    1.2299   -2.4682    2.9782 O   0  0  0  0  0  0  0  0  0  0  0  0
    2.1948   -2.8215    1.9851 C   0  0  0  0  0  0  0  0  0  0  0  0
    2.2263   -1.8475    0.8082 C   0  0  1  0  0  0  0  0  0  0  0  0
    0.9649   -1.8159    0.1469 O   0  0  0  0  0  0  0  0  0  0  0  0
    2.4518   -0.3941    1.1933 C   0  0  1  0  0  0  0  0  0  0  0  0
    3.8189   -0.2674    1.5913 O   0  0  0  0  0  0  0  0  0  0  0  0
    2.0659    0.2616   -0.1193 C   0  0  1  0  0  0  0  0  0  0  0  0
    3.0242    0.0087   -1.1521 O   0  0  0  0  0  0  0  0  0  0  0  0
    0.7714   -0.5109   -0.3990 C   0  0  2  0  0  0  0  0  0  0  0  0
    4.0906    0.6906    2.5740 C   0  0  2  0  0  0  0  0  0  0  0  0
    5.5690    0.5984    2.9755 C   0  0  2  0  0  0  0  0  0  0  0  0
    5.9071   -0.7972    3.3607 N   0  3  0  0  0  0  0  0  0  0  0  0
    5.8920    1.5895    4.0984 C   0  0  1  0  0  0  0  0  0  0  0  0
    5.8589    2.9161    3.5887 O   0  0  0  0  0  0  0  0  0  0  0  0
    4.8963    1.4584    5.2549 C   0  0  2  0  0  0  0  0  0  0  0  0
    5.0760    0.2160    5.9230 O   0  0  0  0  0  0  0  0  0  0  0  0
    3.4710    1.5601    4.7191 C   0  0  1  0  0  0  0  0  0  0  0  0
    3.2562    0.5482    3.7161 O   0  0  0  0  0  0  0  0  0  0  0  0
    2.4129    1.3861    5.7944 C   0  0  0  0  0  0  0  0  0  0  0  0
    1.2982    2.3459    5.6329 N   0  3  0  0  0  0  0  0  0  0  0  0
   -3.7268   -2.3682    4.6419 C   0  0  0  0  0  0  0  0  0  0  0  0
   -1.4503   -2.3168    1.7192 C   0  0  2  0  0  0  0  0  0  0  0  0
   -1.0106   -3.7778    1.6632 C   0  0  2  0  0  0  0  0  0  0  0  0
   -0.4706   -4.1001    0.3208 N   0  3  0  0  0  0  0  0  0  0  0  0
   -2.1899   -4.6926    1.9654 C   0  0  1  0  0  0  0  0  0  0  0  0
   -1.7520   -6.0425    1.9868 O   0  0  0  0  0  0  0  0  0  0  0  0
   -2.7964   -4.3155    3.3151 C   0  0  2  0  0  0  0  0  0  0  0  0
   -3.9405   -5.1194    3.5730 O   0  0  0  0  0  0  0  0  0  0  0  0
   -5.1763   -2.0713    4.5788 N   0  3  0  0  0  0  0  0  0  0  0  0
   -3.1957   -2.8412    3.2999 C   0  0  2  0  0  0  0  0  0  0  0  0
   -2.0542   -2.0216    2.9759 O   0  0  0  0  0  0  0  0  0  0  0  0
   -3.3746    1.5993   -1.2663 C   0  0  2  0  0  0  0  0  0  0  0  0
   -3.7469    3.0198   -1.4581 N   0  3  0  0  0  0  0  0  0  0  0  0
   -4.4076    0.9042   -0.3866 C   0  0  0  0  0  0  0  0  0  0  0  0
   -4.0363   -0.5574   -0.1788 C   0  0  2  0  0  0  0  0  0  0  0  0
   -5.0584   -1.1617    0.6641 N   0  3  0  0  0  0  0  0  0  0  0  0
   -2.6616   -0.6536    0.4786 C   0  0  1  0  0  0  0  0  0  0  0  0
   -2.3055   -2.0398    0.6460 O   0  0  0  0  0  0  0  0  0  0  0  0
   -1.5980    0.0466   -0.3785 C   0  0  2  0  0  0  0  0  0  0  0  0
   -0.3370    0.0289    0.3174 O   0  0  0  0  0  0  0  0  0  0  0  0
   -1.9755    1.4987   -0.6609 C   0  0  1  0  0  0  0  0  0  0  0  0
   -1.0301    2.0690   -1.5562 O   0  0  0  0  0  0  0  0  0  0  0  0
  1  2  1  0  0  0  0
  3  2  1  1  0  0  0
  3  5  1  0  0  0  0
  3  4  1  0  0  0  0
  4  9  1  0  0  0  0
  5  7  1  0  0  0  0
  5  6  1  6  0  0  0
  7  9  1  0  0  0  0
  7  8  1  6  0  0  0
  9 40  1  1  0  0  0
 10  6  1  6  0  0  0
 10 11  1  0  0  0  0
 10 18  1  0  0  0  0
 11 13  1  0  0  0  0
 11 12  1  1  0  0  0
 13 15  1  0  0  0  0
 13 14  1  6  0  0  0
 15 17  1  0  0  0  0
 15 16  1  6  0  0  0
 17 19  1  1  0  0  0
 17 18  1  0  0  0  0
 19 20  1  0  0  0  0
 21 29  1  0  0  0  0
 22 23  1  0  0  0  0
 22 31  1  0  0  0  0
 22 38  1  6  0  0  0
 23 25  1  0  0  0  0
 23 24  1  6  0  0  0
 25 27  1  0  0  0  0
 25 26  1  1  0  0  0
 27 30  1  0  0  0  0
 27 28  1  6  0  0  0
 30 21  1  1  0  0  0
 30 31  1  0  0  0  0
 32 34  1  0  0  0  0
 32 41  1  0  0  0  0
 32 33  1  1  0  0  0
 34 35  1  0  0  0  0
 35 37  1  0  0  0  0
 35 36  1  1  0  0  0
 37 39  1  0  0  0  0
 37 38  1  6  0  0  0
 39 41  1  0  0  0  0
 39 40  1  1  0  0  0
 41 42  1  6  0  0  0
M  CHG  6  12   1  20   1  24   1  29   1  33   1  36   1
M  END
>  <CHROM.1>
-48.36075458,-60.85208344,-148.46585072,174.56273939,-55.05813103,-103.34908312
152.01818559,-61.93044027,176.97038669,138.43364418,-158.02056493,-111.08059908
-140.14640891,-172.41815338,-97.49850703,-59.82456026,62.47031489,-148.31882052
61.98479473,-151.67050785,126.21641606,64.63515458,0.18851523,-0.77788476
1.94431104,-0.06644214,0.42699084,2.42686904

>  <Name>
1NEM.B

>  <RI>
0

>  <Rbt.Current_Directory>
/home/itssahil/PROJECTS/Mol_Feturizer/New_Systems/rnas/1nem

>  <Rbt.Executable>
rbdock ($Id: //depot/dev/client3/rdock/2013.1/src/exe/rbdock.cxx#4 $)

>  <Rbt.Library>
libRbt.so (2013.1, Build901 2013/11/27)

>  <Rbt.Parameter_File>
/export/apps/rDock/src/rDock_2013.1_src/data/scripts/dock_solv.prm

>  <Rbt.Receptor>
prm/pocket_docking_3.prm

>  <SCORE>
-57.903

>  <SCORE.INTER>
-66.7098

>  <SCORE.INTER.CONST>
1

>  <SCORE.INTER.POLAR>
-9.06972

>  <SCORE.INTER.ROT>
9

>  <SCORE.INTER.SOLV>
46.632

>  <SCORE.INTER.VDW>
-39.3848

>  <SCORE.INTER.norm>
-1.58833

>  <SCORE.INTRA>
8.80686

>  <SCORE.INTRA.DIHEDRAL>
18.4229

>  <SCORE.INTRA.DIHEDRAL.0>
22.4324

>  <SCORE.INTRA.POLAR>
-0.105503

>  <SCORE.INTRA.POLAR.0>
-1.83749

>  <SCORE.INTRA.REPUL>
0

>  <SCORE.INTRA.REPUL.0>
0

>  <SCORE.INTRA.SOLV>
-1.15464

>  <SCORE.INTRA.SOLV.lig_0>
-160.638

>  <SCORE.INTRA.VDW>
0.531462

>  <SCORE.INTRA.VDW.0>
-7.61953

>  <SCORE.INTRA.norm>
0.209687

>  <SCORE.RESTR>
0

>  <SCORE.RESTR.CAVITY>
0

>  <SCORE.RESTR.norm>
0

>  <SCORE.SYSTEM>
0

>  <SCORE.SYSTEM.CONST>
0

>  <SCORE.SYSTEM.DIHEDRAL>
0

>  <SCORE.SYSTEM.SOLV>
0

>  <SCORE.SYSTEM.norm>
0

>  <SCORE.heavy>
42

>  <SCORE.norm>
-1.37864

>  <RMSD>
0.637

$$$$
1NEM.B
 OpenBabel11021811403D
libRbt.so/2013.1/901 2013/11/27
 42 45  0  0  0  0  0  0  0  0999 V2000
    2.6253   -4.3033    1.8610 O   0  0  0  0  0  0  0  0  0  0  0  0
    1.9321   -3.1010    2.2020 C   0  0  0  0  0  0  0  0  0  0  0  0
    2.1301   -1.9851    1.1772 C   0  0  1  0  0  0  0  0  0  0  0  0
    0.9788   -1.8522    0.3486 O   0  0  0  0  0  0  0  0  0  0  0  0
    2.2888   -0.5960    1.7745 C   0  0  1  0  0  0  0  0  0  0  0  0
    3.5822   -0.5396    2.3805 O   0  0  0  0  0  0  0  0  0  0  0  0
    2.0955    0.2273    0.5149 C   0  0  1  0  0  0  0  0  0  0  0  0
    3.1960    0.0957   -0.3910 O   0  0  0  0  0  0  0  0  0  0  0  0
    0.8601   -0.4856   -0.0475 C   0  0  2  0  0  0  0  0  0  0  0  0
    3.8765    0.6217    3.1031 C   0  0  2  0  0  0  0  0  0  0  0  0
    5.2153    0.4392    3.8309 C   0  0  2  0  0  0  0  0  0  0  0  0
    5.1891   -0.8057    4.6431 N   0  3  0  0  0  0  0  0  0  0  0  0
    5.5422    1.6669    4.6872 C   0  0  1  0  0  0  0  0  0  0  0  0
    5.8691    2.7639    3.8444 O   0  0  0  0  0  0  0  0  0  0  0  0
    4.3610    2.0441    5.5866 C   0  0  2  0  0  0  0  0  0  0  0  0
    4.1662    1.0531    6.5876 O   0  0  0  0  0  0  0  0  0  0  0  0
    3.0979    2.1866    4.7421 C   0  0  1  0  0  0  0  0  0  0  0  0
    2.8509    0.9601    4.0276 O   0  0  0  0  0  0  0  0  0  0  0  0
    1.8614    2.5078    5.5631 C   0  0  0  0  0  0  0  0  0  0  0  0
    1.5436    1.4312    6.5273 N   0  3  0  0  0  0  0  0  0  0  0  0
   -3.9449   -2.5661    4.4628 C   0  0  0  0  0  0  0  0  0  0  0  0
   -1.4651   -2.4694    1.7118 C   0  0  2  0  0  0  0  0  0  0  0  0
   -1.0134   -3.9273    1.6716 C   0  0  2  0  0  0  0  0  0  0  0  0
   -0.3766   -4.2315    0.3680 N   0  3  0  0  0  0  0  0  0  0  0  0
   -2.2057   -4.8519    1.8784 C   0  0  1  0  0  0  0  0  0  0  0  0
   -1.7620   -6.1996    1.9166 O   0  0  0  0  0  0  0  0  0  0  0  0
   -2.9097   -4.4933    3.1852 C   0  0  2  0  0  0  0  0  0  0  0  0
   -4.0643   -5.3062    3.3516 O   0  0  0  0  0  0  0  0  0  0  0  0
   -4.8319   -1.3976    4.2606 N   0  3  0  0  0  0  0  0  0  0  0  0
   -3.3160   -3.0212    3.1574 C   0  0  2  0  0  0  0  0  0  0  0  0
   -2.1594   -2.1918    2.9250 O   0  0  0  0  0  0  0  0  0  0  0  0
   -3.2555    1.4932   -1.2846 C   0  0  2  0  0  0  0  0  0  0  0  0
   -3.6672    2.9052   -1.4579 N   0  3  0  0  0  0  0  0  0  0  0  0
   -4.3472    0.7179   -0.5557 C   0  0  0  0  0  0  0  0  0  0  0  0
   -3.9365   -0.7359   -0.3684 C   0  0  2  0  0  0  0  0  0  0  0  0
   -5.0173   -1.4184    0.3289 N   0  3  0  0  0  0  0  0  0  0  0  0
   -2.6396   -0.8078    0.4343 C   0  0  1  0  0  0  0  0  0  0  0  0
   -2.2429   -2.1851    0.5830 O   0  0  0  0  0  0  0  0  0  0  0  0
   -1.5203   -0.0272   -0.2685 C   0  0  2  0  0  0  0  0  0  0  0  0
   -0.3442   -0.0271    0.5630 O   0  0  0  0  0  0  0  0  0  0  0  0
   -1.9285    1.4202   -0.5310 C   0  0  1  0  0  0  0  0  0  0  0  0
   -0.9166    2.0682   -1.2903 O   0  0  0  0  0  0  0  0  0  0  0  0
  1  2  1  0  0  0  0
  3  2  1  1  0  0  0
  3  5  1  0  0  0  0
  3  4  1  0  0  0  0
  4  9  1  0  0  0  0
  5  7  1  0  0  0  0
  5  6  1  6  0  0  0
  7  9  1  0  0  0  0
  7  8  1  6  0  0  0
  9 40  1  1  0  0  0
 10  6  1  1  0  0  0
 10 11  1  0  0  0  0
 10 18  1  0  0  0  0
 11 13  1  0  0  0  0
 11 12  1  1  0  0  0
 13 15  1  0  0  0  0
 13 14  1  6  0  0  0
 15 17  1  0  0  0  0
 15 16  1  1  0  0  0
 17 19  1  1  0  0  0
 17 18  1  0  0  0  0
 19 20  1  0  0  0  0
 21 29  1  0  0  0  0
 22 23  1  0  0  0  0
 22 31  1  0  0  0  0
 22 38  1  6  0  0  0
 23 25  1  0  0  0  0
 23 24  1  6  0  0  0
 25 27  1  0  0  0  0
 25 26  1  1  0  0  0
 27 30  1  0  0  0  0
 27 28  1  6  0  0  0
 30 21  1  1  0  0  0
 30 31  1  0  0  0  0
 32 34  1  0  0  0  0
 32 41  1  0  0  0  0
 32 33  1  1  0  0  0
 34 35  1  0  0  0  0
 35 37  1  0  0  0  0
 35 36  1  1  0  0  0
 37 39  1  0  0  0  0
 37 38  1  6  0  0  0
 39 41  1  0  0  0  0
 39 40  1  1  0  0  0
 41 42  1  6  0  0  0
M  CHG  6  12   1  20   1  24   1  29   1  33   1  36   1
M  END
>  <CHROM.1>
-53.60229918,102.97934591,-174.08443820,172.67294928,-61.75788909,-97.51505839
-70.02025761,173.13232963,75.06859293,-62.16983733,-175.40760252,-155.46757110
-167.69517516,-174.80284795,22.34179233,-54.16528416,-178.11129580,-138.51574930
55.40435947,-153.54044746,126.37510331,-53.36409367,0.13096764,-0.85017175
2.11434894,-0.14116873,0.51955930,2.63228867

>  <Name>
1NEM.B

>  <RI>
0

>  <Rbt.Current_Directory>
/home/itssahil/PROJECTS/Mol_Feturizer/New_Systems/rnas/1nem

>  <Rbt.Executable>
rbdock ($Id: //depot/dev/client3/rdock/2013.1/src/exe/rbdock.cxx#4 $)

>  <Rbt.Library>
libRbt.so (2013.1, Build901 2013/11/27)

>  <Rbt.Parameter_File>
/export/apps/rDock/src/rDock_2013.1_src/data/scripts/dock_solv.prm

>  <Rbt.Receptor>
prm/pocket_docking_2.prm

>  <SCORE>
-63.6546

>  <SCORE.INTER>
-68.8318

>  <SCORE.INTER.CONST>
1

>  <SCORE.INTER.POLAR>
-9.00867

>  <SCORE.INTER.ROT>
9

>  <SCORE.INTER.SOLV>
48.3524

>  <SCORE.INTER.VDW>
-41.5764

>  <SCORE.INTER.norm>
-1.63885

>  <SCORE.INTRA>
5.17716

>  <SCORE.INTRA.DIHEDRAL>
7.96985

>  <SCORE.INTRA.DIHEDRAL.0>
22.4324

>  <SCORE.INTRA.POLAR>
-0.169608

>  <SCORE.INTRA.POLAR.0>
-1.83749

>  <SCORE.INTRA.REPUL>
0

>  <SCORE.INTRA.REPUL.0>
0

>  <SCORE.INTRA.SOLV>
1.37241

>  <SCORE.INTRA.SOLV.lig_0>
-160.638

>  <SCORE.INTRA.VDW>
1.08269

>  <SCORE.INTRA.VDW.0>
-7.61953

>  <SCORE.INTRA.norm>
0.123266

>  <SCORE.RESTR>
0

>  <SCORE.RESTR.CAVITY>
0

>  <SCORE.RESTR.norm>
0

>  <SCORE.SYSTEM>
0

>  <SCORE.SYSTEM.CONST>
0

>  <SCORE.SYSTEM.DIHEDRAL>
0

>  <SCORE.SYSTEM.SOLV>
0

>  <SCORE.SYSTEM.norm>
0

>  <SCORE.heavy>
42

>  <SCORE.norm>
-1.51559

>  <RMSD>
0.638

$$$$
1NEM.B
 OpenBabel11021811403D
libRbt.so/2013.1/901 2013/11/27
 42 45  0  0  0  0  0  0  0  0999 V2000
    1.9973   -2.9603    2.4491 O   0  0  0  0  0  0  0  0  0  0  0  0
    2.3919   -3.0756    1.0805 C   0  0  0  0  0  0  0  0  0  0  0  0
    2.3960   -1.7368    0.3442 C   0  0  1  0  0  0  0  0  0  0  0  0
    1.1677   -1.5402   -0.3501 O   0  0  0  0  0  0  0  0  0  0  0  0
    2.4825   -0.5165    1.2469 C   0  0  1  0  0  0  0  0  0  0  0  0
    3.8148   -0.4629    1.7621 O   0  0  0  0  0  0  0  0  0  0  0  0
    2.1036    0.5519    0.2385 C   0  0  1  0  0  0  0  0  0  0  0  0
    3.1256    0.7554   -0.7429 O   0  0  0  0  0  0  0  0  0  0  0  0
    0.8917   -0.1401   -0.3965 C   0  0  2  0  0  0  0  0  0  0  0  0
    4.0526    0.4836    2.7646 C   0  0  2  0  0  0  0  0  0  0  0  0
    5.4940    0.3340    3.2701 C   0  0  2  0  0  0  0  0  0  0  0  0
    5.7497   -1.0737    3.6739 N   0  3  0  0  0  0  0  0  0  0  0  0
    5.7741    1.3115    4.4162 C   0  0  1  0  0  0  0  0  0  0  0  0
    5.8286    2.6385    3.9096 O   0  0  0  0  0  0  0  0  0  0  0  0
    4.6941    1.2186    5.4985 C   0  0  2  0  0  0  0  0  0  0  0  0
    4.7777   -0.0301    6.1737 O   0  0  0  0  0  0  0  0  0  0  0  0
    3.3156    1.3755    4.8629 C   0  0  1  0  0  0  0  0  0  0  0  0
    3.1340    0.3732    3.8440 O   0  0  0  0  0  0  0  0  0  0  0  0
    2.1777    1.2422    5.8595 C   0  0  0  0  0  0  0  0  0  0  0  0
    1.1922    2.3376    5.7226 N   0  3  0  0  0  0  0  0  0  0  0  0
   -3.8715   -2.5370    4.5770 C   0  0  0  0  0  0  0  0  0  0  0  0
   -1.4725   -2.3067    1.7629 C   0  0  2  0  0  0  0  0  0  0  0  0
   -0.9840   -3.7505    1.6741 C   0  0  2  0  0  0  0  0  0  0  0  0
   -0.3759   -4.0057    0.3465 N   0  3  0  0  0  0  0  0  0  0  0  0
   -2.1453   -4.7117    1.8901 C   0  0  1  0  0  0  0  0  0  0  0  0
   -1.6654   -6.0474    1.8826 O   0  0  0  0  0  0  0  0  0  0  0  0
   -2.8219   -4.4040    3.2241 C   0  0  2  0  0  0  0  0  0  0  0  0
   -3.9496   -5.2516    3.4014 O   0  0  0  0  0  0  0  0  0  0  0  0
   -5.2277   -3.1044    4.7547 N   0  3  0  0  0  0  0  0  0  0  0  0
   -3.2674   -2.9431    3.2441 C   0  0  2  0  0  0  0  0  0  0  0  0
   -2.1399   -2.0774    3.0011 O   0  0  0  0  0  0  0  0  0  0  0  0
   -3.2706    1.6386   -1.2658 C   0  0  2  0  0  0  0  0  0  0  0  0
   -3.6217    3.0638   -1.4632 N   0  3  0  0  0  0  0  0  0  0  0  0
   -4.3317    0.9541   -0.4117 C   0  0  0  0  0  0  0  0  0  0  0  0
   -3.9825   -0.5122   -0.1984 C   0  0  2  0  0  0  0  0  0  0  0  0
   -5.0308   -1.1059    0.6193 N   0  3  0  0  0  0  0  0  0  0  0  0
   -2.6246   -0.6256    0.4904 C   0  0  1  0  0  0  0  0  0  0  0  0
   -2.2887   -2.0162    0.6631 O   0  0  0  0  0  0  0  0  0  0  0  0
   -1.5333    0.0637   -0.3404 C   0  0  2  0  0  0  0  0  0  0  0  0
   -0.2891    0.0299    0.3846 O   0  0  0  0  0  0  0  0  0  0  0  0
   -1.8871    1.5205   -0.6284 C   0  0  1  0  0  0  0  0  0  0  0  0
   -0.9147    2.0814   -1.5003 O   0  0  0  0  0  0  0  0  0  0  0  0
  1  2  1  0  0  0  0
  3  2  1  1  0  0  0
  3  5  1  0  0  0  0
  3  4  1  0  0  0  0
  4  9  1  0  0  0  0
  5  7  1  0  0  0  0
  5  6  1  6  0  0  0
  7  9  1  0  0  0  0
  7  8  1  6  0  0  0
  9 40  1  1  0  0  0
 10  6  1  6  0  0  0
 10 11  1  0  0  0  0
 10 18  1  0  0  0  0
 11 13  1  0  0  0  0
 11 12  1  1  0  0  0
 13 15  1  0  0  0  0
 13 14  1  6  0  0  0
 15 17  1  0  0  0  0
 15 16  1  6  0  0  0
 17 19  1  1  0  0  0
 17 18  1  0  0  0  0
 19 20  1  0  0  0  0
 21 29  1  0  0  0  0
 22 23  1  0  0  0  0
 22 31  1  0  0  0  0
 22 38  1  6  0  0  0
 23 25  1  0  0  0  0
 23 24  1  6  0  0  0
 25 27  1  0  0  0  0
 25 26  1  1  0  0  0
 27 30  1  0  0  0  0
 27 28  1  6  0  0  0
 30 21  1  1  0  0  0
 30 31  1  0  0  0  0
 32 34  1  0  0  0  0
 32 41  1  0  0  0  0
 32 33  1  1  0  0  0
 34 35  1  0  0  0  0
 35 37  1  0  0  0  0
 35 36  1  1  0  0  0
 37 39  1  0  0  0  0
 37 38  1  6  0  0  0
 39 41  1  0  0  0  0
 39 40  1  1  0  0  0
 41 42  1  6  0  0  0
M  CHG  6  12   1  20   1  24   1  29   1  33   1  36   1
M  END
>  <CHROM.1>
63.73090102,-95.27723998,-171.36237935,175.87118145,174.95957918,-96.07262018
156.72902385,166.98119370,75.24843917,131.86979858,-162.85152849,-73.88375299
47.13513159,-169.32520310,16.81036844,41.17941058,-35.69813185,84.48889835
178.72910464,-151.07156659,144.06246276,-70.28260212,0.20503300,-0.84699263
1.96443086,-0.04568165,0.43695784,2.41977857

>  <Name>
1NEM.B

>  <RI>
0

>  <Rbt.Current_Directory>
/home/itssahil/PROJECTS/Mol_Feturizer/New_Systems/rnas/1nem

>  <Rbt.Executable>
rbdock ($Id: //depot/dev/client3/rdock/2013.1/src/exe/rbdock.cxx#4 $)

>  <Rbt.Library>
libRbt.so (2013.1, Build901 2013/11/27)

>  <Rbt.Parameter_File>
/export/apps/rDock/src/rDock_2013.1_src/data/scripts/dock_solv.prm

>  <Rbt.Receptor>
prm/pocket_docking_2.prm

>  <SCORE>
-54.8723

>  <SCORE.INTER>
-60.8407

>  <SCORE.INTER.CONST>
1

>  <SCORE.INTER.POLAR>
-8.19563

>  <SCORE.INTER.ROT>
9

>  <SCORE.INTER.SOLV>
44.3279

>  <SCORE.INTER.VDW>
-37.6177

>  <SCORE.INTER.norm>
-1.44859

>  <SCORE.INTRA>
5.93063

>  <SCORE.INTRA.DIHEDRAL>
14.135

>  <SCORE.INTRA.DIHEDRAL.0>
22.4324

>  <SCORE.INTRA.POLAR>
-0.692877

>  <SCORE.INTRA.POLAR.0>
-1.83749

>  <SCORE.INTRA.REPUL>
0

>  <SCORE.INTRA.REPUL.0>
0

>  <SCORE.INTRA.SOLV>
-1.62821

>  <SCORE.INTRA.SOLV.lig_0>
-160.638

>  <SCORE.INTRA.VDW>
2.03301

>  <SCORE.INTRA.VDW.0>
-7.61953

>  <SCORE.INTRA.norm>
0.141206

>  <SCORE.RESTR>
0.0377754

>  <SCORE.RESTR.CAVITY>
0.0377754

>  <SCORE.RESTR.norm>
0.000899413

>  <SCORE.SYSTEM>
0

>  <SCORE.SYSTEM.CONST>
0

>  <SCORE.SYSTEM.DIHEDRAL>
0

>  <SCORE.SYSTEM.SOLV>
0

>  <SCORE.SYSTEM.norm>
0

>  <SCORE.heavy>
42

>  <SCORE.norm>
-1.30648

>  <RMSD>
0.659

$$$$
1NEM.B
 OpenBabel11021811403D
libRbt.so/2013.1/901 2013/11/27
 42 45  0  0  0  0  0  0  0  0999 V2000
    0.9895   -2.7859    2.8095 O   0  0  0  0  0  0  0  0  0  0  0  0
    2.0409   -3.0451    1.8771 C   0  0  0  0  0  0  0  0  0  0  0  0
    2.1601   -1.9718    0.7961 C   0  0  1  0  0  0  0  0  0  0  0  0
    0.9359   -1.8407    0.0796 O   0  0  0  0  0  0  0  0  0  0  0  0
    2.4058   -0.5665    1.3218 C   0  0  1  0  0  0  0  0  0  0  0  0
    3.7535   -0.5199    1.7960 O   0  0  0  0  0  0  0  0  0  0  0  0
    2.1064    0.2157    0.0567 C   0  0  1  0  0  0  0  0  0  0  0  0
    3.1093    0.0249   -0.9467 O   0  0  0  0  0  0  0  0  0  0  0  0
    0.8071   -0.4867   -0.3548 C   0  0  2  0  0  0  0  0  0  0  0  0
    4.1405    0.6577    2.4447 C   0  0  2  0  0  0  0  0  0  0  0  0
    5.6653    0.6619    2.6187 C   0  0  2  0  0  0  0  0  0  0  0  0
    6.1057   -0.5890    3.2907 N   0  3  0  0  0  0  0  0  0  0  0  0
    6.1233    1.9073    3.3845 C   0  0  1  0  0  0  0  0  0  0  0  0
    5.9673    3.0572    2.5635 O   0  0  0  0  0  0  0  0  0  0  0  0
    5.3223    2.0869    4.6778 C   0  0  2  0  0  0  0  0  0  0  0  0
    5.6446    1.0582    5.6052 O   0  0  0  0  0  0  0  0  0  0  0  0
    3.8290    2.0567    4.3649 C   0  0  1  0  0  0  0  0  0  0  0  0
    3.4969    0.8214    3.7017 O   0  0  0  0  0  0  0  0  0  0  0  0
    2.9553    2.1742    5.6015 C   0  0  0  0  0  0  0  0  0  0  0  0
    1.5151    2.1834    5.2614 N   0  3  0  0  0  0  0  0  0  0  0  0
   -3.9553   -2.3957    4.4471 C   0  0  0  0  0  0  0  0  0  0  0  0
   -1.4796   -2.4176    1.6907 C   0  0  2  0  0  0  0  0  0  0  0  0
   -1.0940   -3.8944    1.6536 C   0  0  2  0  0  0  0  0  0  0  0  0
   -0.4743   -4.2303    0.3495 N   0  3  0  0  0  0  0  0  0  0  0  0
   -2.3260   -4.7640    1.8654 C   0  0  1  0  0  0  0  0  0  0  0  0
   -1.9432   -6.1301    1.9063 O   0  0  0  0  0  0  0  0  0  0  0  0
   -3.0104   -4.3708    3.1726 C   0  0  2  0  0  0  0  0  0  0  0  0
   -4.1999   -5.1306    3.3436 O   0  0  0  0  0  0  0  0  0  0  0  0
   -4.7048   -1.1321    4.2615 N   0  3  0  0  0  0  0  0  0  0  0  0
   -3.3503   -2.8820    3.1416 C   0  0  2  0  0  0  0  0  0  0  0  0
   -2.1581   -2.1059    2.9046 O   0  0  0  0  0  0  0  0  0  0  0  0
   -3.3658    1.5846   -1.2264 C   0  0  2  0  0  0  0  0  0  0  0  0
   -3.7677    3.0028   -1.3699 N   0  3  0  0  0  0  0  0  0  0  0  0
   -4.3979    0.8321   -0.3943 C   0  0  0  0  0  0  0  0  0  0  0  0
   -3.9963   -0.6277   -0.2365 C   0  0  2  0  0  0  0  0  0  0  0  0
   -5.0190   -1.2877    0.5626 N   0  3  0  0  0  0  0  0  0  0  0  0
   -2.6318   -0.7184    0.4427 C   0  0  1  0  0  0  0  0  0  0  0  0
   -2.2463   -2.1016    0.5627 O   0  0  0  0  0  0  0  0  0  0  0  0
   -1.5696    0.0391   -0.3661 C   0  0  2  0  0  0  0  0  0  0  0  0
   -0.3214    0.0227    0.3525 O   0  0  0  0  0  0  0  0  0  0  0  0
   -1.9758    1.4921   -0.5989 C   0  0  1  0  0  0  0  0  0  0  0  0
   -1.0281    2.1187   -1.4531 O   0  0  0  0  0  0  0  0  0  0  0  0
  1  2  1  0  0  0  0
  3  2  1  1  0  0  0
  3  5  1  0  0  0  0
  3  4  1  0  0  0  0
  4  9  1  0  0  0  0
  5  7  1  0  0  0  0
  5  6  1  6  0  0  0
  7  9  1  0  0  0  0
  7  8  1  6  0  0  0
  9 40  1  1  0  0  0
 10  6  1  1  0  0  0
 10 11  1  0  0  0  0
 10 18  1  0  0  0  0
 11 13  1  0  0  0  0
 11 12  1  1  0  0  0
 13 15  1  0  0  0  0
 13 14  1  6  0  0  0
 15 17  1  0  0  0  0
 15 16  1  1  0  0  0
 17 19  1  1  0  0  0
 17 18  1  0  0  0  0
 19 20  1  0  0  0  0
 21 29  1  0  0  0  0
 22 23  1  0  0  0  0
 22 31  1  0  0  0  0
 22 38  1  6  0  0  0
 23 25  1  0  0  0  0
 23 24  1  6  0  0  0
 25 27  1  0  0  0  0
 25 26  1  1  0  0  0
 27 30  1  0  0  0  0
 27 28  1  6  0  0  0
 30 21  1  1  0  0  0
 30 31  1  0  0  0  0
 32 34  1  0  0  0  0
 32 41  1  0  0  0  0
 32 33  1  1  0  0  0
 34 35  1  0  0  0  0
 35 37  1  0  0  0  0
 35 36  1  1  0  0  0
 37 39  1  0  0  0  0
 37 38  1  6  0  0  0
 39 41  1  0  0  0  0
 39 40  1  1  0  0  0
 41 42  1  6  0  0  0
M  CHG  6  12   1  20   1  24   1  29   1  33   1  36   1
M  END
>  <CHROM.1>
-49.34288871,-57.75814292,-173.92619527,-168.11389567,-59.57854258,-98.36860184
36.40154327,64.84652245,174.86470890,178.25963617,-52.00432257,-159.77804665
-45.59166205,-177.46403402,137.13044882,127.72383528,171.11478899,-26.25223459
-61.56706987,-147.50331118,125.07337699,60.70570969,0.23087588,-0.71990999
1.82999274,-0.19264147,0.40353818,2.58041544

>  <Name>
1NEM.B

>  <RI>
0

>  <Rbt.Current_Directory>
/home/itssahil/PROJECTS/Mol_Feturizer/New_Systems/rnas/1nem

>  <Rbt.Executable>
rbdock ($Id: //depot/dev/client3/rdock/2013.1/src/exe/rbdock.cxx#4 $)

>  <Rbt.Library>
libRbt.so (2013.1, Build901 2013/11/27)

>  <Rbt.Parameter_File>
/export/apps/rDock/src/rDock_2013.1_src/data/scripts/dock_solv.prm

>  <Rbt.Receptor>
prm/pocket_docking_2.prm

>  <SCORE>
-62.3892

>  <SCORE.INTER>
-70.51

>  <SCORE.INTER.CONST>
1

>  <SCORE.INTER.POLAR>
-9.93078

>  <SCORE.INTER.ROT>
9

>  <SCORE.INTER.SOLV>
47.8523

>  <SCORE.INTER.VDW>
-39.4549

>  <SCORE.INTER.norm>
-1.67881

>  <SCORE.INTRA>
7.90466

>  <SCORE.INTRA.DIHEDRAL>
11.9187

>  <SCORE.INTRA.DIHEDRAL.0>
22.4324

>  <SCORE.INTRA.POLAR>
-0.136168

>  <SCORE.INTRA.POLAR.0>
-1.83749

>  <SCORE.INTRA.REPUL>
0

>  <SCORE.INTRA.REPUL.0>
0

>  <SCORE.INTRA.SOLV>
0.149686

>  <SCORE.INTRA.SOLV.lig_0>
-160.638

>  <SCORE.INTRA.VDW>
2.33343

>  <SCORE.INTRA.VDW.0>
-7.61953

>  <SCORE.INTRA.norm>
0.188206

>  <SCORE.RESTR>
0.216206

>  <SCORE.RESTR.CAVITY>
0.216206

>  <SCORE.RESTR.norm>
0.00514777

>  <SCORE.SYSTEM>
0

>  <SCORE.SYSTEM.CONST>
0

>  <SCORE.SYSTEM.DIHEDRAL>
0

>  <SCORE.SYSTEM.SOLV>
0

>  <SCORE.SYSTEM.norm>
0

>  <SCORE.heavy>
42

>  <SCORE.norm>
-1.48546

>  <RMSD>
0.679

$$$$
1NEM.B
 OpenBabel11021811403D
libRbt.so/2013.1/901 2013/11/27
 42 45  0  0  0  0  0  0  0  0999 V2000
    1.9877   -2.9585    2.6300 O   0  0  0  0  0  0  0  0  0  0  0  0
    2.2441   -3.1350    1.2353 C   0  0  0  0  0  0  0  0  0  0  0  0
    2.2816   -1.8175    0.4623 C   0  0  1  0  0  0  0  0  0  0  0  0
    1.0649   -1.6176   -0.2513 O   0  0  0  0  0  0  0  0  0  0  0  0
    2.3811   -0.5744    1.3320 C   0  0  1  0  0  0  0  0  0  0  0  0
    3.7085   -0.5312    1.8608 O   0  0  0  0  0  0  0  0  0  0  0  0
    2.0336    0.4723    0.2901 C   0  0  1  0  0  0  0  0  0  0  0  0
    3.0700    0.6295   -0.6847 O   0  0  0  0  0  0  0  0  0  0  0  0
    0.8159   -0.2144   -0.3395 C   0  0  2  0  0  0  0  0  0  0  0  0
    3.9349    0.3904    2.8887 C   0  0  2  0  0  0  0  0  0  0  0  0
    5.3827    0.2553    3.3797 C   0  0  2  0  0  0  0  0  0  0  0  0
    5.6693   -1.1582    3.7406 N   0  3  0  0  0  0  0  0  0  0  0  0
    5.6519    1.2046    4.5518 C   0  0  1  0  0  0  0  0  0  0  0  0
    5.6763    2.5465    4.0837 O   0  0  0  0  0  0  0  0  0  0  0  0
    4.5822    1.0587    5.6383 C   0  0  2  0  0  0  0  0  0  0  0  0
    4.6955   -0.2070    6.2764 O   0  0  0  0  0  0  0  0  0  0  0  0
    3.1961    1.2064    5.0171 C   0  0  1  0  0  0  0  0  0  0  0  0
    3.0268    0.2304    3.9707 O   0  0  0  0  0  0  0  0  0  0  0  0
    2.0685    1.0215    6.0173 C   0  0  0  0  0  0  0  0  0  0  0  0
    1.6500    2.3058    6.6216 N   0  3  0  0  0  0  0  0  0  0  0  0
   -3.7837   -2.5258    4.6333 C   0  0  0  0  0  0  0  0  0  0  0  0
   -1.4931   -2.3592    1.7260 C   0  0  2  0  0  0  0  0  0  0  0  0
   -1.0241   -3.8095    1.6377 C   0  0  2  0  0  0  0  0  0  0  0  0
   -0.4707   -4.0887    0.2911 N   0  3  0  0  0  0  0  0  0  0  0  0
   -2.1865   -4.7545    1.9111 C   0  0  1  0  0  0  0  0  0  0  0  0
   -1.7218   -6.0956    1.9028 O   0  0  0  0  0  0  0  0  0  0  0  0
   -2.8076   -4.4220    3.2659 C   0  0  2  0  0  0  0  0  0  0  0  0
   -3.9368   -5.2543    3.4978 O   0  0  0  0  0  0  0  0  0  0  0  0
   -5.1231   -3.1047    4.8861 N   0  3  0  0  0  0  0  0  0  0  0  0
   -3.2361   -2.9559    3.2836 C   0  0  2  0  0  0  0  0  0  0  0  0
   -2.1095   -2.1064    2.9858 O   0  0  0  0  0  0  0  0  0  0  0  0
   -3.3516    1.5917   -1.2429 C   0  0  2  0  0  0  0  0  0  0  0  0
   -3.7175    3.0148   -1.4279 N   0  3  0  0  0  0  0  0  0  0  0  0
   -4.4141    0.8846   -0.4091 C   0  0  0  0  0  0  0  0  0  0  0  0
   -4.0498   -0.5798   -0.2088 C   0  0  2  0  0  0  0  0  0  0  0  0
   -5.1001   -1.1954    0.5898 N   0  3  0  0  0  0  0  0  0  0  0  0
   -2.6985   -0.6852    0.4943 C   0  0  1  0  0  0  0  0  0  0  0  0
   -2.3479   -2.0736    0.6547 O   0  0  0  0  0  0  0  0  0  0  0  0
   -1.6062    0.0267   -0.3159 C   0  0  2  0  0  0  0  0  0  0  0  0
   -0.3700   -0.0009    0.4229 O   0  0  0  0  0  0  0  0  0  0  0  0
   -1.9741    1.4825   -0.5910 C   0  0  1  0  0  0  0  0  0  0  0  0
   -0.9986    2.0651   -1.4452 O   0  0  0  0  0  0  0  0  0  0  0  0
  1  2  1  0  0  0  0
  3  2  1  1  0  0  0
  3  5  1  0  0  0  0
  3  4  1  0  0  0  0
  4  9  1  0  0  0  0
  5  7  1  0  0  0  0
  5  6  1  6  0  0  0
  7  9  1  0  0  0  0
  7  8  1  6  0  0  0
  9 40  1  1  0  0  0
 10  6  1  6  0  0  0
 10 11  1  0  0  0  0
 10 18  1  0  0  0  0
 11 13  1  0  0  0  0
 11 12  1  1  0  0  0
 13 15  1  0  0  0  0
 13 14  1  6  0  0  0
 15 17  1  0  0  0  0
 15 16  1  6  0  0  0
 17 19  1  1  0  0  0
 17 18  1  0  0  0  0
 19 20  1  0  0  0  0
 21 29  1  0  0  0  0
 22 23  1  0  0  0  0
 22 31  1  0  0  0  0
 22 38  1  6  0  0  0
 23 25  1  0  0  0  0
 23 24  1  6  0  0  0
 25 27  1  0  0  0  0
 25 26  1  1  0  0  0
 27 30  1  0  0  0  0
 27 28  1  6  0  0  0
 30 21  1  1  0  0  0
 30 31  1  0  0  0  0
 32 34  1  0  0  0  0
 32 41  1  0  0  0  0
 32 33  1  1  0  0  0
 34 35  1  0  0  0  0
 35 37  1  0  0  0  0
 35 36  1  1  0  0  0
 37 39  1  0  0  0  0
 37 38  1  6  0  0  0
 39 41  1  0  0  0  0
 39 40  1  1  0  0  0
 41 42  1  6  0  0  0
M  CHG  6  12   1  20   1  24   1  29   1  33   1  36   1
M  END
>  <CHROM.1>
67.27105112,-102.06637480,-168.12008519,177.29247171,70.03383559,-95.66211308
158.96345967,57.26932100,76.57638379,91.84074260,-87.08621413,-72.37215479
46.09853015,-170.62645027,141.00369771,36.47253350,58.62009554,99.11080538
179.14845027,-153.76925005,141.04511198,-52.16695488,0.15453587,-0.91872228
2.05207705,0.01061779,0.45866244,2.38621034

>  <Name>
1NEM.B

>  <RI>
0

>  <Rbt.Current_Directory>
/home/itssahil/PROJECTS/Mol_Feturizer/New_Systems/rnas/1nem

>  <Rbt.Executable>
rbdock ($Id: //depot/dev/client3/rdock/2013.1/src/exe/rbdock.cxx#4 $)

>  <Rbt.Library>
libRbt.so (2013.1, Build901 2013/11/27)

>  <Rbt.Parameter_File>
/export/apps/rDock/src/rDock_2013.1_src/data/scripts/dock_solv.prm

>  <Rbt.Receptor>
prm/pocket_docking_2.prm

>  <SCORE>
-62.1614

>  <SCORE.INTER>
-67.0029

>  <SCORE.INTER.CONST>
1

>  <SCORE.INTER.POLAR>
-8.65405

>  <SCORE.INTER.ROT>
9

>  <SCORE.INTER.SOLV>
42.7849

>  <SCORE.INTER.VDW>
-39.6834

>  <SCORE.INTER.norm>
-1.59531

>  <SCORE.INTRA>
4.7154

>  <SCORE.INTRA.DIHEDRAL>
12.6995

>  <SCORE.INTRA.DIHEDRAL.0>
22.4324

>  <SCORE.INTRA.POLAR>
-0.852485

>  <SCORE.INTRA.POLAR.0>
-1.83749

>  <SCORE.INTRA.REPUL>
0

>  <SCORE.INTRA.REPUL.0>
0

>  <SCORE.INTRA.SOLV>
-1.93315

>  <SCORE.INTRA.SOLV.lig_0>
-160.638

>  <SCORE.INTRA.VDW>
2.23068

>  <SCORE.INTRA.VDW.0>
-7.61953

>  <SCORE.INTRA.norm>
0.112272

>  <SCORE.RESTR>
0.126089

>  <SCORE.RESTR.CAVITY>
0.126089

>  <SCORE.RESTR.norm>
0.00300211

>  <SCORE.SYSTEM>
0

>  <SCORE.SYSTEM.CONST>
0

>  <SCORE.SYSTEM.DIHEDRAL>
0

>  <SCORE.SYSTEM.SOLV>
0

>  <SCORE.SYSTEM.norm>
0

>  <SCORE.heavy>
42

>  <SCORE.norm>
-1.48003

>  <RMSD>
0.738

$$$$
1NEM.B
 OpenBabel11021811403D
libRbt.so/2013.1/901 2013/11/27
 42 45  0  0  0  0  0  0  0  0999 V2000
    0.8358   -3.3625    2.6751 O   0  0  0  0  0  0  0  0  0  0  0  0
    1.9089   -3.5422    1.7486 C   0  0  0  0  0  0  0  0  0  0  0  0
    2.0873   -2.3559    0.8023 C   0  0  1  0  0  0  0  0  0  0  0  0
    0.8963   -2.1237    0.0558 O   0  0  0  0  0  0  0  0  0  0  0  0
    2.3278   -1.0233    1.4936 C   0  0  1  0  0  0  0  0  0  0  0  0
    3.6545   -1.0538    2.0247 O   0  0  0  0  0  0  0  0  0  0  0  0
    2.0922   -0.0984    0.3143 C   0  0  1  0  0  0  0  0  0  0  0  0
    3.1344   -0.1919   -0.6624 O   0  0  0  0  0  0  0  0  0  0  0  0
    0.8029   -0.7274   -0.2270 C   0  0  2  0  0  0  0  0  0  0  0  0
    4.0099    0.0090    2.8622 C   0  0  2  0  0  0  0  0  0  0  0  0
    5.3129   -0.3380    3.5951 C   0  0  2  0  0  0  0  0  0  0  0  0
    5.1783   -1.6497    4.2819 N   0  3  0  0  0  0  0  0  0  0  0  0
    5.7020    0.7756    4.5728 C   0  0  1  0  0  0  0  0  0  0  0  0
    6.1269    1.9215    3.8471 O   0  0  0  0  0  0  0  0  0  0  0  0
    4.5266    1.1494    5.4812 C   0  0  2  0  0  0  0  0  0  0  0  0
    4.2365    0.0840    6.3772 O   0  0  0  0  0  0  0  0  0  0  0  0
    3.2993    1.4625    4.6298 C   0  0  1  0  0  0  0  0  0  0  0  0
    2.9863    0.3307    3.7949 O   0  0  0  0  0  0  0  0  0  0  0  0
    2.0670    1.7922    5.4536 C   0  0  0  0  0  0  0  0  0  0  0  0
    1.3035    2.9214    4.8777 N   0  3  0  0  0  0  0  0  0  0  0  0
   -4.2842   -2.0976    4.7694 C   0  0  0  0  0  0  0  0  0  0  0  0
   -2.0339   -2.1080    1.8261 C   0  0  2  0  0  0  0  0  0  0  0  0
   -1.7728   -3.6031    1.6608 C   0  0  2  0  0  0  0  0  0  0  0  0
   -1.2827   -3.8902    0.2915 N   0  3  0  0  0  0  0  0  0  0  0  0
   -3.0516   -4.3903    1.9141 C   0  0  1  0  0  0  0  0  0  0  0  0
   -2.7784   -5.7808    1.8339 O   0  0  0  0  0  0  0  0  0  0  0  0
   -3.6011   -4.0416    3.2954 C   0  0  2  0  0  0  0  0  0  0  0  0
   -4.8319   -4.7198    3.5118 O   0  0  0  0  0  0  0  0  0  0  0  0
   -5.7041   -2.4483    5.0018 N   0  3  0  0  0  0  0  0  0  0  0  0
   -3.8209   -2.5330    3.3901 C   0  0  2  0  0  0  0  0  0  0  0  0
   -2.5912   -1.8341    3.1088 O   0  0  0  0  0  0  0  0  0  0  0  0
   -2.6887    1.9631   -1.4323 C   0  0  2  0  0  0  0  0  0  0  0  0
   -2.6128    3.4091   -1.7434 N   0  3  0  0  0  0  0  0  0  0  0  0
   -3.9302    1.6745   -0.5961 C   0  0  0  0  0  0  0  0  0  0  0  0
   -4.0202    0.1911   -0.2666 C   0  0  2  0  0  0  0  0  0  0  0  0
   -5.2223   -0.0171    0.5282 N   0  3  0  0  0  0  0  0  0  0  0  0
   -2.7759   -0.2441    0.5039 C   0  0  1  0  0  0  0  0  0  0  0  0
   -2.8556   -1.6547    0.7871 O   0  0  0  0  0  0  0  0  0  0  0  0
   -1.5049    0.0423   -0.3078 C   0  0  2  0  0  0  0  0  0  0  0  0
   -0.3482   -0.2818    0.4869 O   0  0  0  0  0  0  0  0  0  0  0  0
   -1.4194    1.5122   -0.7114 C   0  0  1  0  0  0  0  0  0  0  0  0
   -0.2974    1.7060   -1.5623 O   0  0  0  0  0  0  0  0  0  0  0  0
  1  2  1  0  0  0  0
  3  2  1  1  0  0  0
  3  5  1  0  0  0  0
  3  4  1  0  0  0  0
  4  9  1  0  0  0  0
  5  7  1  0  0  0  0
  5  6  1  6  0  0  0
  7  9  1  0  0  0  0
  7  8  1  6  0  0  0
  9 40  1  1  0  0  0
 10  6  1  1  0  0  0
 10 11  1  0  0  0  0
 10 18  1  0  0  0  0
 11 13  1  0  0  0  0
 11 12  1  1  0  0  0
 13 15  1  0  0  0  0
 13 14  1  6  0  0  0
 15 17  1  0  0  0  0
 15 16  1  1  0  0  0
 17 19  1  1  0  0  0
 17 18  1  0  0  0  0
 19 20  1  0  0  0  0
 21 29  1  0  0  0  0
 22 23  1  0  0  0  0
 22 31  1  0  0  0  0
 22 38  1  6  0  0  0
 23 25  1  0  0  0  0
 23 24  1  6  0  0  0
 25 27  1  0  0  0  0
 25 26  1  1  0  0  0
 27 30  1  0  0  0  0
 27 28  1  6  0  0  0
 30 21  1  1  0  0  0
 30 31  1  0  0  0  0
 32 34  1  0  0  0  0
 32 41  1  0  0  0  0
 32 33  1  1  0  0  0
 34 35  1  0  0  0  0
 35 37  1  0  0  0  0
 35 36  1  1  0  0  0
 37 39  1  0  0  0  0
 37 38  1  6  0  0  0
 39 41  1  0  0  0  0
 39 40  1  1  0  0  0
 41 42  1  6  0  0  0
M  CHG  6  12   1  20   1  24   1  29   1  33   1  36   1
M  END
>  <CHROM.1>
-166.59782447,-58.71542208,-171.41582300,166.81357263,61.49287145,-107.96857763
60.19180060,-56.69999257,82.50763454,138.79255976,-49.41698343,-74.68594141
-66.98663983,-157.09945270,-49.36885684,-65.49709553,60.74756930,-74.20759891
103.06819444,-160.38239499,149.39545304,179.37179312,-0.02983739,-0.85498332
2.02361125,-0.01240688,0.38941922,2.38832628

>  <Name>
1NEM.B

>  <RI>
0

>  <Rbt.Current_Directory>
/home/itssahil/PROJECTS/Mol_Feturizer/New_Systems/rnas/1nem

>  <Rbt.Executable>
rbdock ($Id: //depot/dev/client3/rdock/2013.1/src/exe/rbdock.cxx#4 $)

>  <Rbt.Library>
libRbt.so (2013.1, Build901 2013/11/27)

>  <Rbt.Parameter_File>
/export/apps/rDock/src/rDock_2013.1_src/data/scripts/dock_solv.prm

>  <Rbt.Receptor>
prm/pocket_docking_2.prm

>  <SCORE>
-53.2044

>  <SCORE.INTER>
-56.3765

>  <SCORE.INTER.CONST>
1

>  <SCORE.INTER.POLAR>
-7.17519

>  <SCORE.INTER.ROT>
9

>  <SCORE.INTER.SOLV>
47.8362

>  <SCORE.INTER.VDW>
-39.2124

>  <SCORE.INTER.norm>
-1.3423

>  <SCORE.INTRA>
3.06114

>  <SCORE.INTRA.DIHEDRAL>
5.97119

>  <SCORE.INTRA.DIHEDRAL.0>
22.4324

>  <SCORE.INTRA.POLAR>
-0.502577

>  <SCORE.INTRA.POLAR.0>
-1.83749

>  <SCORE.INTRA.REPUL>
0

>  <SCORE.INTRA.REPUL.0>
0

>  <SCORE.INTRA.SOLV>
-2.61291

>  <SCORE.INTRA.SOLV.lig_0>
-160.638

>  <SCORE.INTRA.VDW>
3.09076

>  <SCORE.INTRA.VDW.0>
-7.61953

>  <SCORE.INTRA.norm>
0.0728843

>  <SCORE.RESTR>
0.110975

>  <SCORE.RESTR.CAVITY>
0.110975

>  <SCORE.RESTR.norm>
0.00264225

>  <SCORE.SYSTEM>
0

>  <SCORE.SYSTEM.CONST>
0

>  <SCORE.SYSTEM.DIHEDRAL>
0

>  <SCORE.SYSTEM.SOLV>
0

>  <SCORE.SYSTEM.norm>
0

>  <SCORE.heavy>
42

>  <SCORE.norm>
-1.26677

>  <RMSD>
0.757

$$$$
1NEM.B
 OpenBabel11021811403D
libRbt.so/2013.1/901 2013/11/27
 42 45  0  0  0  0  0  0  0  0999 V2000
    3.1972   -3.5281    3.1374 O   0  0  0  0  0  0  0  0  0  0  0  0
    1.9939   -3.2856    2.4057 C   0  0  0  0  0  0  0  0  0  0  0  0
    2.1426   -2.1834    1.3579 C   0  0  1  0  0  0  0  0  0  0  0  0
    0.9664   -2.0850    0.5602 O   0  0  0  0  0  0  0  0  0  0  0  0
    2.2923   -0.7820    1.9282 C   0  0  1  0  0  0  0  0  0  0  0  0
    3.6008   -0.6923    2.4966 O   0  0  0  0  0  0  0  0  0  0  0  0
    2.0487    0.0168    0.6615 C   0  0  1  0  0  0  0  0  0  0  0  0
    3.1258   -0.1100   -0.2728 O   0  0  0  0  0  0  0  0  0  0  0  0
    0.8115   -0.7276    0.1457 C   0  0  2  0  0  0  0  0  0  0  0  0
    3.9085    0.5033    3.1548 C   0  0  2  0  0  0  0  0  0  0  0  0
    5.4316    0.6904    3.1786 C   0  0  2  0  0  0  0  0  0  0  0  0
    6.0852   -0.5169    3.7491 N   0  3  0  0  0  0  0  0  0  0  0  0
    5.8133    1.9584    3.9493 C   0  0  1  0  0  0  0  0  0  0  0  0
    5.4372    3.1052    3.1984 O   0  0  0  0  0  0  0  0  0  0  0  0
    5.1334    1.9970    5.3214 C   0  0  2  0  0  0  0  0  0  0  0  0
    5.6701    0.9876    6.1672 O   0  0  0  0  0  0  0  0  0  0  0  0
    3.6303    1.7924    5.1554 C   0  0  1  0  0  0  0  0  0  0  0  0
    3.3823    0.5469    4.4748 O   0  0  0  0  0  0  0  0  0  0  0  0
    2.8804    1.7624    6.4756 C   0  0  0  0  0  0  0  0  0  0  0  0
    1.5869    1.0529    6.3601 N   0  3  0  0  0  0  0  0  0  0  0  0
   -4.4174   -2.1375    4.7882 C   0  0  0  0  0  0  0  0  0  0  0  0
   -2.1182   -2.1564    1.8830 C   0  0  2  0  0  0  0  0  0  0  0  0
   -1.9012   -3.6552    1.6895 C   0  0  2  0  0  0  0  0  0  0  0  0
   -1.3968   -3.9284    0.3226 N   0  3  0  0  0  0  0  0  0  0  0  0
   -3.2081   -4.4067    1.9043 C   0  0  1  0  0  0  0  0  0  0  0  0
   -2.9773   -5.8031    1.7984 O   0  0  0  0  0  0  0  0  0  0  0  0
   -3.7702   -4.0703    3.2837 C   0  0  2  0  0  0  0  0  0  0  0  0
   -5.0251   -4.7137    3.4648 O   0  0  0  0  0  0  0  0  0  0  0  0
   -5.8282   -2.5234    5.0203 N   0  3  0  0  0  0  0  0  0  0  0  0
   -3.9443   -2.5578    3.4076 C   0  0  2  0  0  0  0  0  0  0  0  0
   -2.6887   -1.8923    3.1620 O   0  0  0  0  0  0  0  0  0  0  0  0
   -2.5673    2.0352   -1.2345 C   0  0  2  0  0  0  0  0  0  0  0  0
   -2.4669    3.4907   -1.4893 N   0  3  0  0  0  0  0  0  0  0  0  0
   -3.8701    1.7222   -0.5072 C   0  0  0  0  0  0  0  0  0  0  0  0
   -3.9859    0.2287   -0.2364 C   0  0  2  0  0  0  0  0  0  0  0  0
   -5.2461   -0.0026    0.4554 N   0  3  0  0  0  0  0  0  0  0  0  0
   -2.8052   -0.2362    0.6128 C   0  0  1  0  0  0  0  0  0  0  0  0
   -2.9073   -1.6554    0.8407 O   0  0  0  0  0  0  0  0  0  0  0  0
   -1.4751    0.0737   -0.0879 C   0  0  2  0  0  0  0  0  0  0  0  0
   -0.3835   -0.2808    0.7824 O   0  0  0  0  0  0  0  0  0  0  0  0
   -1.3579    1.5562   -0.4333 C   0  0  1  0  0  0  0  0  0  0  0  0
   -0.1733    1.7753   -1.1877 O   0  0  0  0  0  0  0  0  0  0  0  0
  1  2  1  0  0  0  0
  3  2  1  1  0  0  0
  3  5  1  0  0  0  0
  3  4  1  0  0  0  0
  4  9  1  0  0  0  0
  5  7  1  0  0  0  0
  5  6  1  6  0  0  0
  7  9  1  0  0  0  0
  7  8  1  6  0  0  0
  9 40  1  1  0  0  0
 10  6  1  1  0  0  0
 10 11  1  0  0  0  0
 10 18  1  0  0  0  0
 11 13  1  0  0  0  0
 11 12  1  1  0  0  0
 13 15  1  0  0  0  0
 13 14  1  6  0  0  0
 15 17  1  0  0  0  0
 15 16  1  1  0  0  0
 17 19  1  1  0  0  0
 17 18  1  0  0  0  0
 19 20  1  0  0  0  0
 21 29  1  0  0  0  0
 22 23  1  0  0  0  0
 22 31  1  0  0  0  0
 22 38  1  6  0  0  0
 23 25  1  0  0  0  0
 23 24  1  6  0  0  0
 25 27  1  0  0  0  0
 25 26  1  1  0  0  0
 27 30  1  0  0  0  0
 27 28  1  6  0  0  0
 30 21  1  1  0  0  0
 30 31  1  0  0  0  0
 32 34  1  0  0  0  0
 32 41  1  0  0  0  0
 32 33  1  1  0  0  0
 34 35  1  0  0  0  0
 35 37  1  0  0  0  0
 35 36  1  1  0  0  0
 37 39  1  0  0  0  0
 37 38  1  6  0  0  0
 39 41  1  0  0  0  0
 39 40  1  1  0  0  0
 41 42  1  6  0  0  0
M  CHG  6  12   1  20   1  24   1  29   1  33   1  36   1
M  END
>  <CHROM.1>
158.64703240,173.51649177,-176.07005900,-156.48674407,179.77844469,-115.80073865
-72.25243076,-68.51380928,69.35510413,-157.31117393,-1.11472228,-71.15653919
-60.06724974,-158.67513279,70.04164320,77.40026898,-53.63898961,69.00137100
-22.78880460,-163.37180690,148.34127935,60.14986553,0.11197960,-0.70130450
2.20361582,-0.06348984,0.41766764,2.38803929

>  <Name>
1NEM.B

>  <RI>
0

>  <Rbt.Current_Directory>
/home/itssahil/PROJECTS/Mol_Feturizer/New_Systems/rnas/1nem

>  <Rbt.Executable>
rbdock ($Id: //depot/dev/client3/rdock/2013.1/src/exe/rbdock.cxx#4 $)

>  <Rbt.Library>
libRbt.so (2013.1, Build901 2013/11/27)

>  <Rbt.Parameter_File>
/export/apps/rDock/src/rDock_2013.1_src/data/scripts/dock_solv.prm

>  <Rbt.Receptor>
prm/pocket_docking_2.prm

>  <SCORE>
-56.6269

>  <SCORE.INTER>
-59.6303

>  <SCORE.INTER.CONST>
1

>  <SCORE.INTER.POLAR>
-8.02109

>  <SCORE.INTER.ROT>
9

>  <SCORE.INTER.SOLV>
44.4756

>  <SCORE.INTER.VDW>
-37.4417

>  <SCORE.INTER.norm>
-1.41977

>  <SCORE.INTRA>
2.48774

>  <SCORE.INTRA.DIHEDRAL>
8.59482

>  <SCORE.INTRA.DIHEDRAL.0>
22.4324

>  <SCORE.INTRA.POLAR>
-0.577752

>  <SCORE.INTRA.POLAR.0>
-1.83749

>  <SCORE.INTRA.REPUL>
0

>  <SCORE.INTRA.REPUL.0>
0

>  <SCORE.INTRA.SOLV>
-3.60192

>  <SCORE.INTRA.SOLV.lig_0>
-160.638

>  <SCORE.INTRA.VDW>
1.95565

>  <SCORE.INTRA.VDW.0>
-7.61953

>  <SCORE.INTRA.norm>
0.059232

>  <SCORE.RESTR>
0.51564

>  <SCORE.RESTR.CAVITY>
0.51564

>  <SCORE.RESTR.norm>
0.0122771

>  <SCORE.SYSTEM>
0

>  <SCORE.SYSTEM.CONST>
0

>  <SCORE.SYSTEM.DIHEDRAL>
0

>  <SCORE.SYSTEM.SOLV>
0

>  <SCORE.SYSTEM.norm>
0

>  <SCORE.heavy>
42

>  <SCORE.norm>
-1.34826

>  <RMSD>
0.761

$$$$
1NEM.B
 OpenBabel11021811403D
libRbt.so/2013.1/901 2013/11/27
 42 45  0  0  0  0  0  0  0  0999 V2000
    3.0262   -4.3753    1.9223 O   0  0  0  0  0  0  0  0  0  0  0  0
    1.8975   -3.4997    1.9585 C   0  0  0  0  0  0  0  0  0  0  0  0
    2.0404   -2.3003    1.0227 C   0  0  1  0  0  0  0  0  0  0  0  0
    0.8664   -2.1352    0.2328 O   0  0  0  0  0  0  0  0  0  0  0  0
    2.1757   -0.9592    1.7262 C   0  0  1  0  0  0  0  0  0  0  0  0
    3.4812   -0.9139    2.3065 O   0  0  0  0  0  0  0  0  0  0  0  0
    1.9298   -0.0440    0.5414 C   0  0  1  0  0  0  0  0  0  0  0  0
    3.0114   -0.0710   -0.3959 O   0  0  0  0  0  0  0  0  0  0  0  0
    0.7011   -0.7454   -0.0495 C   0  0  2  0  0  0  0  0  0  0  0  0
    3.7178    0.1221    3.2165 C   0  0  2  0  0  0  0  0  0  0  0  0
    5.1917    0.0939    3.6433 C   0  0  2  0  0  0  0  0  0  0  0  0
    5.5538   -1.2603    4.1385 N   0  3  0  0  0  0  0  0  0  0  0  0
    5.4767    1.1747    4.6913 C   0  0  1  0  0  0  0  0  0  0  0  0
    5.4228    2.4575    4.0813 O   0  0  0  0  0  0  0  0  0  0  0  0
    4.4670    1.1097    5.8413 C   0  0  2  0  0  0  0  0  0  0  0  0
    4.6633   -0.0738    6.6047 O   0  0  0  0  0  0  0  0  0  0  0  0
    3.0479    1.1383    5.2805 C   0  0  1  0  0  0  0  0  0  0  0  0
    2.8698    0.0484    4.3551 O   0  0  0  0  0  0  0  0  0  0  0  0
    1.9780    1.0230    6.3520 C   0  0  0  0  0  0  0  0  0  0  0  0
    1.7849    2.2972    7.0792 N   0  3  0  0  0  0  0  0  0  0  0  0
   -5.0955   -2.6043    4.2608 C   0  0  0  0  0  0  0  0  0  0  0  0
   -2.3794   -2.2663    1.7636 C   0  0  2  0  0  0  0  0  0  0  0  0
   -2.0308   -3.7306    1.5083 C   0  0  2  0  0  0  0  0  0  0  0  0
   -1.3034   -3.8686    0.2240 N   0  3  0  0  0  0  0  0  0  0  0  0
   -3.2994   -4.5718    1.4623 C   0  0  1  0  0  0  0  0  0  0  0  0
   -2.9577   -5.9401    1.3022 O   0  0  0  0  0  0  0  0  0  0  0  0
   -4.0900   -4.3753    2.7538 C   0  0  2  0  0  0  0  0  0  0  0  0
   -5.3096   -5.1032    2.6900 O   0  0  0  0  0  0  0  0  0  0  0  0
   -4.6967   -1.2925    4.8202 N   0  3  0  0  0  0  0  0  0  0  0  0
   -4.3865   -2.8895    2.9482 C   0  0  2  0  0  0  0  0  0  0  0  0
   -3.1578   -2.1346    2.9502 O   0  0  0  0  0  0  0  0  0  0  0  0
   -2.6945    2.0514   -1.2522 C   0  0  2  0  0  0  0  0  0  0  0  0
   -2.5885    3.5170   -1.4369 N   0  3  0  0  0  0  0  0  0  0  0  0
   -3.9901    1.7102   -0.5248 C   0  0  0  0  0  0  0  0  0  0  0  0
   -4.1116    0.2059   -0.3258 C   0  0  2  0  0  0  0  0  0  0  0  0
   -5.3646   -0.0522    0.3695 N   0  3  0  0  0  0  0  0  0  0  0  0
   -2.9234   -0.3063    0.4849 C   0  0  1  0  0  0  0  0  0  0  0  0
   -3.0312   -1.7343    0.6445 O   0  0  0  0  0  0  0  0  0  0  0  0
   -1.6001    0.0304   -0.2164 C   0  0  2  0  0  0  0  0  0  0  0  0
   -0.5002   -0.3721    0.6219 O   0  0  0  0  0  0  0  0  0  0  0  0
   -1.4783    1.5273   -0.4904 C   0  0  1  0  0  0  0  0  0  0  0  0
   -0.3016    1.7766   -1.2479 O   0  0  0  0  0  0  0  0  0  0  0  0
  1  2  1  0  0  0  0
  3  2  1  1  0  0  0
  3  5  1  0  0  0  0
  3  4  1  0  0  0  0
  4  9  1  0  0  0  0
  5  7  1  0  0  0  0
  5  6  1  6  0  0  0
  7  9  1  0  0  0  0
  7  8  1  6  0  0  0
  9 40  1  1  0  0  0
 10  6  1  6  0  0  0
 10 11  1  0  0  0  0
 10 18  1  0  0  0  0
 11 13  1  0  0  0  0
 11 12  1  1  0  0  0
 13 15  1  0  0  0  0
 13 14  1  6  0  0  0
 15 17  1  0  0  0  0
 15 16  1  6  0  0  0
 17 19  1  1  0  0  0
 17 18  1  0  0  0  0
 19 20  1  0  0  0  0
 21 29  1  0  0  0  0
 22 23  1  0  0  0  0
 22 31  1  0  0  0  0
 22 38  1  6  0  0  0
 23 25  1  0  0  0  0
 23 24  1  6  0  0  0
 25 27  1  0  0  0  0
 25 26  1  1  0  0  0
 27 30  1  0  0  0  0
 27 28  1  6  0  0  0
 30 21  1  1  0  0  0
 30 31  1  0  0  0  0
 32 34  1  0  0  0  0
 32 41  1  0  0  0  0
 32 33  1  1  0  0  0
 34 35  1  0  0  0  0
 35 37  1  0  0  0  0
 35 36  1  1  0  0  0
 37 39  1  0  0  0  0
 37 38  1  6  0  0  0
 39 41  1  0  0  0  0
 39 40  1  1  0  0  0
 41 42  1  6  0  0  0
M  CHG  6  12   1  20   1  24   1  29   1  33   1  36   1
M  END
>  <CHROM.1>
55.95853268,131.42291707,-168.01251811,-175.08090141,175.63254458,-114.61680682
-73.77433971,175.17081174,169.37663341,77.09321930,-93.34688149,146.54096875
152.03874782,-154.93784850,72.12486800,-67.94007161,59.29077314,-169.07842375
96.14207938,-154.90587219,150.63265033,70.64897061,-0.08213214,-0.89519743
2.11101599,-0.00903775,0.46050635,2.50894803

>  <Name>
1NEM.B

>  <RI>
0

>  <Rbt.Current_Directory>
/home/itssahil/PROJECTS/Mol_Feturizer/New_Systems/rnas/1nem

>  <Rbt.Executable>
rbdock ($Id: //depot/dev/client3/rdock/2013.1/src/exe/rbdock.cxx#4 $)

>  <Rbt.Library>
libRbt.so (2013.1, Build901 2013/11/27)

>  <Rbt.Parameter_File>
/export/apps/rDock/src/rDock_2013.1_src/data/scripts/dock_solv.prm

>  <Rbt.Receptor>
prm/pocket_docking_2.prm

>  <SCORE>
-57.9984

>  <SCORE.INTER>
-64.3687

>  <SCORE.INTER.CONST>
1

>  <SCORE.INTER.POLAR>
-9.39334

>  <SCORE.INTER.ROT>
9

>  <SCORE.INTER.SOLV>
51.7455

>  <SCORE.INTER.VDW>
-38.4498

>  <SCORE.INTER.norm>
-1.53259

>  <SCORE.INTRA>
6.0034

>  <SCORE.INTRA.DIHEDRAL>
12.6666

>  <SCORE.INTRA.DIHEDRAL.0>
22.4324

>  <SCORE.INTRA.POLAR>
-0.208313

>  <SCORE.INTRA.POLAR.0>
-1.83749

>  <SCORE.INTRA.REPUL>
0

>  <SCORE.INTRA.REPUL.0>
0

>  <SCORE.INTRA.SOLV>
-3.5506

>  <SCORE.INTRA.SOLV.lig_0>
-160.638

>  <SCORE.INTRA.VDW>
2.15367

>  <SCORE.INTRA.VDW.0>
-7.61953

>  <SCORE.INTRA.norm>
0.142938

>  <SCORE.RESTR>
0.366889

>  <SCORE.RESTR.CAVITY>
0.366889

>  <SCORE.RESTR.norm>
0.00873546

>  <SCORE.SYSTEM>
0

>  <SCORE.SYSTEM.CONST>
0

>  <SCORE.SYSTEM.DIHEDRAL>
0

>  <SCORE.SYSTEM.SOLV>
0

>  <SCORE.SYSTEM.norm>
0

>  <SCORE.heavy>
42

>  <SCORE.norm>
-1.38091

>  <RMSD>
0.770

$$$$
1NEM.B
 OpenBabel11021811403D
libRbt.so/2013.1/901 2013/11/27
 42 45  0  0  0  0  0  0  0  0999 V2000
    2.9982   -3.9329    3.0338 O   0  0  0  0  0  0  0  0  0  0  0  0
    1.7692   -3.5395    2.4200 C   0  0  0  0  0  0  0  0  0  0  0  0
    1.9389   -2.3979    1.4187 C   0  0  1  0  0  0  0  0  0  0  0  0
    0.7774   -2.2651    0.6047 O   0  0  0  0  0  0  0  0  0  0  0  0
    2.0817   -1.0201    2.0455 C   0  0  1  0  0  0  0  0  0  0  0  0
    3.3801   -0.9564    2.6399 O   0  0  0  0  0  0  0  0  0  0  0  0
    1.8625   -0.1721    0.8067 C   0  0  1  0  0  0  0  0  0  0  0  0
    2.9556   -0.2657   -0.1127 O   0  0  0  0  0  0  0  0  0  0  0  0
    0.6329   -0.8922    0.2406 C   0  0  2  0  0  0  0  0  0  0  0  0
    3.7591    0.2831    3.1665 C   0  0  2  0  0  0  0  0  0  0  0  0
    5.2897    0.3470    3.2592 C   0  0  2  0  0  0  0  0  0  0  0  0
    5.8050   -0.8285    4.0095 N   0  3  0  0  0  0  0  0  0  0  0  0
    5.7431    1.6661    3.8929 C   0  0  1  0  0  0  0  0  0  0  0  0
    5.5076    2.7366    2.9879 O   0  0  0  0  0  0  0  0  0  0  0  0
    5.0019    1.9317    5.2069 C   0  0  2  0  0  0  0  0  0  0  0  0
    5.4046    0.9959    6.1990 O   0  0  0  0  0  0  0  0  0  0  0  0
    3.4967    1.8311    4.9766 C   0  0  1  0  0  0  0  0  0  0  0  0
    3.1739    0.5345    4.4375 O   0  0  0  0  0  0  0  0  0  0  0  0
    2.6824    2.0280    6.2432 C   0  0  0  0  0  0  0  0  0  0  0  0
    1.5687    1.0584    6.3401 N   0  3  0  0  0  0  0  0  0  0  0  0
   -4.6594   -2.8378    4.7751 C   0  0  0  0  0  0  0  0  0  0  0  0
   -2.2102   -2.4421    2.0233 C   0  0  2  0  0  0  0  0  0  0  0  0
   -1.7833   -3.8907    1.7990 C   0  0  2  0  0  0  0  0  0  0  0  0
   -1.1668   -4.0425    0.4594 N   0  3  0  0  0  0  0  0  0  0  0  0
   -2.9883   -4.8157    1.9072 C   0  0  1  0  0  0  0  0  0  0  0  0
   -2.5666   -6.1644    1.7742 O   0  0  0  0  0  0  0  0  0  0  0  0
   -3.6711   -4.6094    3.2574 C   0  0  2  0  0  0  0  0  0  0  0  0
   -4.8370   -5.4190    3.3386 O   0  0  0  0  0  0  0  0  0  0  0  0
   -4.5912   -1.3931    5.0927 N   0  3  0  0  0  0  0  0  0  0  0  0
   -4.0532   -3.1389    3.4154 C   0  0  2  0  0  0  0  0  0  0  0  0
   -2.8857   -2.3048    3.2706 O   0  0  0  0  0  0  0  0  0  0  0  0
   -2.9127    1.6783   -1.1571 C   0  0  2  0  0  0  0  0  0  0  0  0
   -2.9123    3.1350   -1.4238 N   0  3  0  0  0  0  0  0  0  0  0  0
   -4.1897    1.2830   -0.4242 C   0  0  0  0  0  0  0  0  0  0  0  0
   -4.2028   -0.2126   -0.1412 C   0  0  2  0  0  0  0  0  0  0  0  0
   -5.4430   -0.5238    0.5554 N   0  3  0  0  0  0  0  0  0  0  0  0
   -2.9916   -0.5890    0.7088 C   0  0  1  0  0  0  0  0  0  0  0  0
   -2.9962   -2.0099    0.9484 O   0  0  0  0  0  0  0  0  0  0  0  0
   -1.6870   -0.1947    0.0025 C   0  0  2  0  0  0  0  0  0  0  0  0
   -0.5722   -0.4668    0.8730 O   0  0  0  0  0  0  0  0  0  0  0  0
   -1.6719    1.2894   -0.3550 C   0  0  1  0  0  0  0  0  0  0  0  0
   -0.5064    1.5827   -1.1140 O   0  0  0  0  0  0  0  0  0  0  0  0
  1  2  1  0  0  0  0
  3  2  1  1  0  0  0
  3  5  1  0  0  0  0
  3  4  1  0  0  0  0
  4  9  1  0  0  0  0
  5  7  1  0  0  0  0
  5  6  1  6  0  0  0
  7  9  1  0  0  0  0
  7  8  1  6  0  0  0
  9 40  1  1  0  0  0
 10  6  1  1  0  0  0
 10 11  1  0  0  0  0
 10 18  1  0  0  0  0
 11 13  1  0  0  0  0
 11 12  1  1  0  0  0
 13 15  1  0  0  0  0
 13 14  1  6  0  0  0
 15 17  1  0  0  0  0
 15 16  1  1  0  0  0
 17 19  1  1  0  0  0
 17 18  1  0  0  0  0
 19 20  1  0  0  0  0
 21 29  1  0  0  0  0
 22 23  1  0  0  0  0
 22 31  1  0  0  0  0
 22 38  1  6  0  0  0
 23 25  1  0  0  0  0
 23 24  1  6  0  0  0
 25 27  1  0  0  0  0
 25 26  1  1  0  0  0
 27 30  1  0  0  0  0
 27 28  1  6  0  0  0
 30 21  1  1  0  0  0
 30 31  1  0  0  0  0
 32 34  1  0  0  0  0
 32 41  1  0  0  0  0
 32 33  1  1  0  0  0
 34 35  1  0  0  0  0
 35 37  1  0  0  0  0
 35 36  1  1  0  0  0
 37 39  1  0  0  0  0
 37 38  1  6  0  0  0
 39 41  1  0  0  0  0
 39 40  1  1  0  0  0
 41 42  1  6  0  0  0
M  CHG  6  12   1  20   1  24   1  29   1  33   1  36   1
M  END
>  <CHROM.1>
100.55326334,165.66672888,174.23257089,-158.35415750,177.27834172,-110.22366560
-163.56900727,-179.24767937,-86.51395567,-137.48754696,-132.45750274,160.36602289
-111.65814095,-154.21578353,74.19342910,72.43050242,173.17765060,-86.53175267
60.22249828,-161.16625827,145.72378793,-48.92606481,0.01608322,-0.94080880
2.24449034,-0.11770768,0.43551481,2.52011923

>  <Name>
1NEM.B

>  <RI>
0

>  <Rbt.Current_Directory>
/home/itssahil/PROJECTS/Mol_Feturizer/New_Systems/rnas/1nem

>  <Rbt.Executable>
rbdock ($Id: //depot/dev/client3/rdock/2013.1/src/exe/rbdock.cxx#4 $)

>  <Rbt.Library>
libRbt.so (2013.1, Build901 2013/11/27)

>  <Rbt.Parameter_File>
/export/apps/rDock/src/rDock_2013.1_src/data/scripts/dock_solv.prm

>  <Rbt.Receptor>
prm/pocket_docking_2.prm

>  <SCORE>
-49.1042

>  <SCORE.INTER>
-62.119

>  <SCORE.INTER.CONST>
1

>  <SCORE.INTER.POLAR>
-8.95211

>  <SCORE.INTER.ROT>
9

>  <SCORE.INTER.SOLV>
53.2967

>  <SCORE.INTER.VDW>
-38.9379

>  <SCORE.INTER.norm>
-1.47902

>  <SCORE.INTRA>
13.0148

>  <SCORE.INTRA.DIHEDRAL>
21.5446

>  <SCORE.INTRA.DIHEDRAL.0>
22.4324

>  <SCORE.INTRA.POLAR>
0.26585

>  <SCORE.INTRA.POLAR.0>
-1.83749

>  <SCORE.INTRA.REPUL>
0

>  <SCORE.INTRA.REPUL.0>
0

>  <SCORE.INTRA.SOLV>
-3.46284

>  <SCORE.INTRA.SOLV.lig_0>
-160.638

>  <SCORE.INTRA.VDW>
3.07006

>  <SCORE.INTRA.VDW.0>
-7.61953

>  <SCORE.INTRA.norm>
0.309877

>  <SCORE.RESTR>
0

>  <SCORE.RESTR.CAVITY>
0

>  <SCORE.RESTR.norm>
0

>  <SCORE.SYSTEM>
0

>  <SCORE.SYSTEM.CONST>
0

>  <SCORE.SYSTEM.DIHEDRAL>
0

>  <SCORE.SYSTEM.SOLV>
0

>  <SCORE.SYSTEM.norm>
0

>  <SCORE.heavy>
42

>  <SCORE.norm>
-1.16915

>  <RMSD>
0.778

$$$$
1NEM.B
 OpenBabel11021811403D
libRbt.so/2013.1/901 2013/11/27
 42 45  0  0  0  0  0  0  0  0999 V2000
    2.7473   -3.9409    3.0240 O   0  0  0  0  0  0  0  0  0  0  0  0
    1.7150   -3.6442    2.0815 C   0  0  0  0  0  0  0  0  0  0  0  0
    2.0365   -2.4365    1.2024 C   0  0  1  0  0  0  0  0  0  0  0  0
    0.9378   -2.1275    0.3498 O   0  0  0  0  0  0  0  0  0  0  0  0
    2.2596   -1.1393    1.9633 C   0  0  1  0  0  0  0  0  0  0  0  0
    3.5233   -1.2457    2.6229 O   0  0  0  0  0  0  0  0  0  0  0  0
    2.1826   -0.1665    0.8016 C   0  0  1  0  0  0  0  0  0  0  0  0
    3.3139   -0.2738   -0.0689 O   0  0  0  0  0  0  0  0  0  0  0  0
    0.9305   -0.7198    0.1111 C   0  0  2  0  0  0  0  0  0  0  0  0
    4.0388   -0.0641    3.1663 C   0  0  2  0  0  0  0  0  0  0  0  0
    5.5180   -0.2721    3.5183 C   0  0  2  0  0  0  0  0  0  0  0  0
    5.6729   -1.4710    4.3836 N   0  3  0  0  0  0  0  0  0  0  0  0
    6.1032    0.9811    4.1775 C   0  0  1  0  0  0  0  0  0  0  0  0
    6.2246    2.0166    3.2113 O   0  0  0  0  0  0  0  0  0  0  0  0
    5.2218    1.4596    5.3354 C   0  0  2  0  0  0  0  0  0  0  0  0
    5.2736    0.5316    6.4116 O   0  0  0  0  0  0  0  0  0  0  0  0
    3.7826    1.6181    4.8534 C   0  0  1  0  0  0  0  0  0  0  0  0
    3.3127    0.3696    4.3090 O   0  0  0  0  0  0  0  0  0  0  0  0
    2.8251    2.0393    5.9542 C   0  0  0  0  0  0  0  0  0  0  0  0
    1.4226    2.0731    5.4834 N   0  3  0  0  0  0  0  0  0  0  0  0
   -5.4095   -2.3400    3.7593 C   0  0  0  0  0  0  0  0  0  0  0  0
   -2.3563   -2.1602    1.6682 C   0  0  2  0  0  0  0  0  0  0  0  0
   -2.0748   -3.6419    1.4309 C   0  0  2  0  0  0  0  0  0  0  0  0
   -1.1869   -3.8138    0.2563 N   0  3  0  0  0  0  0  0  0  0  0  0
   -3.3783   -4.3920    1.1917 C   0  0  1  0  0  0  0  0  0  0  0  0
   -3.1105   -5.7786    1.0498 O   0  0  0  0  0  0  0  0  0  0  0  0
   -4.3257   -4.1573    2.3661 C   0  0  2  0  0  0  0  0  0  0  0  0
   -5.5708   -4.7976    2.1187 O   0  0  0  0  0  0  0  0  0  0  0  0
   -5.6786   -0.8879    3.8691 N   0  3  0  0  0  0  0  0  0  0  0  0
   -4.5458   -2.6571    2.5509 C   0  0  2  0  0  0  0  0  0  0  0  0
   -3.2813   -1.9898    2.7389 O   0  0  0  0  0  0  0  0  0  0  0  0
   -2.2900    2.3096   -1.1678 C   0  0  2  0  0  0  0  0  0  0  0  0
   -2.1542    3.7814   -1.2612 N   0  3  0  0  0  0  0  0  0  0  0  0
   -3.6398    1.9486   -0.5580 C   0  0  0  0  0  0  0  0  0  0  0  0
   -3.7925    0.4376   -0.4537 C   0  0  2  0  0  0  0  0  0  0  0  0
   -5.0965    0.1606    0.1320 N   0  3  0  0  0  0  0  0  0  0  0  0
   -2.6736   -0.1370    0.4118 C   0  0  1  0  0  0  0  0  0  0  0  0
   -2.8089   -1.5699    0.4822 O   0  0  0  0  0  0  0  0  0  0  0  0
   -1.2982    0.2177   -0.1703 C   0  0  2  0  0  0  0  0  0  0  0  0
   -0.2681   -0.2476    0.7225 O   0  0  0  0  0  0  0  0  0  0  0  0
   -1.1396    1.7254   -0.3496 C   0  0  1  0  0  0  0  0  0  0  0  0
    0.0927    1.9983   -1.0034 O   0  0  0  0  0  0  0  0  0  0  0  0
  1  2  1  0  0  0  0
  3  2  1  1  0  0  0
  3  5  1  0  0  0  0
  3  4  1  0  0  0  0
  4  9  1  0  0  0  0
  5  7  1  0  0  0  0
  5  6  1  6  0  0  0
  7  9  1  0  0  0  0
  7  8  1  6  0  0  0
  9 40  1  1  0  0  0
 10  6  1  1  0  0  0
 10 11  1  0  0  0  0
 10 18  1  0  0  0  0
 11 13  1  0  0  0  0
 11 12  1  1  0  0  0
 13 15  1  0  0  0  0
 13 14  1  6  0  0  0
 15 17  1  0  0  0  0
 15 16  1  1  0  0  0
 17 19  1  1  0  0  0
 17 18  1  0  0  0  0
 19 20  1  0  0  0  0
 21 29  1  0  0  0  0
 22 23  1  0  0  0  0
 22 31  1  0  0  0  0
 22 38  1  6  0  0  0
 23 25  1  0  0  0  0
 23 24  1  6  0  0  0
 25 27  1  0  0  0  0
 25 26  1  1  0  0  0
 27 30  1  0  0  0  0
 27 28  1  6  0  0  0
 30 21  1  1  0  0  0
 30 31  1  0  0  0  0
 32 34  1  0  0  0  0
 32 41  1  0  0  0  0
 32 33  1  1  0  0  0
 34 35  1  0  0  0  0
 35 37  1  0  0  0  0
 35 36  1  1  0  0  0
 37 39  1  0  0  0  0
 37 38  1  6  0  0  0
 39 41  1  0  0  0  0
 39 40  1  1  0  0  0
 41 42  1  6  0  0  0
M  CHG  6  12   1  20   1  24   1  29   1  33   1  36   1
M  END
>  <CHROM.1>
-40.80588547,-175.84968900,167.99964061,-166.17278576,67.15362977,-111.04616305
101.30820905,-57.50798432,-69.79280670,-175.16485321,178.28055584,-176.44744066
-32.07591912,-159.31178173,70.97795074,56.55825865,59.54073913,59.87073508
-11.35363200,-149.38675512,144.93744923,-56.74406567,0.07629387,-0.78667333
1.98053866,-0.10795401,0.39174557,2.72577669

>  <Name>
1NEM.B

>  <RI>
0

>  <Rbt.Current_Directory>
/home/itssahil/PROJECTS/Mol_Feturizer/New_Systems/rnas/1nem

>  <Rbt.Executable>
rbdock ($Id: //depot/dev/client3/rdock/2013.1/src/exe/rbdock.cxx#4 $)

>  <Rbt.Library>
libRbt.so (2013.1, Build901 2013/11/27)

>  <Rbt.Parameter_File>
/export/apps/rDock/src/rDock_2013.1_src/data/scripts/dock_solv.prm

>  <Rbt.Receptor>
prm/pocket_docking_3.prm

>  <SCORE>
-49.644

>  <SCORE.INTER>
-58.1005

>  <SCORE.INTER.CONST>
1

>  <SCORE.INTER.POLAR>
-7.9693

>  <SCORE.INTER.ROT>
9

>  <SCORE.INTER.SOLV>
49.3322

>  <SCORE.INTER.VDW>
-38.2134

>  <SCORE.INTER.norm>
-1.38335

>  <SCORE.INTRA>
8.45649

>  <SCORE.INTRA.DIHEDRAL>
7.52368

>  <SCORE.INTRA.DIHEDRAL.0>
22.4324

>  <SCORE.INTRA.POLAR>
0.678678

>  <SCORE.INTRA.POLAR.0>
-1.83749

>  <SCORE.INTRA.REPUL>
0

>  <SCORE.INTRA.REPUL.0>
0

>  <SCORE.INTRA.SOLV>
-1.77134

>  <SCORE.INTRA.SOLV.lig_0>
-160.638

>  <SCORE.INTRA.VDW>
3.27281

>  <SCORE.INTRA.VDW.0>
-7.61953

>  <SCORE.INTRA.norm>
0.201345

>  <SCORE.RESTR>
0

>  <SCORE.RESTR.CAVITY>
0

>  <SCORE.RESTR.norm>
0

>  <SCORE.SYSTEM>
0

>  <SCORE.SYSTEM.CONST>
0

>  <SCORE.SYSTEM.DIHEDRAL>
0

>  <SCORE.SYSTEM.SOLV>
0

>  <SCORE.SYSTEM.norm>
0

>  <SCORE.heavy>
42

>  <SCORE.norm>
-1.182

>  <RMSD>
0.803

$$$$
1NEM.B
 OpenBabel11021811403D
libRbt.so/2013.1/901 2013/11/27
 42 45  0  0  0  0  0  0  0  0999 V2000
    1.5019   -2.8274    2.4335 O   0  0  0  0  0  0  0  0  0  0  0  0
    2.2979   -2.9053    1.2492 C   0  0  0  0  0  0  0  0  0  0  0  0
    2.2956   -1.6090    0.4404 C   0  0  1  0  0  0  0  0  0  0  0  0
    1.0741   -1.4663   -0.2787 O   0  0  0  0  0  0  0  0  0  0  0  0
    2.3559   -0.3400    1.2756 C   0  0  1  0  0  0  0  0  0  0  0  0
    3.6807   -0.2414    1.8033 O   0  0  0  0  0  0  0  0  0  0  0  0
    1.9773    0.6666    0.2054 C   0  0  1  0  0  0  0  0  0  0  0  0
    3.0094    0.8288   -0.7732 O   0  0  0  0  0  0  0  0  0  0  0  0
    0.7820   -0.0744   -0.4054 C   0  0  2  0  0  0  0  0  0  0  0  0
    3.9363    0.8568    2.6315 C   0  0  2  0  0  0  0  0  0  0  0  0
    5.2673    0.6392    3.3640 C   0  0  2  0  0  0  0  0  0  0  0  0
    5.2572   -0.6737    4.0615 N   0  3  0  0  0  0  0  0  0  0  0  0
    5.5519    1.7923    4.3320 C   0  0  1  0  0  0  0  0  0  0  0  0
    5.8665    2.9670    3.5961 O   0  0  0  0  0  0  0  0  0  0  0  0
    4.3481    2.0617    5.2401 C   0  0  2  0  0  0  0  0  0  0  0  0
    4.1605    0.9811    6.1452 O   0  0  0  0  0  0  0  0  0  0  0  0
    3.0956    2.2516    4.3892 C   0  0  1  0  0  0  0  0  0  0  0  0
    2.8886    1.0888    3.5640 O   0  0  0  0  0  0  0  0  0  0  0  0
    1.8391    2.4711    5.2132 C   0  0  0  0  0  0  0  0  0  0  0  0
    1.6023    1.3632    6.1652 N   0  3  0  0  0  0  0  0  0  0  0  0
   -3.7459   -2.4578    4.5986 C   0  0  0  0  0  0  0  0  0  0  0  0
   -1.4694   -2.2399    1.6836 C   0  0  2  0  0  0  0  0  0  0  0  0
   -0.9503   -3.6737    1.6081 C   0  0  2  0  0  0  0  0  0  0  0  0
   -0.3906   -3.9466    0.2628 N   0  3  0  0  0  0  0  0  0  0  0  0
   -2.0783   -4.6560    1.8938 C   0  0  1  0  0  0  0  0  0  0  0  0
   -1.5671   -5.9800    1.8973 O   0  0  0  0  0  0  0  0  0  0  0  0
   -2.7074   -4.3321    3.2470 C   0  0  2  0  0  0  0  0  0  0  0  0
   -3.8063   -5.2009    3.4901 O   0  0  0  0  0  0  0  0  0  0  0  0
   -5.0494   -3.1043    4.8740 N   0  3  0  0  0  0  0  0  0  0  0  0
   -3.1868   -2.8817    3.2517 C   0  0  2  0  0  0  0  0  0  0  0  0
   -2.0912   -1.9963    2.9426 O   0  0  0  0  0  0  0  0  0  0  0  0
   -3.4273    1.6127   -1.3472 C   0  0  2  0  0  0  0  0  0  0  0  0
   -3.8285    3.0229   -1.5561 N   0  3  0  0  0  0  0  0  0  0  0  0
   -4.4737    0.8927   -0.5043 C   0  0  0  0  0  0  0  0  0  0  0  0
   -4.0730   -0.5586   -0.2794 C   0  0  2  0  0  0  0  0  0  0  0  0
   -5.1096   -1.1876    0.5269 N   0  3  0  0  0  0  0  0  0  0  0  0
   -2.7213   -0.6184    0.4282 C   0  0  1  0  0  0  0  0  0  0  0  0
   -2.3362   -1.9948    0.6119 O   0  0  0  0  0  0  0  0  0  0  0  0
   -1.6453    0.1076   -0.3911 C   0  0  2  0  0  0  0  0  0  0  0  0
   -0.4107    0.1233    0.3506 O   0  0  0  0  0  0  0  0  0  0  0  0
   -2.0492    1.5490   -0.6907 C   0  0  1  0  0  0  0  0  0  0  0  0
   -1.0865    2.1421   -1.5522 O   0  0  0  0  0  0  0  0  0  0  0  0
  1  2  1  0  0  0  0
  3  2  1  1  0  0  0
  3  5  1  0  0  0  0
  3  4  1  0  0  0  0
  4  9  1  0  0  0  0
  5  7  1  0  0  0  0
  5  6  1  6  0  0  0
  7  9  1  0  0  0  0
  7  8  1  6  0  0  0
  9 40  1  1  0  0  0
 10  6  1  1  0  0  0
 10 11  1  0  0  0  0
 10 18  1  0  0  0  0
 11 13  1  0  0  0  0
 11 12  1  1  0  0  0
 13 15  1  0  0  0  0
 13 14  1  6  0  0  0
 15 17  1  0  0  0  0
 15 16  1  1  0  0  0
 17 19  1  1  0  0  0
 17 18  1  0  0  0  0
 19 20  1  0  0  0  0
 21 29  1  0  0  0  0
 22 23  1  0  0  0  0
 22 31  1  0  0  0  0
 22 38  1  6  0  0  0
 23 25  1  0  0  0  0
 23 24  1  6  0  0  0
 25 27  1  0  0  0  0
 25 26  1  1  0  0  0
 27 30  1  0  0  0  0
 27 28  1  6  0  0  0
 30 21  1  1  0  0  0
 30 31  1  0  0  0  0
 32 34  1  0  0  0  0
 32 41  1  0  0  0  0
 32 33  1  1  0  0  0
 34 35  1  0  0  0  0
 35 37  1  0  0  0  0
 35 36  1  1  0  0  0
 37 39  1  0  0  0  0
 37 38  1  6  0  0  0
 39 41  1  0  0  0  0
 39 40  1  1  0  0  0
 41 42  1  6  0  0  0
M  CHG  6  12   1  20   1  24   1  29   1  33   1  36   1
M  END
>  <CHROM.1>
-169.92682062,-76.34799898,-178.74258090,166.78524992,-42.54194164,-96.34369168
-68.65739348,-177.98210611,79.17329372,-56.72332597,59.36925173,-71.09347127
54.41205660,-169.83486666,144.79116212,45.98406920,72.66148166,97.71404819
70.92669624,-154.21737429,140.96049798,-48.42658232,0.10832280,-0.68221642
1.93363660,-0.10022981,0.48860015,2.41886182

>  <Name>
1NEM.B

>  <RI>
0

>  <Rbt.Current_Directory>
/home/itssahil/PROJECTS/Mol_Feturizer/New_Systems/rnas/1nem

>  <Rbt.Executable>
rbdock ($Id: //depot/dev/client3/rdock/2013.1/src/exe/rbdock.cxx#4 $)

>  <Rbt.Library>
libRbt.so (2013.1, Build901 2013/11/27)

>  <Rbt.Parameter_File>
/export/apps/rDock/src/rDock_2013.1_src/data/scripts/dock_solv.prm

>  <Rbt.Receptor>
prm/pocket_docking_2.prm

>  <SCORE>
-62.7558

>  <SCORE.INTER>
-64.4378

>  <SCORE.INTER.CONST>
1

>  <SCORE.INTER.POLAR>
-8.44936

>  <SCORE.INTER.ROT>
9

>  <SCORE.INTER.SOLV>
42.1759

>  <SCORE.INTER.VDW>
-38.4526

>  <SCORE.INTER.norm>
-1.53423

>  <SCORE.INTRA>
1.52369

>  <SCORE.INTRA.DIHEDRAL>
4.99896

>  <SCORE.INTRA.DIHEDRAL.0>
22.4324

>  <SCORE.INTRA.POLAR>
-1.11193

>  <SCORE.INTRA.POLAR.0>
-1.83749

>  <SCORE.INTRA.REPUL>
0

>  <SCORE.INTRA.REPUL.0>
0

>  <SCORE.INTRA.SOLV>
2.49488

>  <SCORE.INTRA.SOLV.lig_0>
-160.638

>  <SCORE.INTRA.VDW>
1.55733

>  <SCORE.INTRA.VDW.0>
-7.61953

>  <SCORE.INTRA.norm>
0.0362784

>  <SCORE.RESTR>
0.158383

>  <SCORE.RESTR.CAVITY>
0.158383

>  <SCORE.RESTR.norm>
0.00377102

>  <SCORE.SYSTEM>
0

>  <SCORE.SYSTEM.CONST>
0

>  <SCORE.SYSTEM.DIHEDRAL>
0

>  <SCORE.SYSTEM.SOLV>
0

>  <SCORE.SYSTEM.norm>
0

>  <SCORE.heavy>
42

>  <SCORE.norm>
-1.49418

>  <RMSD>
0.805

$$$$
1NEM.B
 OpenBabel11021811403D
libRbt.so/2013.1/901 2013/11/27
 42 45  0  0  0  0  0  0  0  0999 V2000
    0.8893   -3.3786    2.7754 O   0  0  0  0  0  0  0  0  0  0  0  0
    2.2166   -2.9778    2.4293 C   0  0  0  0  0  0  0  0  0  0  0  0
    2.2637   -2.0453    1.2198 C   0  0  1  0  0  0  0  0  0  0  0  0
    1.0125   -2.0404    0.5386 O   0  0  0  0  0  0  0  0  0  0  0  0
    2.4798   -0.5787    1.5574 C   0  0  1  0  0  0  0  0  0  0  0  0
    3.8403   -0.4342    1.9716 O   0  0  0  0  0  0  0  0  0  0  0  0
    2.1124    0.0298    0.2170 C   0  0  1  0  0  0  0  0  0  0  0  0
    3.0871   -0.2560   -0.7916 O   0  0  0  0  0  0  0  0  0  0  0  0
    0.8243   -0.7558   -0.0554 C   0  0  2  0  0  0  0  0  0  0  0  0
    4.1176    0.6444    2.8184 C   0  0  2  0  0  0  0  0  0  0  0  0
    5.5142    0.4627    3.4283 C   0  0  2  0  0  0  0  0  0  0  0  0
    5.6202   -0.8733    4.0718 N   0  3  0  0  0  0  0  0  0  0  0  0
    5.8299    1.5924    4.4140 C   0  0  1  0  0  0  0  0  0  0  0  0
    6.0298    2.8061    3.7015 O   0  0  0  0  0  0  0  0  0  0  0  0
    4.6971    1.7731    5.4292 C   0  0  2  0  0  0  0  0  0  0  0  0
    4.6340    0.6533    6.3034 O   0  0  0  0  0  0  0  0  0  0  0  0
    3.3698    1.9349    4.6937 C   0  0  1  0  0  0  0  0  0  0  0  0
    3.1439    0.7940    3.8433 O   0  0  0  0  0  0  0  0  0  0  0  0
    2.1796    2.0663    5.6276 C   0  0  0  0  0  0  0  0  0  0  0  0
    1.7909    0.7643    6.2137 N   0  3  0  0  0  0  0  0  0  0  0  0
   -5.2476   -1.9972    4.0502 C   0  0  0  0  0  0  0  0  0  0  0  0
   -2.3530   -2.0761    1.7388 C   0  0  2  0  0  0  0  0  0  0  0  0
   -2.1777   -3.5795    1.5383 C   0  0  2  0  0  0  0  0  0  0  0  0
   -1.3913   -3.8451    0.3101 N   0  3  0  0  0  0  0  0  0  0  0  0
   -3.5373   -4.2555    1.4226 C   0  0  1  0  0  0  0  0  0  0  0  0
   -3.3630   -5.6600    1.3146 O   0  0  0  0  0  0  0  0  0  0  0  0
   -4.3793   -3.9236    2.6526 C   0  0  2  0  0  0  0  0  0  0  0  0
   -5.6749   -4.4940    2.5202 O   0  0  0  0  0  0  0  0  0  0  0  0
   -4.4836   -2.3297    5.2744 N   0  3  0  0  0  0  0  0  0  0  0  0
   -4.4963   -2.4074    2.7955 C   0  0  2  0  0  0  0  0  0  0  0  0
   -3.1842   -1.8132    2.8662 O   0  0  0  0  0  0  0  0  0  0  0  0
   -2.4185    2.3557   -1.1620 C   0  0  2  0  0  0  0  0  0  0  0  0
   -2.2784    3.8251   -1.2824 N   0  3  0  0  0  0  0  0  0  0  0  0
   -3.7283    2.0129   -0.4611 C   0  0  0  0  0  0  0  0  0  0  0  0
   -3.8849    0.5046   -0.3281 C   0  0  2  0  0  0  0  0  0  0  0  0
   -5.1499    0.2452    0.3446 N   0  3  0  0  0  0  0  0  0  0  0  0
   -2.7161   -0.0686    0.4699 C   0  0  1  0  0  0  0  0  0  0  0  0
   -2.8570   -1.4993    0.5670 O   0  0  0  0  0  0  0  0  0  0  0  0
   -1.3791    0.2680   -0.2048 C   0  0  2  0  0  0  0  0  0  0  0  0
   -0.2963   -0.1947    0.6248 O   0  0  0  0  0  0  0  0  0  0  0  0
   -1.2215    1.7721   -0.4131 C   0  0  1  0  0  0  0  0  0  0  0  0
   -0.0325    2.0272   -1.1490 O   0  0  0  0  0  0  0  0  0  0  0  0
  1  2  1  0  0  0  0
  3  2  1  1  0  0  0
  3  5  1  0  0  0  0
  3  4  1  0  0  0  0
  4  9  1  0  0  0  0
  5  7  1  0  0  0  0
  5  6  1  6  0  0  0
  7  9  1  0  0  0  0
  7  8  1  6  0  0  0
  9 40  1  1  0  0  0
 10  6  1  1  0  0  0
 10 11  1  0  0  0  0
 10 18  1  0  0  0  0
 11 13  1  0  0  0  0
 11 12  1  1  0  0  0
 13 15  1  0  0  0  0
 13 14  1  6  0  0  0
 15 17  1  0  0  0  0
 15 16  1  1  0  0  0
 17 19  1  1  0  0  0
 17 18  1  0  0  0  0
 19 20  1  0  0  0  0
 21 29  1  0  0  0  0
 22 23  1  0  0  0  0
 22 31  1  0  0  0  0
 22 38  1  6  0  0  0
 23 25  1  0  0  0  0
 23 24  1  6  0  0  0
 25 27  1  0  0  0  0
 25 26  1  1  0  0  0
 27 30  1  0  0  0  0
 27 28  1  6  0  0  0
 30 21  1  1  0  0  0
 30 31  1  0  0  0  0
 32 34  1  0  0  0  0
 32 41  1  0  0  0  0
 32 33  1  1  0  0  0
 34 35  1  0  0  0  0
 35 37  1  0  0  0  0
 35 36  1  1  0  0  0
 37 39  1  0  0  0  0
 37 38  1  6  0  0  0
 39 41  1  0  0  0  0
 39 40  1  1  0  0  0
 41 42  1  6  0  0  0
M  CHG  6  12   1  20   1  24   1  29   1  33   1  36   1
M  END
>  <CHROM.1>
-20.31445617,-13.38101007,-154.78850284,166.51632775,-30.16307567,-126.32816648
48.69408491,166.73132046,72.56767906,-76.22017958,-176.86406830,67.72291920
102.48816756,-162.96737211,-53.18159718,-66.90053598,169.99541474,63.08427833
-135.91256827,-148.32984940,141.41162135,-154.45251482,-0.01156842,-0.61879845
2.02378483,-0.05887618,0.42811478,2.39817383

>  <Name>
1NEM.B

>  <RI>
0

>  <Rbt.Current_Directory>
/home/itssahil/PROJECTS/Mol_Feturizer/New_Systems/rnas/1nem

>  <Rbt.Executable>
rbdock ($Id: //depot/dev/client3/rdock/2013.1/src/exe/rbdock.cxx#4 $)

>  <Rbt.Library>
libRbt.so (2013.1, Build901 2013/11/27)

>  <Rbt.Parameter_File>
/export/apps/rDock/src/rDock_2013.1_src/data/scripts/dock_solv.prm

>  <Rbt.Receptor>
prm/pocket_docking_7.prm

>  <SCORE>
-40.1788

>  <SCORE.INTER>
-54.4976

>  <SCORE.INTER.CONST>
1

>  <SCORE.INTER.POLAR>
-7.31453

>  <SCORE.INTER.ROT>
9

>  <SCORE.INTER.SOLV>
45.0577

>  <SCORE.INTER.VDW>
-36.5692

>  <SCORE.INTER.norm>
-1.29756

>  <SCORE.INTRA>
14.3187

>  <SCORE.INTRA.DIHEDRAL>
24.7858

>  <SCORE.INTRA.DIHEDRAL.0>
22.4324

>  <SCORE.INTRA.POLAR>
-0.739715

>  <SCORE.INTRA.POLAR.0>
-1.83749

>  <SCORE.INTRA.REPUL>
0

>  <SCORE.INTRA.REPUL.0>
0

>  <SCORE.INTRA.SOLV>
0.360027

>  <SCORE.INTRA.SOLV.lig_0>
-160.638

>  <SCORE.INTRA.VDW>
4.26087

>  <SCORE.INTRA.VDW.0>
-7.61953

>  <SCORE.INTRA.norm>
0.340923

>  <SCORE.RESTR>
0

>  <SCORE.RESTR.CAVITY>
0

>  <SCORE.RESTR.norm>
0

>  <SCORE.SYSTEM>
0

>  <SCORE.SYSTEM.CONST>
0

>  <SCORE.SYSTEM.DIHEDRAL>
0

>  <SCORE.SYSTEM.SOLV>
0

>  <SCORE.SYSTEM.norm>
0

>  <SCORE.heavy>
42

>  <SCORE.norm>
-0.956638

>  <RMSD>
0.808

$$$$
1NEM.B
 OpenBabel11021811403D
libRbt.so/2013.1/901 2013/11/27
 42 45  0  0  0  0  0  0  0  0999 V2000
    2.8287   -4.3838    1.8419 O   0  0  0  0  0  0  0  0  0  0  0  0
    1.9867   -3.2512    2.0663 C   0  0  0  0  0  0  0  0  0  0  0  0
    2.1334   -2.1744    0.9922 C   0  0  1  0  0  0  0  0  0  0  0  0
    0.9330   -2.0518    0.2348 O   0  0  0  0  0  0  0  0  0  0  0  0
    2.3493   -0.7683    1.5287 C   0  0  1  0  0  0  0  0  0  0  0  0
    3.6797   -0.7117    2.0484 O   0  0  0  0  0  0  0  0  0  0  0  0
    2.0863    0.0142    0.2558 C   0  0  1  0  0  0  0  0  0  0  0  0
    3.1243   -0.1659   -0.7135 O   0  0  0  0  0  0  0  0  0  0  0  0
    0.8077   -0.6980   -0.2009 C   0  0  2  0  0  0  0  0  0  0  0  0
    4.0761    0.5107    2.6014 C   0  0  2  0  0  0  0  0  0  0  0  0
    5.6060    0.5405    2.7194 C   0  0  2  0  0  0  0  0  0  0  0  0
    6.0843   -0.6578    3.4581 N   0  3  0  0  0  0  0  0  0  0  0  0
    6.0767    1.8392    3.3821 C   0  0  1  0  0  0  0  0  0  0  0  0
    5.8785    2.9291    2.4914 O   0  0  0  0  0  0  0  0  0  0  0  0
    5.3202    2.0990    4.6884 C   0  0  2  0  0  0  0  0  0  0  0  0
    5.6870    1.1388    5.6710 O   0  0  0  0  0  0  0  0  0  0  0  0
    3.8171    2.0343    4.4327 C   0  0  1  0  0  0  0  0  0  0  0  0
    3.4758    0.7538    3.8670 O   0  0  0  0  0  0  0  0  0  0  0  0
    2.9867    2.2278    5.6893 C   0  0  0  0  0  0  0  0  0  0  0  0
    1.5353    2.1661    5.4072 N   0  3  0  0  0  0  0  0  0  0  0  0
   -4.1943   -3.2576    4.2232 C   0  0  0  0  0  0  0  0  0  0  0  0
   -1.6365   -2.5863    1.6282 C   0  0  2  0  0  0  0  0  0  0  0  0
   -1.0575   -3.9833    1.4176 C   0  0  2  0  0  0  0  0  0  0  0  0
   -0.3507   -4.0550    0.1166 N   0  3  0  0  0  0  0  0  0  0  0  0
   -2.1707   -5.0222    1.4447 C   0  0  1  0  0  0  0  0  0  0  0  0
   -1.6121   -6.3215    1.3259 O   0  0  0  0  0  0  0  0  0  0  0  0
   -2.9494   -4.9027    2.7529 C   0  0  2  0  0  0  0  0  0  0  0  0
   -4.0334   -5.8227    2.7564 O   0  0  0  0  0  0  0  0  0  0  0  0
   -3.2903   -3.4904    5.3728 N   0  3  0  0  0  0  0  0  0  0  0  0
   -3.4820   -3.4787    2.9002 C   0  0  2  0  0  0  0  0  0  0  0  0
   -2.3951   -2.5333    2.8335 O   0  0  0  0  0  0  0  0  0  0  0  0
   -3.2021    1.5648   -1.2469 C   0  0  2  0  0  0  0  0  0  0  0  0
   -3.5167    3.0061   -1.3779 N   0  3  0  0  0  0  0  0  0  0  0  0
   -4.3221    0.8532   -0.4963 C   0  0  0  0  0  0  0  0  0  0  0  0
   -4.0111   -0.6299   -0.3520 C   0  0  2  0  0  0  0  0  0  0  0  0
   -5.1147   -1.2490    0.3684 N   0  3  0  0  0  0  0  0  0  0  0  0
   -2.6970   -0.8118    0.4039 C   0  0  1  0  0  0  0  0  0  0  0  0
   -2.3957   -2.2168    0.5115 O   0  0  0  0  0  0  0  0  0  0  0  0
   -1.5482   -0.0975   -0.3215 C   0  0  2  0  0  0  0  0  0  0  0  0
   -0.3483   -0.1996    0.4688 O   0  0  0  0  0  0  0  0  0  0  0  0
   -1.8597    1.3808   -0.5410 C   0  0  1  0  0  0  0  0  0  0  0  0
   -0.8294    1.9718   -1.3218 O   0  0  0  0  0  0  0  0  0  0  0  0
  1  2  1  0  0  0  0
  3  2  1  1  0  0  0
  3  5  1  0  0  0  0
  3  4  1  0  0  0  0
  4  9  1  0  0  0  0
  5  7  1  0  0  0  0
  5  6  1  6  0  0  0
  7  9  1  0  0  0  0
  7  8  1  6  0  0  0
  9 40  1  1  0  0  0
 10  6  1  1  0  0  0
 10 11  1  0  0  0  0
 10 18  1  0  0  0  0
 11 13  1  0  0  0  0
 11 12  1  1  0  0  0
 13 15  1  0  0  0  0
 13 14  1  6  0  0  0
 15 17  1  0  0  0  0
 15 16  1  1  0  0  0
 17 19  1  1  0  0  0
 17 18  1  0  0  0  0
 19 20  1  0  0  0  0
 21 29  1  0  0  0  0
 22 23  1  0  0  0  0
 22 31  1  0  0  0  0
 22 38  1  6  0  0  0
 23 25  1  0  0  0  0
 23 24  1  6  0  0  0
 25 27  1  0  0  0  0
 25 26  1  1  0  0  0
 27 30  1  0  0  0  0
 27 28  1  6  0  0  0
 30 21  1  1  0  0  0
 30 31  1  0  0  0  0
 32 34  1  0  0  0  0
 32 41  1  0  0  0  0
 32 33  1  1  0  0  0
 34 35  1  0  0  0  0
 35 37  1  0  0  0  0
 35 36  1  1  0  0  0
 37 39  1  0  0  0  0
 37 38  1  6  0  0  0
 39 41  1  0  0  0  0
 39 40  1  1  0  0  0
 41 42  1  6  0  0  0
M  CHG  6  12   1  20   1  24   1  29   1  33   1  36   1
M  END
>  <CHROM.1>
-67.28172406,113.46831649,-179.67368433,-163.21668106,178.52432000,-102.88362876
-82.78027661,63.86223478,-174.57301623,179.72771921,70.23533042,60.33458730
47.22394135,-163.79663252,-103.49339605,-61.52599746,-62.30393595,98.28436553
176.93885211,-151.74644395,127.87978824,-56.87133261,0.32716059,-0.98520594
1.80561219,-0.26519973,0.43529350,2.68498042

>  <Name>
1NEM.B

>  <RI>
0

>  <Rbt.Current_Directory>
/home/itssahil/PROJECTS/Mol_Feturizer/New_Systems/rnas/1nem

>  <Rbt.Executable>
rbdock ($Id: //depot/dev/client3/rdock/2013.1/src/exe/rbdock.cxx#4 $)

>  <Rbt.Library>
libRbt.so (2013.1, Build901 2013/11/27)

>  <Rbt.Parameter_File>
/export/apps/rDock/src/rDock_2013.1_src/data/scripts/dock_solv.prm

>  <Rbt.Receptor>
prm/pocket_docking_3.prm

>  <SCORE>
-58.9544

>  <SCORE.INTER>
-67.2069

>  <SCORE.INTER.CONST>
1

>  <SCORE.INTER.POLAR>
-9.5099

>  <SCORE.INTER.ROT>
9

>  <SCORE.INTER.SOLV>
47.3592

>  <SCORE.INTER.VDW>
-38.4913

>  <SCORE.INTER.norm>
-1.60016

>  <SCORE.INTRA>
8.25248

>  <SCORE.INTRA.DIHEDRAL>
9.8442

>  <SCORE.INTRA.DIHEDRAL.0>
22.4324

>  <SCORE.INTRA.POLAR>
0.245413

>  <SCORE.INTRA.POLAR.0>
-1.83749

>  <SCORE.INTRA.REPUL>
0.026744

>  <SCORE.INTRA.REPUL.0>
0

>  <SCORE.INTRA.SOLV>
-1.70304

>  <SCORE.INTRA.SOLV.lig_0>
-160.638

>  <SCORE.INTRA.VDW>
3.21377

>  <SCORE.INTRA.VDW.0>
-7.61953

>  <SCORE.INTRA.norm>
0.196488

>  <SCORE.RESTR>
0

>  <SCORE.RESTR.CAVITY>
0

>  <SCORE.RESTR.norm>
0

>  <SCORE.SYSTEM>
0

>  <SCORE.SYSTEM.CONST>
0

>  <SCORE.SYSTEM.DIHEDRAL>
0

>  <SCORE.SYSTEM.SOLV>
0

>  <SCORE.SYSTEM.norm>
0

>  <SCORE.heavy>
42

>  <SCORE.norm>
-1.40368

>  <RMSD>
0.844

$$$$
1NEM.B
 OpenBabel11021811403D
libRbt.so/2013.1/901 2013/11/27
 42 45  0  0  0  0  0  0  0  0999 V2000
    1.1234   -3.6041    1.8594 O   0  0  0  0  0  0  0  0  0  0  0  0
    2.3289   -3.3839    1.1242 C   0  0  0  0  0  0  0  0  0  0  0  0
    2.4093   -1.9865    0.5115 C   0  0  1  0  0  0  0  0  0  0  0  0
    1.2692   -1.7272   -0.3024 O   0  0  0  0  0  0  0  0  0  0  0  0
    2.3806   -0.8490    1.5199 C   0  0  1  0  0  0  0  0  0  0  0  0
    3.6431   -0.8438    2.1902 O   0  0  0  0  0  0  0  0  0  0  0  0
    2.1144    0.3035    0.5698 C   0  0  1  0  0  0  0  0  0  0  0  0
    3.2426    0.5882   -0.2640 O   0  0  0  0  0  0  0  0  0  0  0  0
    0.9902   -0.3276   -0.2600 C   0  0  2  0  0  0  0  0  0  0  0  0
    4.0586    0.3839    2.7169 C   0  0  2  0  0  0  0  0  0  0  0  0
    5.5832    0.3694    2.8922 C   0  0  2  0  0  0  0  0  0  0  0  0
    5.9941   -0.8171    3.6882 N   0  3  0  0  0  0  0  0  0  0  0  0
    6.0714    1.6748    3.5286 C   0  0  1  0  0  0  0  0  0  0  0  0
    5.9423    2.7389    2.5950 O   0  0  0  0  0  0  0  0  0  0  0  0
    5.2759    2.0035    4.7957 C   0  0  2  0  0  0  0  0  0  0  0  0
    5.5742    1.0667    5.8231 O   0  0  0  0  0  0  0  0  0  0  0  0
    3.7820    1.9774    4.4850 C   0  0  1  0  0  0  0  0  0  0  0  0
    3.4201    0.6895    3.9497 O   0  0  0  0  0  0  0  0  0  0  0  0
    2.9123    2.2404    5.7017 C   0  0  0  0  0  0  0  0  0  0  0  0
    1.4707    2.1919    5.3712 N   0  3  0  0  0  0  0  0  0  0  0  0
   -5.4138   -1.7443    3.8316 C   0  0  0  0  0  0  0  0  0  0  0  0
   -2.4133   -2.0290    1.6769 C   0  0  2  0  0  0  0  0  0  0  0  0
   -2.2688   -3.5453    1.5727 C   0  0  2  0  0  0  0  0  0  0  0  0
   -1.4310   -3.9019    0.4029 N   0  3  0  0  0  0  0  0  0  0  0  0
   -3.6389   -4.1943    1.4282 C   0  0  1  0  0  0  0  0  0  0  0  0
   -3.4973   -5.6064    1.4105 O   0  0  0  0  0  0  0  0  0  0  0  0
   -4.5306   -3.7702    2.5931 C   0  0  2  0  0  0  0  0  0  0  0  0
   -5.8330   -4.3162    2.4292 O   0  0  0  0  0  0  0  0  0  0  0  0
   -4.6879   -1.9587    5.1044 N   0  3  0  0  0  0  0  0  0  0  0  0
   -4.6136   -2.2458    2.6421 C   0  0  2  0  0  0  0  0  0  0  0  0
   -3.2910   -1.6801    2.7440 O   0  0  0  0  0  0  0  0  0  0  0  0
   -2.4289    2.2708   -1.4401 C   0  0  2  0  0  0  0  0  0  0  0  0
   -2.2834    3.7334   -1.6218 N   0  3  0  0  0  0  0  0  0  0  0  0
   -3.7216    1.9648   -0.6921 C   0  0  0  0  0  0  0  0  0  0  0  0
   -3.8834    0.4639   -0.4960 C   0  0  2  0  0  0  0  0  0  0  0  0
   -5.1317    0.2397    0.2195 N   0  3  0  0  0  0  0  0  0  0  0  0
   -2.6973   -0.0857    0.2930 C   0  0  1  0  0  0  0  0  0  0  0  0
   -2.8440   -1.5105    0.4498 O   0  0  0  0  0  0  0  0  0  0  0  0
   -1.3767    0.2150   -0.4294 C   0  0  2  0  0  0  0  0  0  0  0  0
   -0.2751   -0.2224    0.3890 O   0  0  0  0  0  0  0  0  0  0  0  0
   -1.2159    1.7087   -0.7006 C   0  0  1  0  0  0  0  0  0  0  0  0
   -0.0453    1.9266   -1.4770 O   0  0  0  0  0  0  0  0  0  0  0  0
  1  2  1  0  0  0  0
  3  2  1  1  0  0  0
  3  5  1  0  0  0  0
  3  4  1  0  0  0  0
  4  9  1  0  0  0  0
  5  7  1  0  0  0  0
  5  6  1  6  0  0  0
  7  9  1  0  0  0  0
  7  8  1  6  0  0  0
  9 40  1  1  0  0  0
 10  6  1  1  0  0  0
 10 11  1  0  0  0  0
 10 18  1  0  0  0  0
 11 13  1  0  0  0  0
 11 12  1  1  0  0  0
 13 15  1  0  0  0  0
 13 14  1  6  0  0  0
 15 17  1  0  0  0  0
 15 16  1  1  0  0  0
 17 19  1  1  0  0  0
 17 18  1  0  0  0  0
 19 20  1  0  0  0  0
 21 29  1  0  0  0  0
 22 23  1  0  0  0  0
 22 31  1  0  0  0  0
 22 38  1  6  0  0  0
 23 25  1  0  0  0  0
 23 24  1  6  0  0  0
 25 27  1  0  0  0  0
 25 26  1  1  0  0  0
 27 30  1  0  0  0  0
 27 28  1  6  0  0  0
 30 21  1  1  0  0  0
 30 31  1  0  0  0  0
 32 34  1  0  0  0  0
 32 41  1  0  0  0  0
 32 33  1  1  0  0  0
 34 35  1  0  0  0  0
 35 37  1  0  0  0  0
 35 36  1  1  0  0  0
 37 39  1  0  0  0  0
 37 38  1  6  0  0  0
 39 41  1  0  0  0  0
 39 40  1  1  0  0  0
 41 42  1  6  0  0  0
M  CHG  6  12   1  20   1  24   1  29   1  33   1  36   1
M  END
>  <CHROM.1>
-176.35671728,-55.17433965,153.92074524,-157.99914263,-175.23645471,-111.36747435
160.43102468,-58.16313754,177.41392591,-179.29608907,-173.58400529,70.67629023
160.09145516,-164.76283903,-165.30404730,-67.55093590,-179.44083185,-173.21740685
-136.18941038,-143.23274678,164.81218626,149.52250360,0.04899842,-0.53009986
1.75540457,-0.12012722,0.38374037,2.47066510

>  <Name>
1NEM.B

>  <RI>
0

>  <Rbt.Current_Directory>
/home/itssahil/PROJECTS/Mol_Feturizer/New_Systems/rnas/1nem

>  <Rbt.Executable>
rbdock ($Id: //depot/dev/client3/rdock/2013.1/src/exe/rbdock.cxx#4 $)

>  <Rbt.Library>
libRbt.so (2013.1, Build901 2013/11/27)

>  <Rbt.Parameter_File>
/export/apps/rDock/src/rDock_2013.1_src/data/scripts/dock_solv.prm

>  <Rbt.Receptor>
prm/pocket_docking_2.prm

>  <SCORE>
-47.8565

>  <SCORE.INTER>
-52.2301

>  <SCORE.INTER.CONST>
1

>  <SCORE.INTER.POLAR>
-6.85227

>  <SCORE.INTER.ROT>
9

>  <SCORE.INTER.SOLV>
41.9775

>  <SCORE.INTER.VDW>
-35.5717

>  <SCORE.INTER.norm>
-1.24357

>  <SCORE.INTRA>
4.37368

>  <SCORE.INTRA.DIHEDRAL>
7.0693

>  <SCORE.INTRA.DIHEDRAL.0>
22.4324

>  <SCORE.INTRA.POLAR>
-0.451487

>  <SCORE.INTRA.POLAR.0>
-1.83749

>  <SCORE.INTRA.REPUL>
0.0034903

>  <SCORE.INTRA.REPUL.0>
0

>  <SCORE.INTRA.SOLV>
-2.178

>  <SCORE.INTRA.SOLV.lig_0>
-160.638

>  <SCORE.INTRA.VDW>
3.44563

>  <SCORE.INTRA.VDW.0>
-7.61953

>  <SCORE.INTRA.norm>
0.104135

>  <SCORE.RESTR>
0

>  <SCORE.RESTR.CAVITY>
0

>  <SCORE.RESTR.norm>
0

>  <SCORE.SYSTEM>
0

>  <SCORE.SYSTEM.CONST>
0

>  <SCORE.SYSTEM.DIHEDRAL>
0

>  <SCORE.SYSTEM.SOLV>
0

>  <SCORE.SYSTEM.norm>
0

>  <SCORE.heavy>
42

>  <SCORE.norm>
-1.13944

>  <RMSD>
0.853

$$$$
1NEM.B
 OpenBabel11021811403D
libRbt.so/2013.1/901 2013/11/27
 42 45  0  0  0  0  0  0  0  0999 V2000
    2.1221   -4.8837    2.0699 O   0  0  0  0  0  0  0  0  0  0  0  0
    1.6515   -3.5799    2.4177 C   0  0  0  0  0  0  0  0  0  0  0  0
    1.9534   -2.5301    1.3492 C   0  0  1  0  0  0  0  0  0  0  0  0
    0.8029   -2.2839    0.5459 O   0  0  0  0  0  0  0  0  0  0  0  0
    2.2974   -1.1525    1.8927 C   0  0  1  0  0  0  0  0  0  0  0  0
    3.6053   -1.2355    2.4634 O   0  0  0  0  0  0  0  0  0  0  0  0
    2.1685   -0.3525    0.6100 C   0  0  1  0  0  0  0  0  0  0  0  0
    3.2177   -0.6470   -0.3182 O   0  0  0  0  0  0  0  0  0  0  0  0
    0.8396   -0.9265    0.1047 C   0  0  2  0  0  0  0  0  0  0  0  0
    4.1142   -0.0561    3.0178 C   0  0  2  0  0  0  0  0  0  0  0  0
    5.6164   -0.2277    3.2810 C   0  0  2  0  0  0  0  0  0  0  0  0
    5.8557   -1.4484    4.0952 N   0  3  0  0  0  0  0  0  0  0  0  0
    6.1991    1.0217    3.9496 C   0  0  1  0  0  0  0  0  0  0  0  0
    6.2349    2.0913    3.0140 O   0  0  0  0  0  0  0  0  0  0  0  0
    5.3696    1.4338    5.1696 C   0  0  2  0  0  0  0  0  0  0  0  0
    5.5095    0.4736    6.2091 O   0  0  0  0  0  0  0  0  0  0  0  0
    3.9015    1.5615    4.7728 C   0  0  1  0  0  0  0  0  0  0  0  0
    3.4402    0.3167    4.2127 O   0  0  0  0  0  0  0  0  0  0  0  0
    2.9946    1.9157    5.9381 C   0  0  0  0  0  0  0  0  0  0  0  0
    1.5745    1.9931    5.5292 N   0  3  0  0  0  0  0  0  0  0  0  0
   -5.1288   -1.8574    4.2005 C   0  0  0  0  0  0  0  0  0  0  0  0
   -2.3592   -2.0871    1.7503 C   0  0  2  0  0  0  0  0  0  0  0  0
   -2.2630   -3.5984    1.5560 C   0  0  2  0  0  0  0  0  0  0  0  0
   -1.5516   -3.9092    0.2931 N   0  3  0  0  0  0  0  0  0  0  0  0
   -3.6562   -4.2118    1.5140 C   0  0  1  0  0  0  0  0  0  0  0  0
   -3.5519   -5.6236    1.4112 O   0  0  0  0  0  0  0  0  0  0  0  0
   -4.4200   -3.8322    2.7807 C   0  0  2  0  0  0  0  0  0  0  0  0
   -5.7454   -4.3432    2.7179 O   0  0  0  0  0  0  0  0  0  0  0  0
   -4.3689   -2.2979    5.3928 N   0  3  0  0  0  0  0  0  0  0  0  0
   -4.4603   -2.3112    2.9144 C   0  0  2  0  0  0  0  0  0  0  0  0
   -3.1205   -1.7777    2.9146 O   0  0  0  0  0  0  0  0  0  0  0  0
   -2.2180    2.2950   -1.1929 C   0  0  2  0  0  0  0  0  0  0  0  0
   -2.0078    3.7537   -1.3390 N   0  3  0  0  0  0  0  0  0  0  0  0
   -3.5674    2.0262   -0.5364 C   0  0  0  0  0  0  0  0  0  0  0  0
   -3.7963    0.5296   -0.3777 C   0  0  2  0  0  0  0  0  0  0  0  0
   -5.0963    0.3415    0.2506 N   0  3  0  0  0  0  0  0  0  0  0  0
   -2.6855   -0.0758    0.4772 C   0  0  1  0  0  0  0  0  0  0  0  0
   -2.8939   -1.4964    0.5991 O   0  0  0  0  0  0  0  0  0  0  0  0
   -1.3101    0.1861   -0.1519 C   0  0  2  0  0  0  0  0  0  0  0  0
   -0.2814   -0.3045    0.7289 O   0  0  0  0  0  0  0  0  0  0  0  0
   -1.0776    1.6767   -0.3857 C   0  0  1  0  0  0  0  0  0  0  0  0
    0.1487    1.8624   -1.0801 O   0  0  0  0  0  0  0  0  0  0  0  0
  1  2  1  0  0  0  0
  3  2  1  1  0  0  0
  3  5  1  0  0  0  0
  3  4  1  0  0  0  0
  4  9  1  0  0  0  0
  5  7  1  0  0  0  0
  5  6  1  6  0  0  0
  7  9  1  0  0  0  0
  7  8  1  6  0  0  0
  9 40  1  1  0  0  0
 10  6  1  1  0  0  0
 10 11  1  0  0  0  0
 10 18  1  0  0  0  0
 11 13  1  0  0  0  0
 11 12  1  1  0  0  0
 13 15  1  0  0  0  0
 13 14  1  6  0  0  0
 15 17  1  0  0  0  0
 15 16  1  1  0  0  0
 17 19  1  1  0  0  0
 17 18  1  0  0  0  0
 19 20  1  0  0  0  0
 21 29  1  0  0  0  0
 22 23  1  0  0  0  0
 22 31  1  0  0  0  0
 22 38  1  6  0  0  0
 23 25  1  0  0  0  0
 23 24  1  6  0  0  0
 25 27  1  0  0  0  0
 25 26  1  1  0  0  0
 27 30  1  0  0  0  0
 27 28  1  6  0  0  0
 30 21  1  1  0  0  0
 30 31  1  0  0  0  0
 32 34  1  0  0  0  0
 32 41  1  0  0  0  0
 32 33  1  1  0  0  0
 34 35  1  0  0  0  0
 35 37  1  0  0  0  0
 35 36  1  1  0  0  0
 37 39  1  0  0  0  0
 37 38  1  6  0  0  0
 39 41  1  0  0  0  0
 39 40  1  1  0  0  0
 41 42  1  6  0  0  0
M  CHG  6  12   1  20   1  24   1  29   1  33   1  36   1
M  END
>  <CHROM.1>
-171.59345723,99.89976723,179.66708861,-166.91325726,-44.91426569,-116.00754834
46.48060092,178.48215477,80.47199224,-178.32781722,179.64201103,63.76022431
-11.44825212,-162.59972380,70.85481109,-178.49161363,-57.92202480,-65.32051284
-14.69410764,-153.57745757,141.57417100,-65.17377219,0.10046591,-0.82150303
2.03592514,-0.08310898,0.37117578,2.57723969

>  <Name>
1NEM.B

>  <RI>
0

>  <Rbt.Current_Directory>
/home/itssahil/PROJECTS/Mol_Feturizer/New_Systems/rnas/1nem

>  <Rbt.Executable>
rbdock ($Id: //depot/dev/client3/rdock/2013.1/src/exe/rbdock.cxx#4 $)

>  <Rbt.Library>
libRbt.so (2013.1, Build901 2013/11/27)

>  <Rbt.Parameter_File>
/export/apps/rDock/src/rDock_2013.1_src/data/scripts/dock_solv.prm

>  <Rbt.Receptor>
prm/pocket_docking_3.prm

>  <SCORE>
-55.9617

>  <SCORE.INTER>
-60.2458

>  <SCORE.INTER.CONST>
1

>  <SCORE.INTER.POLAR>
-8.04312

>  <SCORE.INTER.ROT>
9

>  <SCORE.INTER.SOLV>
45.6066

>  <SCORE.INTER.VDW>
-38.1556

>  <SCORE.INTER.norm>
-1.43442

>  <SCORE.INTRA>
4.28411

>  <SCORE.INTRA.DIHEDRAL>
10.2345

>  <SCORE.INTRA.DIHEDRAL.0>
22.4324

>  <SCORE.INTRA.POLAR>
-0.0583881

>  <SCORE.INTRA.POLAR.0>
-1.83749

>  <SCORE.INTRA.REPUL>
0

>  <SCORE.INTRA.REPUL.0>
0

>  <SCORE.INTRA.SOLV>
-4.58058

>  <SCORE.INTRA.SOLV.lig_0>
-160.638

>  <SCORE.INTRA.VDW>
1.65564

>  <SCORE.INTRA.VDW.0>
-7.61953

>  <SCORE.INTRA.norm>
0.102003

>  <SCORE.RESTR>
0

>  <SCORE.RESTR.CAVITY>
0

>  <SCORE.RESTR.norm>
0

>  <SCORE.SYSTEM>
0

>  <SCORE.SYSTEM.CONST>
0

>  <SCORE.SYSTEM.DIHEDRAL>
0

>  <SCORE.SYSTEM.SOLV>
0

>  <SCORE.SYSTEM.norm>
0

>  <SCORE.heavy>
42

>  <SCORE.norm>
-1.33242

>  <RMSD>
0.883

$$$$
1NEM.B
 OpenBabel11021811403D
libRbt.so/2013.1/901 2013/11/27
 42 45  0  0  0  0  0  0  0  0999 V2000
    2.8780   -4.3351    2.3825 O   0  0  0  0  0  0  0  0  0  0  0  0
    1.8347   -3.3597    2.3360 C   0  0  0  0  0  0  0  0  0  0  0  0
    2.0104   -2.3492    1.2035 C   0  0  1  0  0  0  0  0  0  0  0  0
    0.8062   -2.2191    0.4534 O   0  0  0  0  0  0  0  0  0  0  0  0
    2.2889   -0.9261    1.6606 C   0  0  1  0  0  0  0  0  0  0  0  0
    3.6271   -0.8954    2.1623 O   0  0  0  0  0  0  0  0  0  0  0  0
    2.0410   -0.2032    0.3499 C   0  0  1  0  0  0  0  0  0  0  0  0
    3.0585   -0.4771   -0.6191 O   0  0  0  0  0  0  0  0  0  0  0  0
    0.7293   -0.8867   -0.0539 C   0  0  2  0  0  0  0  0  0  0  0  0
    4.0546    0.3191    2.7095 C   0  0  2  0  0  0  0  0  0  0  0  0
    5.5751    0.2750    2.9131 C   0  0  2  0  0  0  0  0  0  0  0  0
    5.9494   -0.9269    3.7042 N   0  3  0  0  0  0  0  0  0  0  0  0
    6.0747    1.5647    3.5724 C   0  0  1  0  0  0  0  0  0  0  0  0
    5.9825    2.6404    2.6478 O   0  0  0  0  0  0  0  0  0  0  0  0
    5.2614    1.8949    4.8277 C   0  0  2  0  0  0  0  0  0  0  0  0
    5.5233    0.9424    5.8506 O   0  0  0  0  0  0  0  0  0  0  0  0
    3.7734    1.8992    4.4888 C   0  0  1  0  0  0  0  0  0  0  0  0
    3.3985    0.6237    3.9334 O   0  0  0  0  0  0  0  0  0  0  0  0
    2.8858    2.1656    5.6918 C   0  0  0  0  0  0  0  0  0  0  0  0
    3.1888    1.2511    6.8151 N   0  3  0  0  0  0  0  0  0  0  0  0
   -5.3147   -2.1032    4.0827 C   0  0  0  0  0  0  0  0  0  0  0  0
   -2.4406   -2.1333    1.7448 C   0  0  2  0  0  0  0  0  0  0  0  0
   -2.2258   -3.6338    1.5622 C   0  0  2  0  0  0  0  0  0  0  0  0
   -1.4437   -3.8940    0.3300 N   0  3  0  0  0  0  0  0  0  0  0  0
   -3.5673   -4.3483    1.4684 C   0  0  1  0  0  0  0  0  0  0  0  0
   -3.3553   -5.7488    1.3770 O   0  0  0  0  0  0  0  0  0  0  0  0
   -4.4066   -4.0234    2.7020 C   0  0  2  0  0  0  0  0  0  0  0  0
   -5.6872   -4.6308    2.5895 O   0  0  0  0  0  0  0  0  0  0  0  0
   -4.5011   -2.3295    5.2991 N   0  3  0  0  0  0  0  0  0  0  0  0
   -4.5641   -2.5091    2.8263 C   0  0  2  0  0  0  0  0  0  0  0  0
   -3.2682   -1.8783    2.8767 O   0  0  0  0  0  0  0  0  0  0  0  0
   -2.4811    2.2014   -1.2888 C   0  0  2  0  0  0  0  0  0  0  0  0
   -2.3247    3.6642   -1.4595 N   0  3  0  0  0  0  0  0  0  0  0  0
   -3.7988    1.8969   -0.5853 C   0  0  0  0  0  0  0  0  0  0  0  0
   -3.9721    0.3958   -0.4009 C   0  0  2  0  0  0  0  0  0  0  0  0
   -5.2441    0.1731    0.2720 N   0  3  0  0  0  0  0  0  0  0  0  0
   -2.8146   -0.1611    0.4245 C   0  0  1  0  0  0  0  0  0  0  0  0
   -2.9711   -1.5861    0.5705 O   0  0  0  0  0  0  0  0  0  0  0  0
   -1.4698    0.1379   -0.2525 C   0  0  2  0  0  0  0  0  0  0  0  0
   -0.3973   -0.3067    0.6000 O   0  0  0  0  0  0  0  0  0  0  0  0
   -1.2951    1.6321   -0.5120 C   0  0  1  0  0  0  0  0  0  0  0  0
   -0.0988    1.8490   -1.2483 O   0  0  0  0  0  0  0  0  0  0  0  0
  1  2  1  0  0  0  0
  3  2  1  1  0  0  0
  3  5  1  0  0  0  0
  3  4  1  0  0  0  0
  4  9  1  0  0  0  0
  5  7  1  0  0  0  0
  5  6  1  6  0  0  0
  7  9  1  0  0  0  0
  7  8  1  6  0  0  0
  9 40  1  1  0  0  0
 10  6  1  1  0  0  0
 10 11  1  0  0  0  0
 10 18  1  0  0  0  0
 11 13  1  0  0  0  0
 11 12  1  1  0  0  0
 13 15  1  0  0  0  0
 13 14  1  6  0  0  0
 15 17  1  0  0  0  0
 15 16  1  1  0  0  0
 17 19  1  1  0  0  0
 17 18  1  0  0  0  0
 19 20  1  0  0  0  0
 21 29  1  0  0  0  0
 22 23  1  0  0  0  0
 22 31  1  0  0  0  0
 22 38  1  6  0  0  0
 23 25  1  0  0  0  0
 23 24  1  6  0  0  0
 25 27  1  0  0  0  0
 25 26  1  1  0  0  0
 27 30  1  0  0  0  0
 27 28  1  6  0  0  0
 30 21  1  1  0  0  0
 30 31  1  0  0  0  0
 32 34  1  0  0  0  0
 32 41  1  0  0  0  0
 32 33  1  1  0  0  0
 34 35  1  0  0  0  0
 35 37  1  0  0  0  0
 35 36  1  1  0  0  0
 37 39  1  0  0  0  0
 37 38  1  6  0  0  0
 39 41  1  0  0  0  0
 39 40  1  1  0  0  0
 41 42  1  6  0  0  0
M  CHG  6  12   1  20   1  24   1  29   1  33   1  36   1
M  END
>  <CHROM.1>
58.87188421,130.42346909,-176.36554413,-167.78822219,-175.15225126,-119.29148225
159.68755927,56.67529471,69.17175702,-52.64989673,150.40583445,70.83964347
89.36932862,-160.16738770,-169.23865836,-70.55984200,60.24788443,68.23740983
98.20054087,-150.38925106,142.20944369,62.32887966,0.09627362,-0.74468888
1.92774514,-0.09930882,0.39145221,2.50260097

>  <Name>
1NEM.B

>  <RI>
0

>  <Rbt.Current_Directory>
/home/itssahil/PROJECTS/Mol_Feturizer/New_Systems/rnas/1nem

>  <Rbt.Executable>
rbdock ($Id: //depot/dev/client3/rdock/2013.1/src/exe/rbdock.cxx#4 $)

>  <Rbt.Library>
libRbt.so (2013.1, Build901 2013/11/27)

>  <Rbt.Parameter_File>
/export/apps/rDock/src/rDock_2013.1_src/data/scripts/dock_solv.prm

>  <Rbt.Receptor>
prm/pocket_docking_2.prm

>  <SCORE>
-50.6235

>  <SCORE.INTER>
-55.22

>  <SCORE.INTER.CONST>
1

>  <SCORE.INTER.POLAR>
-7.00532

>  <SCORE.INTER.ROT>
9

>  <SCORE.INTER.SOLV>
39.4944

>  <SCORE.INTER.VDW>
-36.2271

>  <SCORE.INTER.norm>
-1.31476

>  <SCORE.INTRA>
4.28015

>  <SCORE.INTRA.DIHEDRAL>
10.6144

>  <SCORE.INTRA.DIHEDRAL.0>
22.4324

>  <SCORE.INTRA.POLAR>
-1.07155

>  <SCORE.INTRA.POLAR.0>
-1.83749

>  <SCORE.INTRA.REPUL>
0

>  <SCORE.INTRA.REPUL.0>
0

>  <SCORE.INTRA.SOLV>
0.246751

>  <SCORE.INTRA.SOLV.lig_0>
-160.638

>  <SCORE.INTRA.VDW>
2.49286

>  <SCORE.INTRA.VDW.0>
-7.61953

>  <SCORE.INTRA.norm>
0.101908

>  <SCORE.RESTR>
0.316395

>  <SCORE.RESTR.CAVITY>
0.316395

>  <SCORE.RESTR.norm>
0.00753322

>  <SCORE.SYSTEM>
0

>  <SCORE.SYSTEM.CONST>
0

>  <SCORE.SYSTEM.DIHEDRAL>
0

>  <SCORE.SYSTEM.SOLV>
0

>  <SCORE.SYSTEM.norm>
0

>  <SCORE.heavy>
42

>  <SCORE.norm>
-1.20532

>  <RMSD>
0.908

$$$$
1NEM.B
 OpenBabel11021811403D
libRbt.so/2013.1/901 2013/11/27
 42 45  0  0  0  0  0  0  0  0999 V2000
    1.6201   -4.5100    2.2618 O   0  0  0  0  0  0  0  0  0  0  0  0
    2.0253   -3.1589    2.4911 C   0  0  0  0  0  0  0  0  0  0  0  0
    2.0372   -2.3135    1.2184 C   0  0  1  0  0  0  0  0  0  0  0  0
    0.7532   -2.3146    0.6012 O   0  0  0  0  0  0  0  0  0  0  0  0
    2.3129   -0.8351    1.4413 C   0  0  1  0  0  0  0  0  0  0  0  0
    3.6965   -0.7069    1.7766 O   0  0  0  0  0  0  0  0  0  0  0  0
    1.8947   -0.3081    0.0814 C   0  0  1  0  0  0  0  0  0  0  0  0
    2.8074   -0.6940   -0.9516 O   0  0  0  0  0  0  0  0  0  0  0  0
    0.5719   -1.0682   -0.0713 C   0  0  2  0  0  0  0  0  0  0  0  0
    4.0590    0.4497    2.4752 C   0  0  2  0  0  0  0  0  0  0  0  0
    5.5599    0.4004    2.7915 C   0  0  2  0  0  0  0  0  0  0  0  0
    5.8940   -0.8719    3.4842 N   0  3  0  0  0  0  0  0  0  0  0  0
    5.9842    1.6212    3.6144 C   0  0  1  0  0  0  0  0  0  0  0  0
    5.9439    2.7846    2.7987 O   0  0  0  0  0  0  0  0  0  0  0  0
    5.0712    1.8135    4.8293 C   0  0  2  0  0  0  0  0  0  0  0  0
    5.2710    0.7645    5.7683 O   0  0  0  0  0  0  0  0  0  0  0  0
    3.6138    1.8373    4.3774 C   0  0  1  0  0  0  0  0  0  0  0  0
    3.3056    0.6214    3.6686 O   0  0  0  0  0  0  0  0  0  0  0  0
    2.6319    1.9708    5.5281 C   0  0  0  0  0  0  0  0  0  0  0  0
    2.0329    0.6688    5.8969 N   0  3  0  0  0  0  0  0  0  0  0  0
   -4.0645   -1.8759    4.7621 C   0  0  0  0  0  0  0  0  0  0  0  0
   -2.3114   -2.2252    1.5168 C   0  0  2  0  0  0  0  0  0  0  0  0
   -2.4265   -3.7292    1.2807 C   0  0  2  0  0  0  0  0  0  0  0  0
   -2.2120   -4.0416   -0.1524 N   0  3  0  0  0  0  0  0  0  0  0  0
   -3.8035   -4.2229    1.7039 C   0  0  1  0  0  0  0  0  0  0  0  0
   -3.8711   -5.6325    1.5526 O   0  0  0  0  0  0  0  0  0  0  0  0
   -4.0594   -3.8378    3.1593 C   0  0  2  0  0  0  0  0  0  0  0  0
   -5.3703   -4.2343    3.5413 O   0  0  0  0  0  0  0  0  0  0  0  0
   -5.4468   -2.0816    5.2518 N   0  3  0  0  0  0  0  0  0  0  0  0
   -3.9113   -2.3260    3.3196 C   0  0  2  0  0  0  0  0  0  0  0  0
   -2.6058   -1.9056    2.8741 O   0  0  0  0  0  0  0  0  0  0  0  0
   -2.4595    2.2551   -1.1540 C   0  0  2  0  0  0  0  0  0  0  0  0
   -2.2158    3.7094   -1.2923 N   0  3  0  0  0  0  0  0  0  0  0  0
   -3.7778    2.0145   -0.4272 C   0  0  0  0  0  0  0  0  0  0  0  0
   -4.0405    0.5227   -0.2758 C   0  0  2  0  0  0  0  0  0  0  0  0
   -5.3087    0.3617    0.4213 N   0  3  0  0  0  0  0  0  0  0  0  0
   -2.9021   -0.1261    0.5080 C   0  0  1  0  0  0  0  0  0  0  0  0
   -3.1441   -1.5420    0.6224 O   0  0  0  0  0  0  0  0  0  0  0  0
   -1.5565    0.1066   -0.1931 C   0  0  2  0  0  0  0  0  0  0  0  0
   -0.4953   -0.4257    0.6225 O   0  0  0  0  0  0  0  0  0  0  0  0
   -1.2946    1.5934   -0.4198 C   0  0  1  0  0  0  0  0  0  0  0  0
   -0.1036    1.7549   -1.1787 O   0  0  0  0  0  0  0  0  0  0  0  0
  1  2  1  0  0  0  0
  3  2  1  1  0  0  0
  3  5  1  0  0  0  0
  3  4  1  0  0  0  0
  4  9  1  0  0  0  0
  5  7  1  0  0  0  0
  5  6  1  6  0  0  0
  7  9  1  0  0  0  0
  7  8  1  6  0  0  0
  9 40  1  1  0  0  0
 10  6  1  1  0  0  0
 10 11  1  0  0  0  0
 10 18  1  0  0  0  0
 11 13  1  0  0  0  0
 11 12  1  1  0  0  0
 13 15  1  0  0  0  0
 13 14  1  6  0  0  0
 15 17  1  0  0  0  0
 15 16  1  1  0  0  0
 17 19  1  1  0  0  0
 17 18  1  0  0  0  0
 19 20  1  0  0  0  0
 21 29  1  0  0  0  0
 22 23  1  0  0  0  0
 22 31  1  0  0  0  0
 22 38  1  6  0  0  0
 23 25  1  0  0  0  0
 23 24  1  6  0  0  0
 25 27  1  0  0  0  0
 25 26  1  1  0  0  0
 27 30  1  0  0  0  0
 27 28  1  6  0  0  0
 30 21  1  1  0  0  0
 30 31  1  0  0  0  0
 32 34  1  0  0  0  0
 32 41  1  0  0  0  0
 32 33  1  1  0  0  0
 34 35  1  0  0  0  0
 35 37  1  0  0  0  0
 35 36  1  1  0  0  0
 37 39  1  0  0  0  0
 37 38  1  6  0  0  0
 39 41  1  0  0  0  0
 39 40  1  1  0  0  0
 41 42  1  6  0  0  0
M  CHG  6  12   1  20   1  24   1  29   1  33   1  36   1
M  END
>  <CHROM.1>
-169.28959543,57.36124627,-157.76834188,178.11517587,68.72426305,-130.99004229
35.97051847,-56.93417652,-98.77923577,-100.25655200,-37.33927804,-67.12742024
-102.57404106,-165.63375217,-98.80851351,-55.94065812,67.56523627,64.00843096
-129.28128371,-168.97771110,141.63617354,-57.11048970,-0.01376711,-0.74099270
1.92362714,-0.11645933,0.36466435,2.44170862

>  <Name>
1NEM.B

>  <RI>
0

>  <Rbt.Current_Directory>
/home/itssahil/PROJECTS/Mol_Feturizer/New_Systems/rnas/1nem

>  <Rbt.Executable>
rbdock ($Id: //depot/dev/client3/rdock/2013.1/src/exe/rbdock.cxx#4 $)

>  <Rbt.Library>
libRbt.so (2013.1, Build901 2013/11/27)

>  <Rbt.Parameter_File>
/export/apps/rDock/src/rDock_2013.1_src/data/scripts/dock_solv.prm

>  <Rbt.Receptor>
prm/pocket_docking_2.prm

>  <SCORE>
-45.1908

>  <SCORE.INTER>
-59.0659

>  <SCORE.INTER.CONST>
1

>  <SCORE.INTER.POLAR>
-8.20987

>  <SCORE.INTER.ROT>
9

>  <SCORE.INTER.SOLV>
47.0183

>  <SCORE.INTER.VDW>
-37.2838

>  <SCORE.INTER.norm>
-1.40633

>  <SCORE.INTRA>
13.6788

>  <SCORE.INTRA.DIHEDRAL>
15.6699

>  <SCORE.INTRA.DIHEDRAL.0>
22.4324

>  <SCORE.INTRA.POLAR>
0.63825

>  <SCORE.INTRA.POLAR.0>
-1.83749

>  <SCORE.INTRA.REPUL>
0

>  <SCORE.INTRA.REPUL.0>
0

>  <SCORE.INTRA.SOLV>
-3.24631

>  <SCORE.INTRA.SOLV.lig_0>
-160.638

>  <SCORE.INTRA.VDW>
5.29694

>  <SCORE.INTRA.VDW.0>
-7.61953

>  <SCORE.INTRA.norm>
0.325686

>  <SCORE.RESTR>
0.196306

>  <SCORE.RESTR.CAVITY>
0.196306

>  <SCORE.RESTR.norm>
0.00467396

>  <SCORE.SYSTEM>
0

>  <SCORE.SYSTEM.CONST>
0

>  <SCORE.SYSTEM.DIHEDRAL>
0

>  <SCORE.SYSTEM.SOLV>
0

>  <SCORE.SYSTEM.norm>
0

>  <SCORE.heavy>
42

>  <SCORE.norm>
-1.07597

>  <RMSD>
0.920

$$$$
1NEM.B
 OpenBabel11021811403D
libRbt.so/2013.1/901 2013/11/27
 42 45  0  0  0  0  0  0  0  0999 V2000
    2.8258   -4.4639    2.1910 O   0  0  0  0  0  0  0  0  0  0  0  0
    1.8179   -3.4519    2.2369 C   0  0  0  0  0  0  0  0  0  0  0  0
    2.0691   -2.3122    1.2506 C   0  0  1  0  0  0  0  0  0  0  0  0
    0.9241   -2.0936    0.4316 O   0  0  0  0  0  0  0  0  0  0  0  0
    2.2980   -0.9544    1.8951 C   0  0  1  0  0  0  0  0  0  0  0  0
    3.5939   -0.9834    2.4978 O   0  0  0  0  0  0  0  0  0  0  0  0
    2.1432   -0.0791    0.6656 C   0  0  1  0  0  0  0  0  0  0  0  0
    3.2339   -0.2337   -0.2486 O   0  0  0  0  0  0  0  0  0  0  0  0
    0.8727   -0.7099    0.0835 C   0  0  2  0  0  0  0  0  0  0  0  0
    4.0126    0.1970    3.1212 C   0  0  2  0  0  0  0  0  0  0  0  0
    5.5464    0.2510    3.1245 C   0  0  2  0  0  0  0  0  0  0  0  0
    6.0995   -0.9939    3.7199 N   0  3  0  0  0  0  0  0  0  0  0  0
    6.0465    1.4999    3.8577 C   0  0  1  0  0  0  0  0  0  0  0  0
    5.7624    2.6558    3.0807 O   0  0  0  0  0  0  0  0  0  0  0  0
    5.3897    1.6325    5.2352 C   0  0  2  0  0  0  0  0  0  0  0  0
    5.8469    0.6019    6.1017 O   0  0  0  0  0  0  0  0  0  0  0  0
    3.8725    1.5557    5.0899 C   0  0  1  0  0  0  0  0  0  0  0  0
    3.5087    0.3198    4.4448 O   0  0  0  0  0  0  0  0  0  0  0  0
    3.1393    1.6248    6.4180 C   0  0  0  0  0  0  0  0  0  0  0  0
    3.4192    2.8866    7.1385 N   0  3  0  0  0  0  0  0  0  0  0  0
   -5.1596   -1.8188    4.1617 C   0  0  0  0  0  0  0  0  0  0  0  0
   -2.3711   -2.0324    1.7316 C   0  0  2  0  0  0  0  0  0  0  0  0
   -2.2658   -3.5431    1.5368 C   0  0  2  0  0  0  0  0  0  0  0  0
   -1.5436   -3.8492    0.2789 N   0  3  0  0  0  0  0  0  0  0  0  0
   -3.6556   -4.1635    1.4841 C   0  0  1  0  0  0  0  0  0  0  0  0
   -3.5434   -5.5746    1.3810 O   0  0  0  0  0  0  0  0  0  0  0  0
   -4.4305   -3.7888    2.7455 C   0  0  2  0  0  0  0  0  0  0  0  0
   -5.7528   -4.3064    2.6726 O   0  0  0  0  0  0  0  0  0  0  0  0
   -4.4562   -2.3325    5.3594 N   0  3  0  0  0  0  0  0  0  0  0  0
   -4.4795   -2.2681    2.8802 C   0  0  2  0  0  0  0  0  0  0  0  0
   -3.1424   -1.7278    2.8906 O   0  0  0  0  0  0  0  0  0  0  0  0
   -2.2829    2.3716   -1.1856 C   0  0  2  0  0  0  0  0  0  0  0  0
   -2.0947    3.8344   -1.3204 N   0  3  0  0  0  0  0  0  0  0  0  0
   -3.6276    2.0775   -0.5302 C   0  0  0  0  0  0  0  0  0  0  0  0
   -3.8339    0.5765   -0.3831 C   0  0  2  0  0  0  0  0  0  0  0  0
   -5.1303    0.3639    0.2448 N   0  3  0  0  0  0  0  0  0  0  0  0
   -2.7134   -0.0190    0.4662 C   0  0  1  0  0  0  0  0  0  0  0  0
   -2.9003   -1.4434    0.5770 O   0  0  0  0  0  0  0  0  0  0  0  0
   -1.3426    0.2685   -0.1619 C   0  0  2  0  0  0  0  0  0  0  0  0
   -0.3059   -0.2136    0.7142 O   0  0  0  0  0  0  0  0  0  0  0  0
   -1.1327    1.7642   -0.3842 C   0  0  1  0  0  0  0  0  0  0  0  0
    0.0901    1.9737   -1.0780 O   0  0  0  0  0  0  0  0  0  0  0  0
  1  2  1  0  0  0  0
  3  2  1  1  0  0  0
  3  5  1  0  0  0  0
  3  4  1  0  0  0  0
  4  9  1  0  0  0  0
  5  7  1  0  0  0  0
  5  6  1  6  0  0  0
  7  9  1  0  0  0  0
  7  8  1  6  0  0  0
  9 40  1  1  0  0  0
 10  6  1  1  0  0  0
 10 11  1  0  0  0  0
 10 18  1  0  0  0  0
 11 13  1  0  0  0  0
 11 12  1  1  0  0  0
 13 15  1  0  0  0  0
 13 14  1  6  0  0  0
 15 17  1  0  0  0  0
 15 16  1  1  0  0  0
 17 19  1  1  0  0  0
 17 18  1  0  0  0  0
 19 20  1  0  0  0  0
 21 29  1  0  0  0  0
 22 23  1  0  0  0  0
 22 31  1  0  0  0  0
 22 38  1  6  0  0  0
 23 25  1  0  0  0  0
 23 24  1  6  0  0  0
 25 27  1  0  0  0  0
 25 26  1  1  0  0  0
 27 30  1  0  0  0  0
 27 28  1  6  0  0  0
 30 21  1  1  0  0  0
 30 31  1  0  0  0  0
 32 34  1  0  0  0  0
 32 41  1  0  0  0  0
 32 33  1  1  0  0  0
 34 35  1  0  0  0  0
 35 37  1  0  0  0  0
 35 36  1  1  0  0  0
 37 39  1  0  0  0  0
 37 38  1  6  0  0  0
 39 41  1  0  0  0  0
 39 40  1  1  0  0  0
 41 42  1  6  0  0  0
M  CHG  6  12   1  20   1  24   1  29   1  33   1  36   1
M  END
>  <CHROM.1>
55.50782065,127.05540951,178.40791525,-153.89331075,-57.74143649,-116.30878601
-86.16886978,-46.08611903,-121.31401451,60.13082721,107.13182548,59.97668412
-128.68468402,-163.36941512,69.97692786,-174.78539837,-59.40802270,179.02816811
100.32392599,-152.77634317,146.72179800,71.66456985,0.16684096,-0.65508534
2.07882417,-0.06957370,0.41334867,2.52767175

>  <Name>
1NEM.B

>  <RI>
0

>  <Rbt.Current_Directory>
/home/itssahil/PROJECTS/Mol_Feturizer/New_Systems/rnas/1nem

>  <Rbt.Executable>
rbdock ($Id: //depot/dev/client3/rdock/2013.1/src/exe/rbdock.cxx#4 $)

>  <Rbt.Library>
libRbt.so (2013.1, Build901 2013/11/27)

>  <Rbt.Parameter_File>
/export/apps/rDock/src/rDock_2013.1_src/data/scripts/dock_solv.prm

>  <Rbt.Receptor>
prm/pocket_docking_3.prm

>  <SCORE>
-41.1494

>  <SCORE.INTER>
-54.1569

>  <SCORE.INTER.CONST>
1

>  <SCORE.INTER.POLAR>
-7.28795

>  <SCORE.INTER.ROT>
9

>  <SCORE.INTER.SOLV>
40.8798

>  <SCORE.INTER.VDW>
-35.038

>  <SCORE.INTER.norm>
-1.28945

>  <SCORE.INTRA>
13.0074

>  <SCORE.INTRA.DIHEDRAL>
21.9706

>  <SCORE.INTRA.DIHEDRAL.0>
22.4324

>  <SCORE.INTRA.POLAR>
0.139837

>  <SCORE.INTRA.POLAR.0>
-1.83749

>  <SCORE.INTRA.REPUL>
0

>  <SCORE.INTRA.REPUL.0>
0

>  <SCORE.INTRA.SOLV>
-3.90286

>  <SCORE.INTRA.SOLV.lig_0>
-160.638

>  <SCORE.INTRA.VDW>
3.49809

>  <SCORE.INTRA.VDW.0>
-7.61953

>  <SCORE.INTRA.norm>
0.309701

>  <SCORE.RESTR>
0

>  <SCORE.RESTR.CAVITY>
0

>  <SCORE.RESTR.norm>
0

>  <SCORE.SYSTEM>
0

>  <SCORE.SYSTEM.CONST>
0

>  <SCORE.SYSTEM.DIHEDRAL>
0

>  <SCORE.SYSTEM.SOLV>
0

>  <SCORE.SYSTEM.norm>
0

>  <SCORE.heavy>
42

>  <SCORE.norm>
-0.979748

>  <RMSD>
0.952

$$$$
1NEM.B
 OpenBabel11021811403D
libRbt.so/2013.1/901 2013/11/27
 42 45  0  0  0  0  0  0  0  0999 V2000
    2.8862   -3.9017    2.7359 O   0  0  0  0  0  0  0  0  0  0  0  0
    1.8786   -3.7921    1.7284 C   0  0  0  0  0  0  0  0  0  0  0  0
    2.0515   -2.5603    0.8410 C   0  0  1  0  0  0  0  0  0  0  0  0
    0.8881   -2.3440    0.0477 O   0  0  0  0  0  0  0  0  0  0  0  0
    2.2036   -1.2500    1.5969 C   0  0  1  0  0  0  0  0  0  0  0  0
    3.5042   -1.2504    2.1900 O   0  0  0  0  0  0  0  0  0  0  0  0
    1.9850   -0.2856    0.4462 C   0  0  1  0  0  0  0  0  0  0  0  0
    3.0748   -0.2959   -0.4818 O   0  0  0  0  0  0  0  0  0  0  0  0
    0.7499   -0.9416   -0.1821 C   0  0  2  0  0  0  0  0  0  0  0  0
    3.8205   -0.1453    2.9875 C   0  0  2  0  0  0  0  0  0  0  0  0
    5.2080   -0.3511    3.6102 C   0  0  2  0  0  0  0  0  0  0  0  0
    5.2622   -1.6592    4.3147 N   0  3  0  0  0  0  0  0  0  0  0  0
    5.5643    0.8099    4.5442 C   0  0  1  0  0  0  0  0  0  0  0  0
    5.8112    1.9812    3.7776 O   0  0  0  0  0  0  0  0  0  0  0  0
    4.4372    1.0796    5.5459 C   0  0  2  0  0  0  0  0  0  0  0  0
    4.3301    0.0044    6.4703 O   0  0  0  0  0  0  0  0  0  0  0  0
    3.1183    1.2574    4.7989 C   0  0  1  0  0  0  0  0  0  0  0  0
    2.8511    0.0879    4.0009 O   0  0  0  0  0  0  0  0  0  0  0  0
    1.9321    1.4763    5.7215 C   0  0  0  0  0  0  0  0  0  0  0  0
    2.1588    2.6018    6.6551 N   0  3  0  0  0  0  0  0  0  0  0  0
   -4.4631   -1.6838    4.6977 C   0  0  0  0  0  0  0  0  0  0  0  0
   -2.3091   -2.2853    1.7437 C   0  0  2  0  0  0  0  0  0  0  0  0
   -2.3168   -3.8107    1.6798 C   0  0  2  0  0  0  0  0  0  0  0  0
   -1.9122   -4.2698    0.3296 N   0  3  0  0  0  0  0  0  0  0  0  0
   -3.7082   -4.3422    1.9973 C   0  0  1  0  0  0  0  0  0  0  0  0
   -3.6840   -5.7612    2.0111 O   0  0  0  0  0  0  0  0  0  0  0  0
   -4.1603   -3.8112    3.3558 C   0  0  2  0  0  0  0  0  0  0  0  0
   -5.4860   -4.2466    3.6286 O   0  0  0  0  0  0  0  0  0  0  0  0
   -5.8473   -2.0234    5.0994 N   0  3  0  0  0  0  0  0  0  0  0  0
   -4.1110   -2.2845    3.3479 C   0  0  2  0  0  0  0  0  0  0  0  0
   -2.7840   -1.8329    3.0090 O   0  0  0  0  0  0  0  0  0  0  0  0
   -2.5491    1.8492   -1.4901 C   0  0  2  0  0  0  0  0  0  0  0  0
   -2.3581    3.2884   -1.7826 N   0  3  0  0  0  0  0  0  0  0  0  0
   -3.8395    1.6439   -0.7047 C   0  0  0  0  0  0  0  0  0  0  0  0
   -4.0479    0.1682   -0.3947 C   0  0  2  0  0  0  0  0  0  0  0  0
   -5.2917    0.0406    0.3515 N   0  3  0  0  0  0  0  0  0  0  0  0
   -2.8686   -0.3613    0.4178 C   0  0  1  0  0  0  0  0  0  0  0  0
   -3.0598   -1.7647    0.6827 O   0  0  0  0  0  0  0  0  0  0  0  0
   -1.5500   -0.1604   -0.3419 C   0  0  2  0  0  0  0  0  0  0  0  0
   -0.4510   -0.5731    0.4927 O   0  0  0  0  0  0  0  0  0  0  0  0
   -1.3441    1.3026   -0.7262 C   0  0  1  0  0  0  0  0  0  0  0  0
   -0.1790    1.4221   -1.5318 O   0  0  0  0  0  0  0  0  0  0  0  0
  1  2  1  0  0  0  0
  3  2  1  1  0  0  0
  3  5  1  0  0  0  0
  3  4  1  0  0  0  0
  4  9  1  0  0  0  0
  5  7  1  0  0  0  0
  5  6  1  6  0  0  0
  7  9  1  0  0  0  0
  7  8  1  6  0  0  0
  9 40  1  1  0  0  0
 10  6  1  1  0  0  0
 10 11  1  0  0  0  0
 10 18  1  0  0  0  0
 11 13  1  0  0  0  0
 11 12  1  1  0  0  0
 13 15  1  0  0  0  0
 13 14  1  6  0  0  0
 15 17  1  0  0  0  0
 15 16  1  1  0  0  0
 17 19  1  1  0  0  0
 17 18  1  0  0  0  0
 19 20  1  0  0  0  0
 21 29  1  0  0  0  0
 22 23  1  0  0  0  0
 22 31  1  0  0  0  0
 22 38  1  6  0  0  0
 23 25  1  0  0  0  0
 23 24  1  6  0  0  0
 25 27  1  0  0  0  0
 25 26  1  1  0  0  0
 27 30  1  0  0  0  0
 27 28  1  6  0  0  0
 30 21  1  1  0  0  0
 30 31  1  0  0  0  0
 32 34  1  0  0  0  0
 32 41  1  0  0  0  0
 32 33  1  1  0  0  0
 34 35  1  0  0  0  0
 35 37  1  0  0  0  0
 35 36  1  1  0  0  0
 37 39  1  0  0  0  0
 37 38  1  6  0  0  0
 39 41  1  0  0  0  0
 39 40  1  1  0  0  0
 41 42  1  6  0  0  0
M  CHG  6  12   1  20   1  24   1  29   1  33   1  36   1
M  END
>  <CHROM.1>
167.29016928,-167.87976605,-177.21946943,176.46493103,69.45140594,-112.66960108
-170.35388993,-58.73539977,172.33093068,54.10060982,-76.96439607,-62.14095623
-170.82659984,-165.03061480,107.48924119,179.89567423,-61.12971505,52.65663925
-16.49206075,-160.63935762,156.71987683,78.67904629,-0.11167029,-0.94110589
2.10249095,0.07740944,0.38269133,2.24255369

>  <Name>
1NEM.B

>  <RI>
0

>  <Rbt.Current_Directory>
/home/itssahil/PROJECTS/Mol_Feturizer/New_Systems/rnas/1nem

>  <Rbt.Executable>
rbdock ($Id: //depot/dev/client3/rdock/2013.1/src/exe/rbdock.cxx#4 $)

>  <Rbt.Library>
libRbt.so (2013.1, Build901 2013/11/27)

>  <Rbt.Parameter_File>
/export/apps/rDock/src/rDock_2013.1_src/data/scripts/dock_solv.prm

>  <Rbt.Receptor>
prm/pocket_docking_2.prm

>  <SCORE>
-43.7716

>  <SCORE.INTER>
-51.3912

>  <SCORE.INTER.CONST>
1

>  <SCORE.INTER.POLAR>
-6.57436

>  <SCORE.INTER.ROT>
9

>  <SCORE.INTER.SOLV>
47.3457

>  <SCORE.INTER.VDW>
-37.7282

>  <SCORE.INTER.norm>
-1.2236

>  <SCORE.INTRA>
7.53801

>  <SCORE.INTRA.DIHEDRAL>
1.63803

>  <SCORE.INTRA.DIHEDRAL.0>
22.4324

>  <SCORE.INTRA.POLAR>
1.36384

>  <SCORE.INTRA.POLAR.0>
-1.83749

>  <SCORE.INTRA.REPUL>
0.00321083

>  <SCORE.INTRA.REPUL.0>
0

>  <SCORE.INTRA.SOLV>
-2.97103

>  <SCORE.INTRA.SOLV.lig_0>
-160.638

>  <SCORE.INTRA.VDW>
3.55138

>  <SCORE.INTRA.VDW.0>
-7.61953

>  <SCORE.INTRA.norm>
0.179476

>  <SCORE.RESTR>
0.0815618

>  <SCORE.RESTR.CAVITY>
0.0815618

>  <SCORE.RESTR.norm>
0.00194195

>  <SCORE.SYSTEM>
0

>  <SCORE.SYSTEM.CONST>
0

>  <SCORE.SYSTEM.DIHEDRAL>
0

>  <SCORE.SYSTEM.SOLV>
0

>  <SCORE.SYSTEM.norm>
0

>  <SCORE.heavy>
42

>  <SCORE.norm>
-1.04218

>  <RMSD>
0.954

$$$$
1NEM.B
 OpenBabel11021811403D
libRbt.so/2013.1/901 2013/11/27
 42 45  0  0  0  0  0  0  0  0999 V2000
    0.7015   -2.9947    2.7248 O   0  0  0  0  0  0  0  0  0  0  0  0
    1.9291   -3.0768    1.9979 C   0  0  0  0  0  0  0  0  0  0  0  0
    2.0822   -1.9703    0.9553 C   0  0  1  0  0  0  0  0  0  0  0  0
    0.8967   -1.8460    0.1751 O   0  0  0  0  0  0  0  0  0  0  0  0
    2.2646   -0.5756    1.5325 C   0  0  1  0  0  0  0  0  0  0  0  0
    3.5825   -0.5126    2.0825 O   0  0  0  0  0  0  0  0  0  0  0  0
    2.0171    0.2358    0.2746 C   0  0  1  0  0  0  0  0  0  0  0  0
    3.0784    0.0965   -0.6759 O   0  0  0  0  0  0  0  0  0  0  0  0
    0.7598   -0.4833   -0.2283 C   0  0  2  0  0  0  0  0  0  0  0  0
    3.9016    0.6503    2.7918 C   0  0  2  0  0  0  0  0  0  0  0  0
    5.3924    0.9637    2.6053 C   0  0  2  0  0  0  0  0  0  0  0  0
    6.2121   -0.2241    2.9621 N   0  3  0  0  0  0  0  0  0  0  0  0
    5.7967    2.1962    3.4208 C   0  0  1  0  0  0  0  0  0  0  0  0
    5.2268    3.3615    2.8395 O   0  0  0  0  0  0  0  0  0  0  0  0
    5.3373    2.0709    4.8767 C   0  0  2  0  0  0  0  0  0  0  0  0
    6.0703    1.0484    5.5396 O   0  0  0  0  0  0  0  0  0  0  0  0
    3.8454    1.7527    4.9186 C   0  0  1  0  0  0  0  0  0  0  0  0
    3.5852    0.5470    4.1739 O   0  0  0  0  0  0  0  0  0  0  0  0
    3.3139    1.5573    6.3276 C   0  0  0  0  0  0  0  0  0  0  0  0
    3.3810    2.8044    7.1212 N   0  3  0  0  0  0  0  0  0  0  0  0
   -5.5782   -2.3021    3.4854 C   0  0  0  0  0  0  0  0  0  0  0  0
   -2.2876   -2.3201    1.7827 C   0  0  2  0  0  0  0  0  0  0  0  0
   -1.9668   -3.8127    1.7787 C   0  0  2  0  0  0  0  0  0  0  0  0
   -0.9369   -4.1135    0.7558 N   0  3  0  0  0  0  0  0  0  0  0  0
   -3.2239   -4.6189    1.4809 C   0  0  1  0  0  0  0  0  0  0  0  0
   -2.9294   -6.0053    1.5566 O   0  0  0  0  0  0  0  0  0  0  0  0
   -4.3133   -4.2574    2.4880 C   0  0  2  0  0  0  0  0  0  0  0  0
   -5.5123   -4.9545    2.1748 O   0  0  0  0  0  0  0  0  0  0  0  0
   -6.8481   -1.8704    2.8578 N   0  3  0  0  0  0  0  0  0  0  0  0
   -4.5668   -2.7517    2.4454 C   0  0  2  0  0  0  0  0  0  0  0  0
   -3.3413   -2.0351    2.6990 O   0  0  0  0  0  0  0  0  0  0  0  0
   -3.1093    1.8643   -1.4174 C   0  0  2  0  0  0  0  0  0  0  0  0
   -3.3265    3.3175   -1.6030 N   0  3  0  0  0  0  0  0  0  0  0  0
   -4.2908    1.2517   -0.6738 C   0  0  0  0  0  0  0  0  0  0  0  0
   -4.0801   -0.2426   -0.4737 C   0  0  2  0  0  0  0  0  0  0  0  0
   -5.2385   -0.7650    0.2373 N   0  3  0  0  0  0  0  0  0  0  0  0
   -2.7992   -0.4825    0.3219 C   0  0  1  0  0  0  0  0  0  0  0  0
   -2.5922   -1.8994    0.4826 O   0  0  0  0  0  0  0  0  0  0  0  0
   -1.5894    0.1319   -0.3959 C   0  0  2  0  0  0  0  0  0  0  0  0
   -0.4180   -0.0200    0.4284 O   0  0  0  0  0  0  0  0  0  0  0  0
   -1.7990    1.6188   -0.6711 C   0  0  1  0  0  0  0  0  0  0  0  0
   -0.7141    2.1159   -1.4433 O   0  0  0  0  0  0  0  0  0  0  0  0
  1  2  1  0  0  0  0
  3  2  1  1  0  0  0
  3  5  1  0  0  0  0
  3  4  1  0  0  0  0
  4  9  1  0  0  0  0
  5  7  1  0  0  0  0
  5  6  1  6  0  0  0
  7  9  1  0  0  0  0
  7  8  1  6  0  0  0
  9 40  1  1  0  0  0
 10  6  1  6  0  0  0
 10 11  1  0  0  0  0
 10 18  1  0  0  0  0
 11 13  1  0  0  0  0
 11 12  1  1  0  0  0
 13 15  1  0  0  0  0
 13 14  1  6  0  0  0
 15 17  1  0  0  0  0
 15 16  1  6  0  0  0
 17 19  1  1  0  0  0
 17 18  1  0  0  0  0
 19 20  1  0  0  0  0
 21 29  1  0  0  0  0
 22 23  1  0  0  0  0
 22 31  1  0  0  0  0
 22 38  1  6  0  0  0
 23 25  1  0  0  0  0
 23 24  1  6  0  0  0
 25 27  1  0  0  0  0
 25 26  1  1  0  0  0
 27 30  1  0  0  0  0
 27 28  1  6  0  0  0
 30 21  1  1  0  0  0
 30 31  1  0  0  0  0
 32 34  1  0  0  0  0
 32 41  1  0  0  0  0
 32 33  1  1  0  0  0
 34 35  1  0  0  0  0
 35 37  1  0  0  0  0
 35 36  1  1  0  0  0
 37 39  1  0  0  0  0
 37 38  1  6  0  0  0
 39 41  1  0  0  0  0
 39 40  1  1  0  0  0
 41 42  1  6  0  0  0
M  CHG  6  12   1  20   1  24   1  29   1  33   1  36   1
M  END
>  <CHROM.1>
-160.62353765,-47.66378487,-173.50946645,-147.22321510,62.86319292,-105.09994089
-79.65924608,179.38152990,101.07859797,65.56923589,-24.67976544,-110.49201090
-121.46791375,-174.69206827,3.81033857,-63.58743768,52.83027938,153.73618552
174.15201157,-132.06454677,134.18785311,78.27391516,-0.04633989,-0.64086960
1.79633457,-0.14374044,0.43911012,2.54387459

>  <Name>
1NEM.B

>  <RI>
0

>  <Rbt.Current_Directory>
/home/itssahil/PROJECTS/Mol_Feturizer/New_Systems/rnas/1nem

>  <Rbt.Executable>
rbdock ($Id: //depot/dev/client3/rdock/2013.1/src/exe/rbdock.cxx#4 $)

>  <Rbt.Library>
libRbt.so (2013.1, Build901 2013/11/27)

>  <Rbt.Parameter_File>
/export/apps/rDock/src/rDock_2013.1_src/data/scripts/dock_solv.prm

>  <Rbt.Receptor>
prm/pocket_docking_3.prm

>  <SCORE>
-33.3128

>  <SCORE.INTER>
-50.5513

>  <SCORE.INTER.CONST>
1

>  <SCORE.INTER.POLAR>
-6.41966

>  <SCORE.INTER.ROT>
9

>  <SCORE.INTER.SOLV>
38.1013

>  <SCORE.INTER.VDW>
-34.6024

>  <SCORE.INTER.norm>
-1.2036

>  <SCORE.INTRA>
17.2385

>  <SCORE.INTRA.DIHEDRAL>
28.2821

>  <SCORE.INTRA.DIHEDRAL.0>
22.4324

>  <SCORE.INTRA.POLAR>
-0.196633

>  <SCORE.INTRA.POLAR.0>
-1.83749

>  <SCORE.INTRA.REPUL>
0

>  <SCORE.INTRA.REPUL.0>
0

>  <SCORE.INTRA.SOLV>
4.65376

>  <SCORE.INTRA.SOLV.lig_0>
-160.638

>  <SCORE.INTRA.VDW>
1.43916

>  <SCORE.INTRA.VDW.0>
-7.61953

>  <SCORE.INTRA.norm>
0.410441

>  <SCORE.RESTR>
0

>  <SCORE.RESTR.CAVITY>
0

>  <SCORE.RESTR.norm>
0

>  <SCORE.SYSTEM>
0

>  <SCORE.SYSTEM.CONST>
0

>  <SCORE.SYSTEM.DIHEDRAL>
0

>  <SCORE.SYSTEM.SOLV>
0

>  <SCORE.SYSTEM.norm>
0

>  <SCORE.heavy>
42

>  <SCORE.norm>
-0.793162

>  <RMSD>
0.975

$$$$
1NEM.B
 OpenBabel11021811403D
libRbt.so/2013.1/901 2013/11/27
 42 45  0  0  0  0  0  0  0  0999 V2000
    2.4492   -1.2410    4.0981 O   0  0  0  0  0  0  0  0  0  0  0  0
    2.7908   -2.2208    3.1156 C   0  0  0  0  0  0  0  0  0  0  0  0
    2.9055   -1.6407    1.7067 C   0  0  1  0  0  0  0  0  0  0  0  0
    1.6487   -1.6909    1.0377 O   0  0  0  0  0  0  0  0  0  0  0  0
    3.2660   -0.1646    1.6557 C   0  0  1  0  0  0  0  0  0  0  0  0
    4.6411   -0.0502    2.0291 O   0  0  0  0  0  0  0  0  0  0  0  0
    2.9349    0.1103    0.2009 C   0  0  1  0  0  0  0  0  0  0  0  0
    3.8602   -0.5187   -0.6921 O   0  0  0  0  0  0  0  0  0  0  0  0
    1.5732   -0.5909    0.1306 C   0  0  2  0  0  0  0  0  0  0  0  0
    4.9169    0.7675    3.1302 C   0  0  2  0  0  0  0  0  0  0  0  0
    6.0432    0.1361    3.9599 C   0  0  2  0  0  0  0  0  0  0  0  0
    5.6986   -1.2690    4.3024 N   0  3  0  0  0  0  0  0  0  0  0  0
    6.3309    0.9699    5.2126 C   0  0  1  0  0  0  0  0  0  0  0  0
    6.9559    2.1911    4.8404 O   0  0  0  0  0  0  0  0  0  0  0  0
    5.0431    1.2669    5.9869 C   0  0  2  0  0  0  0  0  0  0  0  0
    4.5262    0.0735    6.5621 O   0  0  0  0  0  0  0  0  0  0  0  0
    4.0097    1.8821    5.0476 C   0  0  1  0  0  0  0  0  0  0  0  0
    3.7702    0.9924    3.9399 O   0  0  0  0  0  0  0  0  0  0  0  0
    2.6777    2.1602    5.7218 C   0  0  0  0  0  0  0  0  0  0  0  0
    1.9602    0.9118    6.0632 N   0  3  0  0  0  0  0  0  0  0  0  0
   -4.7459   -2.3615    3.2422 C   0  0  0  0  0  0  0  0  0  0  0  0
   -1.4574   -1.9778    1.5791 C   0  0  2  0  0  0  0  0  0  0  0  0
   -1.0323   -3.4364    1.4281 C   0  0  2  0  0  0  0  0  0  0  0  0
    0.0191   -3.5597    0.3904 N   0  3  0  0  0  0  0  0  0  0  0  0
   -2.2288   -4.2940    1.0381 C   0  0  1  0  0  0  0  0  0  0  0  0
   -1.8377   -5.6571    0.9768 O   0  0  0  0  0  0  0  0  0  0  0  0
   -3.3438   -4.1130    2.0656 C   0  0  2  0  0  0  0  0  0  0  0  0
   -4.4899   -4.8567    1.6719 O   0  0  0  0  0  0  0  0  0  0  0  0
   -4.4616   -1.1055    3.9734 N   0  3  0  0  0  0  0  0  0  0  0  0
   -3.7025   -2.6321    2.1723 C   0  0  2  0  0  0  0  0  0  0  0  0
   -2.5312   -1.8611    2.5089 O   0  0  0  0  0  0  0  0  0  0  0  0
   -1.8021    2.4694   -1.3120 C   0  0  2  0  0  0  0  0  0  0  0  0
   -1.8826    3.9455   -1.4023 N   0  3  0  0  0  0  0  0  0  0  0  0
   -3.0998    1.9109   -0.7392 C   0  0  0  0  0  0  0  0  0  0  0  0
   -3.0306    0.3935   -0.6385 C   0  0  2  0  0  0  0  0  0  0  0  0
   -4.2947   -0.0750   -0.0885 N   0  3  0  0  0  0  0  0  0  0  0  0
   -1.8629   -0.0127    0.2576 C   0  0  1  0  0  0  0  0  0  0  0  0
   -1.7871   -1.4501    0.3250 O   0  0  0  0  0  0  0  0  0  0  0  0
   -0.5398    0.5432   -0.2867 C   0  0  2  0  0  0  0  0  0  0  0  0
    0.5232    0.2320    0.6341 O   0  0  0  0  0  0  0  0  0  0  0  0
   -0.6007    2.0585   -0.4624 C   0  0  1  0  0  0  0  0  0  0  0  0
    0.5951    2.5127   -1.0823 O   0  0  0  0  0  0  0  0  0  0  0  0
  1  2  1  0  0  0  0
  3  2  1  1  0  0  0
  3  5  1  0  0  0  0
  3  4  1  0  0  0  0
  4  9  1  0  0  0  0
  5  7  1  0  0  0  0
  5  6  1  6  0  0  0
  7  9  1  0  0  0  0
  7  8  1  6  0  0  0
  9 40  1  1  0  0  0
 10  6  1  6  0  0  0
 10 11  1  0  0  0  0
 10 18  1  0  0  0  0
 11 13  1  0  0  0  0
 11 12  1  1  0  0  0
 13 15  1  0  0  0  0
 13 14  1  6  0  0  0
 15 17  1  0  0  0  0
 15 16  1  6  0  0  0
 17 19  1  1  0  0  0
 17 18  1  0  0  0  0
 19 20  1  0  0  0  0
 21 29  1  0  0  0  0
 22 23  1  0  0  0  0
 22 31  1  0  0  0  0
 22 38  1  6  0  0  0
 23 25  1  0  0  0  0
 23 24  1  6  0  0  0
 25 27  1  0  0  0  0
 25 26  1  1  0  0  0
 27 30  1  0  0  0  0
 27 28  1  6  0  0  0
 30 21  1  1  0  0  0
 30 31  1  0  0  0  0
 32 34  1  0  0  0  0
 32 41  1  0  0  0  0
 32 33  1  1  0  0  0
 34 35  1  0  0  0  0
 35 37  1  0  0  0  0
 35 36  1  1  0  0  0
 37 39  1  0  0  0  0
 37 38  1  6  0  0  0
 39 41  1  0  0  0  0
 39 40  1  1  0  0  0
 41 42  1  6  0  0  0
M  CHG  6  12   1  20   1  24   1  29   1  33   1  36   1
M  END
>  <CHROM.1>
-58.05324390,-89.84791327,-122.20506365,142.12347597,67.19467334,-125.01332401
173.15256976,-54.72125028,60.04438017,-69.32023896,-179.78515088,141.35294885
173.31245898,-164.25374527,-169.83935665,-169.40536963,-179.11256434,179.66081557
-153.51466930,-141.13972764,118.55358268,-178.90551383,0.72336937,-0.52356151
2.03008614,0.02715746,0.48541782,2.49107712

>  <Name>
1NEM.B

>  <RI>
0

>  <Rbt.Current_Directory>
/home/itssahil/PROJECTS/Mol_Feturizer/New_Systems/rnas/1nem

>  <Rbt.Executable>
rbdock ($Id: //depot/dev/client3/rdock/2013.1/src/exe/rbdock.cxx#4 $)

>  <Rbt.Library>
libRbt.so (2013.1, Build901 2013/11/27)

>  <Rbt.Parameter_File>
/export/apps/rDock/src/rDock_2013.1_src/data/scripts/dock_solv.prm

>  <Rbt.Receptor>
prm/pocket_docking_3.prm

>  <SCORE>
-37.8507

>  <SCORE.INTER>
-45.4044

>  <SCORE.INTER.CONST>
1

>  <SCORE.INTER.POLAR>
-6.21575

>  <SCORE.INTER.ROT>
9

>  <SCORE.INTER.SOLV>
46.2551

>  <SCORE.INTER.VDW>
-34.5688

>  <SCORE.INTER.norm>
-1.08106

>  <SCORE.INTRA>
7.5537

>  <SCORE.INTRA.DIHEDRAL>
20.0194

>  <SCORE.INTRA.DIHEDRAL.0>
22.4324

>  <SCORE.INTRA.POLAR>
-2.25246

>  <SCORE.INTRA.POLAR.0>
-1.83749

>  <SCORE.INTRA.REPUL>
0

>  <SCORE.INTRA.REPUL.0>
0

>  <SCORE.INTRA.SOLV>
7.58493

>  <SCORE.INTRA.SOLV.lig_0>
-160.638

>  <SCORE.INTRA.VDW>
1.40988

>  <SCORE.INTRA.VDW.0>
-7.61953

>  <SCORE.INTRA.norm>
0.17985

>  <SCORE.RESTR>
0

>  <SCORE.RESTR.CAVITY>
0

>  <SCORE.RESTR.norm>
0

>  <SCORE.SYSTEM>
0

>  <SCORE.SYSTEM.CONST>
0

>  <SCORE.SYSTEM.DIHEDRAL>
0

>  <SCORE.SYSTEM.SOLV>
0

>  <SCORE.SYSTEM.norm>
0

>  <SCORE.heavy>
42

>  <SCORE.norm>
-0.901207

>  <RMSD>
1.028

$$$$
1NEM.B
 OpenBabel11021811403D
libRbt.so/2013.1/901 2013/11/27
 42 45  0  0  0  0  0  0  0  0999 V2000
    2.7212   -3.2407    2.5569 O   0  0  0  0  0  0  0  0  0  0  0  0
    2.4171   -3.2795    1.1612 C   0  0  0  0  0  0  0  0  0  0  0  0
    2.4501   -1.9010    0.5030 C   0  0  1  0  0  0  0  0  0  0  0  0
    1.2784   -1.6880   -0.2788 O   0  0  0  0  0  0  0  0  0  0  0  0
    2.4341   -0.7328    1.4760 C   0  0  1  0  0  0  0  0  0  0  0  0
    3.7183   -0.6839    2.1019 O   0  0  0  0  0  0  0  0  0  0  0  0
    2.1140    0.3841    0.5003 C   0  0  1  0  0  0  0  0  0  0  0  0
    3.2078    0.6624   -0.3802 O   0  0  0  0  0  0  0  0  0  0  0  0
    0.9745   -0.2930   -0.2703 C   0  0  2  0  0  0  0  0  0  0  0  0
    3.9055    0.3268    3.0510 C   0  0  2  0  0  0  0  0  0  0  0  0
    5.3565    0.2903    3.5497 C   0  0  2  0  0  0  0  0  0  0  0  0
    5.6988   -1.0764    4.0243 N   0  3  0  0  0  0  0  0  0  0  0  0
    5.5850    1.3420    4.6402 C   0  0  1  0  0  0  0  0  0  0  0  0
    5.5565    2.6413    4.0642 O   0  0  0  0  0  0  0  0  0  0  0  0
    4.5197    1.2424    5.7363 C   0  0  2  0  0  0  0  0  0  0  0  0
    4.6824    0.0384    6.4752 O   0  0  0  0  0  0  0  0  0  0  0  0
    3.1301    1.2831    5.1068 C   0  0  1  0  0  0  0  0  0  0  0  0
    3.0023    0.2192    4.1436 O   0  0  0  0  0  0  0  0  0  0  0  0
    2.0088    1.1352    6.1201 C   0  0  0  0  0  0  0  0  0  0  0  0
    1.7833    2.3844    6.8807 N   0  3  0  0  0  0  0  0  0  0  0  0
   -6.0616   -3.5667    2.3476 C   0  0  0  0  0  0  0  0  0  0  0  0
   -2.7400   -2.0131    1.8183 C   0  0  2  0  0  0  0  0  0  0  0  0
   -1.8328   -3.2407    1.8498 C   0  0  2  0  0  0  0  0  0  0  0  0
   -0.5321   -2.9342    1.2080 N   0  3  0  0  0  0  0  0  0  0  0  0
   -2.4947   -4.4013    1.1191 C   0  0  1  0  0  0  0  0  0  0  0  0
   -1.6773   -5.5570    1.2222 O   0  0  0  0  0  0  0  0  0  0  0  0
   -3.8679   -4.6728    1.7294 C   0  0  2  0  0  0  0  0  0  0  0  0
   -4.5213   -5.7095    1.0083 O   0  0  0  0  0  0  0  0  0  0  0  0
   -6.6979   -2.2581    2.6225 N   0  3  0  0  0  0  0  0  0  0  0  0
   -4.7095   -3.3992    1.6765 C   0  0  2  0  0  0  0  0  0  0  0  0
   -4.0248   -2.3240    2.3510 O   0  0  0  0  0  0  0  0  0  0  0  0
   -2.5023    2.3100   -1.3042 C   0  0  2  0  0  0  0  0  0  0  0  0
   -2.3821    3.7781   -1.4570 N   0  3  0  0  0  0  0  0  0  0  0  0
   -3.7722    1.9686   -0.5329 C   0  0  0  0  0  0  0  0  0  0  0  0
   -3.9077    0.4615   -0.3660 C   0  0  2  0  0  0  0  0  0  0  0  0
   -5.1352    0.2034    0.3735 N   0  3  0  0  0  0  0  0  0  0  0  0
   -2.6953   -0.0872    0.3825 C   0  0  1  0  0  0  0  0  0  0  0  0
   -2.8177   -1.5172    0.5114 O   0  0  0  0  0  0  0  0  0  0  0  0
   -1.3968    0.2486   -0.3639 C   0  0  2  0  0  0  0  0  0  0  0  0
   -0.2698   -0.1899    0.4185 O   0  0  0  0  0  0  0  0  0  0  0  0
   -1.2640    1.7501   -0.6059 C   0  0  1  0  0  0  0  0  0  0  0  0
   -0.1155    2.0021   -1.4047 O   0  0  0  0  0  0  0  0  0  0  0  0
  1  2  1  0  0  0  0
  3  2  1  1  0  0  0
  3  5  1  0  0  0  0
  3  4  1  0  0  0  0
  4  9  1  0  0  0  0
  5  7  1  0  0  0  0
  5  6  1  6  0  0  0
  7  9  1  0  0  0  0
  7  8  1  6  0  0  0
  9 40  1  1  0  0  0
 10  6  1  6  0  0  0
 10 11  1  0  0  0  0
 10 18  1  0  0  0  0
 11 13  1  0  0  0  0
 11 12  1  1  0  0  0
 13 15  1  0  0  0  0
 13 14  1  6  0  0  0
 15 17  1  0  0  0  0
 15 16  1  6  0  0  0
 17 19  1  1  0  0  0
 17 18  1  0  0  0  0
 19 20  1  0  0  0  0
 21 29  1  0  0  0  0
 22 23  1  0  0  0  0
 22 31  1  0  0  0  0
 22 38  1  6  0  0  0
 23 25  1  0  0  0  0
 23 24  1  6  0  0  0
 25 27  1  0  0  0  0
 25 26  1  1  0  0  0
 27 30  1  0  0  0  0
 27 28  1  6  0  0  0
 30 21  1  1  0  0  0
 30 31  1  0  0  0  0
 32 34  1  0  0  0  0
 32 41  1  0  0  0  0
 32 33  1  1  0  0  0
 34 35  1  0  0  0  0
 35 37  1  0  0  0  0
 35 36  1  1  0  0  0
 37 39  1  0  0  0  0
 37 38  1  6  0  0  0
 39 41  1  0  0  0  0
 39 40  1  1  0  0  0
 41 42  1  6  0  0  0
M  CHG  6  12   1  20   1  24   1  29   1  33   1  36   1
M  END
>  <CHROM.1>
-51.80488080,-131.33931353,-179.47980040,-176.29999823,-51.14141176,-113.55181587
55.62192832,178.17553270,170.88217145,76.57143604,157.31977368,164.14056862
70.96983084,-135.31609469,-150.55817753,-97.98516775,176.99925261,66.40915633
-134.44510745,-124.79441028,163.35904580,-50.93959971,0.03618601,-0.72112077
1.82656149,-0.09643257,0.46141733,2.66085953

>  <Name>
1NEM.B

>  <RI>
0

>  <Rbt.Current_Directory>
/home/itssahil/PROJECTS/Mol_Feturizer/New_Systems/rnas/1nem

>  <Rbt.Executable>
rbdock ($Id: //depot/dev/client3/rdock/2013.1/src/exe/rbdock.cxx#4 $)

>  <Rbt.Library>
libRbt.so (2013.1, Build901 2013/11/27)

>  <Rbt.Parameter_File>
/export/apps/rDock/src/rDock_2013.1_src/data/scripts/dock_solv.prm

>  <Rbt.Receptor>
prm/pocket_docking_2.prm

>  <SCORE>
-40.6486

>  <SCORE.INTER>
-57.7391

>  <SCORE.INTER.CONST>
1

>  <SCORE.INTER.POLAR>
-8.2131

>  <SCORE.INTER.ROT>
9

>  <SCORE.INTER.SOLV>
39.6665

>  <SCORE.INTER.VDW>
-33.9379

>  <SCORE.INTER.norm>
-1.37474

>  <SCORE.INTRA>
15.0105

>  <SCORE.INTRA.DIHEDRAL>
19.4115

>  <SCORE.INTRA.DIHEDRAL.0>
22.4324

>  <SCORE.INTRA.POLAR>
-0.01879

>  <SCORE.INTRA.POLAR.0>
-1.83749

>  <SCORE.INTRA.REPUL>
0.165152

>  <SCORE.INTRA.REPUL.0>
0

>  <SCORE.INTRA.SOLV>
3.91375

>  <SCORE.INTRA.SOLV.lig_0>
-160.638

>  <SCORE.INTRA.VDW>
2.586

>  <SCORE.INTRA.VDW.0>
-7.61953

>  <SCORE.INTRA.norm>
0.357393

>  <SCORE.RESTR>
2.07994

>  <SCORE.RESTR.CAVITY>
2.07994

>  <SCORE.RESTR.norm>
0.0495223

>  <SCORE.SYSTEM>
0

>  <SCORE.SYSTEM.CONST>
0

>  <SCORE.SYSTEM.DIHEDRAL>
0

>  <SCORE.SYSTEM.SOLV>
0

>  <SCORE.SYSTEM.norm>
0

>  <SCORE.heavy>
42

>  <SCORE.norm>
-0.967824

>  <RMSD>
1.032

$$$$
1NEM.B
 OpenBabel11021811403D
libRbt.so/2013.1/901 2013/11/27
 42 45  0  0  0  0  0  0  0  0999 V2000
    1.2585   -3.5830    3.0542 O   0  0  0  0  0  0  0  0  0  0  0  0
    2.5380   -3.5233    2.4208 C   0  0  0  0  0  0  0  0  0  0  0  0
    2.6984   -2.3072    1.5096 C   0  0  1  0  0  0  0  0  0  0  0  0
    1.6071   -2.2131    0.5987 O   0  0  0  0  0  0  0  0  0  0  0  0
    2.6662   -0.9676    2.2279 C   0  0  1  0  0  0  0  0  0  0  0  0
    3.8961   -0.8407    2.9453 O   0  0  0  0  0  0  0  0  0  0  0  0
    2.4869   -0.0586    1.0265 C   0  0  1  0  0  0  0  0  0  0  0  0
    3.6619   -0.0029    0.2108 O   0  0  0  0  0  0  0  0  0  0  0  0
    1.3790   -0.8347    0.3048 C   0  0  2  0  0  0  0  0  0  0  0  0
    4.1639    0.4173    3.4958 C   0  0  2  0  0  0  0  0  0  0  0  0
    5.6518    0.5029    3.8623 C   0  0  2  0  0  0  0  0  0  0  0  0
    6.0312   -0.6453    4.7272 N   0  3  0  0  0  0  0  0  0  0  0  0
    5.9728    1.8443    4.5294 C   0  0  1  0  0  0  0  0  0  0  0  0
    5.8974    2.8869    3.5662 O   0  0  0  0  0  0  0  0  0  0  0  0
    5.0036    2.1359    5.6792 C   0  0  2  0  0  0  0  0  0  0  0  0
    5.2266    1.2324    6.7544 O   0  0  0  0  0  0  0  0  0  0  0  0
    3.5659    2.0102    5.1830 C   0  0  1  0  0  0  0  0  0  0  0  0
    3.3560    0.6956    4.6319 O   0  0  0  0  0  0  0  0  0  0  0  0
    2.5339    2.2309    6.2749 C   0  0  0  0  0  0  0  0  0  0  0  0
    1.5646    1.1154    6.3525 N   0  3  0  0  0  0  0  0  0  0  0  0
   -3.5685   -3.4394    4.5709 C   0  0  0  0  0  0  0  0  0  0  0  0
   -1.3743   -2.6143    1.7019 C   0  0  2  0  0  0  0  0  0  0  0  0
   -0.8370   -3.9957    1.3358 C   0  0  2  0  0  0  0  0  0  0  0  0
   -0.3097   -3.9906   -0.0497 N   0  3  0  0  0  0  0  0  0  0  0  0
   -1.9429   -5.0363    1.4507 C   0  0  1  0  0  0  0  0  0  0  0  0
   -1.4130   -6.3256    1.1836 O   0  0  0  0  0  0  0  0  0  0  0  0
   -2.5401   -4.9943    2.8555 C   0  0  2  0  0  0  0  0  0  0  0  0
   -3.6196   -5.9147    2.9500 O   0  0  0  0  0  0  0  0  0  0  0  0
   -2.6210   -3.9962    5.5635 N   0  3  0  0  0  0  0  0  0  0  0  0
   -3.0397   -3.5821    3.1544 C   0  0  2  0  0  0  0  0  0  0  0  0
   -1.9656   -2.6326    2.9984 O   0  0  0  0  0  0  0  0  0  0  0  0
   -2.1614    1.5248   -1.3523 C   0  0  2  0  0  0  0  0  0  0  0  0
   -2.1944    2.9828   -1.6099 N   0  3  0  0  0  0  0  0  0  0  0  0
   -3.4766    1.0766   -0.7249 C   0  0  0  0  0  0  0  0  0  0  0  0
   -3.4562   -0.4209   -0.4522 C   0  0  2  0  0  0  0  0  0  0  0  0
   -4.7349   -0.7833    0.1424 N   0  3  0  0  0  0  0  0  0  0  0  0
   -2.3025   -0.7597    0.4888 C   0  0  1  0  0  0  0  0  0  0  0  0
   -2.2729   -2.1818    0.7193 O   0  0  0  0  0  0  0  0  0  0  0  0
   -0.9619   -0.3117   -0.1099 C   0  0  2  0  0  0  0  0  0  0  0  0
    0.0902   -0.5501    0.8445 O   0  0  0  0  0  0  0  0  0  0  0  0
   -0.9741    1.1749   -0.4567 C   0  0  1  0  0  0  0  0  0  0  0  0
    0.2359    1.5173   -1.1195 O   0  0  0  0  0  0  0  0  0  0  0  0
  1  2  1  0  0  0  0
  3  2  1  1  0  0  0
  3  5  1  0  0  0  0
  3  4  1  0  0  0  0
  4  9  1  0  0  0  0
  5  7  1  0  0  0  0
  5  6  1  6  0  0  0
  7  9  1  0  0  0  0
  7  8  1  6  0  0  0
  9 40  1  1  0  0  0
 10  6  1  1  0  0  0
 10 11  1  0  0  0  0
 10 18  1  0  0  0  0
 11 13  1  0  0  0  0
 11 12  1  1  0  0  0
 13 15  1  0  0  0  0
 13 14  1  6  0  0  0
 15 17  1  0  0  0  0
 15 16  1  1  0  0  0
 17 19  1  1  0  0  0
 17 18  1  0  0  0  0
 19 20  1  0  0  0  0
 21 29  1  0  0  0  0
 22 23  1  0  0  0  0
 22 31  1  0  0  0  0
 22 38  1  6  0  0  0
 23 25  1  0  0  0  0
 23 24  1  6  0  0  0
 25 27  1  0  0  0  0
 25 26  1  1  0  0  0
 27 30  1  0  0  0  0
 27 28  1  6  0  0  0
 30 21  1  1  0  0  0
 30 31  1  0  0  0  0
 32 34  1  0  0  0  0
 32 41  1  0  0  0  0
 32 33  1  1  0  0  0
 34 35  1  0  0  0  0
 35 37  1  0  0  0  0
 35 36  1  1  0  0  0
 37 39  1  0  0  0  0
 37 38  1  6  0  0  0
 39 41  1  0  0  0  0
 39 40  1  1  0  0  0
 41 42  1  6  0  0  0
M  CHG  6  12   1  20   1  24   1  29   1  33   1  36   1
M  END
>  <CHROM.1>
-40.07965893,-51.30620891,169.73536207,-163.78958464,-53.70406901,-110.14074204
-76.54353444,68.16007094,179.67865017,-127.15356540,-32.37321966,48.75386878
178.35874021,-147.50233449,-83.77547863,-55.10869325,-150.17818773,58.38951810
75.02836186,-171.95608425,149.91500892,-72.70868462,0.61426573,-1.04812768
2.24735462,-3.02495267,-0.60000919,-0.66065644

>  <Name>
1NEM.B

>  <RI>
0

>  <Rbt.Current_Directory>
/home/itssahil/PROJECTS/Mol_Feturizer/New_Systems/rnas/1nem

>  <Rbt.Executable>
rbdock ($Id: //depot/dev/client3/rdock/2013.1/src/exe/rbdock.cxx#4 $)

>  <Rbt.Library>
libRbt.so (2013.1, Build901 2013/11/27)

>  <Rbt.Parameter_File>
/export/apps/rDock/src/rDock_2013.1_src/data/scripts/dock_solv.prm

>  <Rbt.Receptor>
prm/pocket_docking_3.prm

>  <SCORE>
-43.0287

>  <SCORE.INTER>
-52.4478

>  <SCORE.INTER.CONST>
1

>  <SCORE.INTER.POLAR>
-7.88094

>  <SCORE.INTER.ROT>
9

>  <SCORE.INTER.SOLV>
49.6148

>  <SCORE.INTER.VDW>
-34.8336

>  <SCORE.INTER.norm>
-1.24876

>  <SCORE.INTRA>
9.41908

>  <SCORE.INTRA.DIHEDRAL>
11.2503

>  <SCORE.INTRA.DIHEDRAL.0>
22.4324

>  <SCORE.INTRA.POLAR>
0.153136

>  <SCORE.INTRA.POLAR.0>
-1.83749

>  <SCORE.INTRA.REPUL>
0

>  <SCORE.INTRA.REPUL.0>
0

>  <SCORE.INTRA.SOLV>
-0.68702

>  <SCORE.INTRA.SOLV.lig_0>
-160.638

>  <SCORE.INTRA.VDW>
3.6168

>  <SCORE.INTRA.VDW.0>
-7.61953

>  <SCORE.INTRA.norm>
0.224264

>  <SCORE.RESTR>
0

>  <SCORE.RESTR.CAVITY>
0

>  <SCORE.RESTR.norm>
0

>  <SCORE.SYSTEM>
0

>  <SCORE.SYSTEM.CONST>
0

>  <SCORE.SYSTEM.DIHEDRAL>
0

>  <SCORE.SYSTEM.SOLV>
0

>  <SCORE.SYSTEM.norm>
0

>  <SCORE.heavy>
42

>  <SCORE.norm>
-1.02449

>  <RMSD>
1.056

$$$$
1NEM.B
 OpenBabel11021811403D
libRbt.so/2013.1/901 2013/11/27
 42 45  0  0  0  0  0  0  0  0999 V2000
    2.5969   -4.0896    2.8194 O   0  0  0  0  0  0  0  0  0  0  0  0
    1.5480   -3.8530    1.8781 C   0  0  0  0  0  0  0  0  0  0  0  0
    1.8065   -2.6391    0.9869 C   0  0  1  0  0  0  0  0  0  0  0  0
    0.6703   -2.3600    0.1741 O   0  0  0  0  0  0  0  0  0  0  0  0
    2.0234   -1.3352    1.7381 C   0  0  1  0  0  0  0  0  0  0  0  0
    3.3123   -1.4079    2.3518 O   0  0  0  0  0  0  0  0  0  0  0  0
    1.8797   -0.3669    0.5789 C   0  0  1  0  0  0  0  0  0  0  0  0
    2.9814   -0.4467   -0.3316 O   0  0  0  0  0  0  0  0  0  0  0  0
    0.6182   -0.9535   -0.0655 C   0  0  2  0  0  0  0  0  0  0  0  0
    3.6782   -0.3206    3.1526 C   0  0  2  0  0  0  0  0  0  0  0  0
    5.1115   -0.5264    3.6612 C   0  0  2  0  0  0  0  0  0  0  0  0
    5.2328   -1.8520    4.3232 N   0  3  0  0  0  0  0  0  0  0  0  0
    5.5272    0.6137    4.5965 C   0  0  1  0  0  0  0  0  0  0  0  0
    5.7027    1.8078    3.8456 O   0  0  0  0  0  0  0  0  0  0  0  0
    4.4780    0.8431    5.6888 C   0  0  2  0  0  0  0  0  0  0  0  0
    4.4532   -0.2575    6.5888 O   0  0  0  0  0  0  0  0  0  0  0  0
    3.1039    1.0248    5.0504 C   0  0  1  0  0  0  0  0  0  0  0  0
    2.7875   -0.1262    4.2435 O   0  0  0  0  0  0  0  0  0  0  0  0
    1.9902    1.2049    6.0669 C   0  0  0  0  0  0  0  0  0  0  0  0
    1.9467    2.5847    6.6000 N   0  3  0  0  0  0  0  0  0  0  0  0
   -4.3556   -1.5742    4.4222 C   0  0  0  0  0  0  0  0  0  0  0  0
   -2.0633   -2.8371    1.7997 C   0  0  2  0  0  0  0  0  0  0  0  0
   -2.2017   -4.3457    1.9897 C   0  0  2  0  0  0  0  0  0  0  0  0
   -1.7465   -5.0601    0.7731 N   0  3  0  0  0  0  0  0  0  0  0  0
   -3.6534   -4.7078    2.2736 C   0  0  1  0  0  0  0  0  0  0  0  0
   -3.7561   -6.1009    2.5249 O   0  0  0  0  0  0  0  0  0  0  0  0
   -4.1500   -3.9179    3.4824 C   0  0  2  0  0  0  0  0  0  0  0  0
   -5.5249   -4.1983    3.7120 O   0  0  0  0  0  0  0  0  0  0  0  0
   -5.8108   -1.6446    4.6872 N   0  3  0  0  0  0  0  0  0  0  0  0
   -3.9652   -2.4236    3.2252 C   0  0  2  0  0  0  0  0  0  0  0  0
   -2.5830   -2.1388    2.9281 O   0  0  0  0  0  0  0  0  0  0  0  0
   -3.3064    1.3206   -1.2434 C   0  0  2  0  0  0  0  0  0  0  0  0
   -3.5643    2.7694   -1.4105 N   0  3  0  0  0  0  0  0  0  0  0  0
   -4.4727    0.6646   -0.5131 C   0  0  0  0  0  0  0  0  0  0  0  0
   -4.2203   -0.8256   -0.3321 C   0  0  2  0  0  0  0  0  0  0  0  0
   -5.3659   -1.3904    0.3669 N   0  3  0  0  0  0  0  0  0  0  0  0
   -2.9360   -1.0397    0.4655 C   0  0  1  0  0  0  0  0  0  0  0  0
   -2.6892   -2.4522    0.6080 O   0  0  0  0  0  0  0  0  0  0  0  0
   -1.7415   -0.3815   -0.2389 C   0  0  2  0  0  0  0  0  0  0  0  0
   -0.5694   -0.5110    0.5881 O   0  0  0  0  0  0  0  0  0  0  0  0
   -1.9924    1.1025   -0.4951 C   0  0  1  0  0  0  0  0  0  0  0  0
   -0.9192    1.6406   -1.2560 O   0  0  0  0  0  0  0  0  0  0  0  0
  1  2  1  0  0  0  0
  3  2  1  1  0  0  0
  3  5  1  0  0  0  0
  3  4  1  0  0  0  0
  4  9  1  0  0  0  0
  5  7  1  0  0  0  0
  5  6  1  6  0  0  0
  7  9  1  0  0  0  0
  7  8  1  6  0  0  0
  9 40  1  1  0  0  0
 10  6  1  1  0  0  0
 10 11  1  0  0  0  0
 10 18  1  0  0  0  0
 11 13  1  0  0  0  0
 11 12  1  1  0  0  0
 13 15  1  0  0  0  0
 13 14  1  6  0  0  0
 15 17  1  0  0  0  0
 15 16  1  1  0  0  0
 17 19  1  1  0  0  0
 17 18  1  0  0  0  0
 19 20  1  0  0  0  0
 21 29  1  0  0  0  0
 22 23  1  0  0  0  0
 22 31  1  0  0  0  0
 22 38  1  6  0  0  0
 23 25  1  0  0  0  0
 23 24  1  6  0  0  0
 25 27  1  0  0  0  0
 25 26  1  1  0  0  0
 27 30  1  0  0  0  0
 27 28  1  6  0  0  0
 30 21  1  1  0  0  0
 30 31  1  0  0  0  0
 32 34  1  0  0  0  0
 32 41  1  0  0  0  0
 32 33  1  1  0  0  0
 34 35  1  0  0  0  0
 35 37  1  0  0  0  0
 35 36  1  1  0  0  0
 37 39  1  0  0  0  0
 37 38  1  6  0  0  0
 39 41  1  0  0  0  0
 39 40  1  1  0  0  0
 41 42  1  6  0  0  0
M  CHG  6  12   1  20   1  24   1  29   1  33   1  36   1
M  END
>  <CHROM.1>
-175.67000582,-173.50352769,-176.96880276,-176.74614410,66.35718026,-96.62884849
-54.94114199,-172.33714425,73.52948949,79.15205415,155.25278745,-66.95496388
67.37364696,164.84510392,73.82886027,65.74864784,66.29842076,99.66066978
-60.40625382,-147.25869617,133.16264845,71.09247113,-0.24187952,-1.21454209
2.22639041,0.04232087,0.41465054,2.38614628

>  <Name>
1NEM.B

>  <RI>
0

>  <Rbt.Current_Directory>
/home/itssahil/PROJECTS/Mol_Feturizer/New_Systems/rnas/1nem

>  <Rbt.Executable>
rbdock ($Id: //depot/dev/client3/rdock/2013.1/src/exe/rbdock.cxx#4 $)

>  <Rbt.Library>
libRbt.so (2013.1, Build901 2013/11/27)

>  <Rbt.Parameter_File>
/export/apps/rDock/src/rDock_2013.1_src/data/scripts/dock_solv.prm

>  <Rbt.Receptor>
prm/pocket_docking_2.prm

>  <SCORE>
-58.3194

>  <SCORE.INTER>
-63.2932

>  <SCORE.INTER.CONST>
1

>  <SCORE.INTER.POLAR>
-8.31418

>  <SCORE.INTER.ROT>
9

>  <SCORE.INTER.SOLV>
51.1162

>  <SCORE.INTER.VDW>
-41.1203

>  <SCORE.INTER.norm>
-1.50698

>  <SCORE.INTRA>
4.9738

>  <SCORE.INTRA.DIHEDRAL>
3.41194

>  <SCORE.INTRA.DIHEDRAL.0>
22.4324

>  <SCORE.INTRA.POLAR>
1.141

>  <SCORE.INTRA.POLAR.0>
-1.83749

>  <SCORE.INTRA.REPUL>
0.016791

>  <SCORE.INTRA.REPUL.0>
0

>  <SCORE.INTRA.SOLV>
-3.04984

>  <SCORE.INTRA.SOLV.lig_0>
-160.638

>  <SCORE.INTRA.VDW>
0.829412

>  <SCORE.INTRA.VDW.0>
-7.61953

>  <SCORE.INTRA.norm>
0.118424

>  <SCORE.RESTR>
0

>  <SCORE.RESTR.CAVITY>
0

>  <SCORE.RESTR.norm>
0

>  <SCORE.SYSTEM>
0

>  <SCORE.SYSTEM.CONST>
0

>  <SCORE.SYSTEM.DIHEDRAL>
0

>  <SCORE.SYSTEM.SOLV>
0

>  <SCORE.SYSTEM.norm>
0

>  <SCORE.heavy>
42

>  <SCORE.norm>
-1.38856

>  <RMSD>
1.065

$$$$
1NEM.B
 OpenBabel11021811403D
libRbt.so/2013.1/901 2013/11/27
 42 45  0  0  0  0  0  0  0  0999 V2000
    2.7162   -4.9319    1.9049 O   0  0  0  0  0  0  0  0  0  0  0  0
    2.5437   -3.6157    2.4340 C   0  0  0  0  0  0  0  0  0  0  0  0
    2.4894   -2.5382    1.3520 C   0  0  1  0  0  0  0  0  0  0  0  0
    1.2383   -2.5707    0.6714 O   0  0  0  0  0  0  0  0  0  0  0  0
    2.5632   -1.1117    1.8728 C   0  0  1  0  0  0  0  0  0  0  0  0
    3.9062   -0.8874    2.3078 O   0  0  0  0  0  0  0  0  0  0  0  0
    2.1270   -0.3783    0.6183 C   0  0  1  0  0  0  0  0  0  0  0  0
    3.1169   -0.4376   -0.4141 O   0  0  0  0  0  0  0  0  0  0  0  0
    0.9200   -1.2463    0.2433 C   0  0  2  0  0  0  0  0  0  0  0  0
    4.1940    0.3939    2.7904 C   0  0  2  0  0  0  0  0  0  0  0  0
    5.7159    0.5701    2.8817 C   0  0  2  0  0  0  0  0  0  0  0  0
    6.3114   -0.5383    3.6735 N   0  3  0  0  0  0  0  0  0  0  0  0
    6.0720    1.9399    3.4686 C   0  0  1  0  0  0  0  0  0  0  0  0
    5.7636    2.9582    2.5260 O   0  0  0  0  0  0  0  0  0  0  0  0
    5.3096    2.1981    4.7719 C   0  0  2  0  0  0  0  0  0  0  0  0
    5.7749    1.3290    5.7968 O   0  0  0  0  0  0  0  0  0  0  0  0
    3.8162    1.9821    4.5444 C   0  0  1  0  0  0  0  0  0  0  0  0
    3.5884    0.6476    4.0513 O   0  0  0  0  0  0  0  0  0  0  0  0
    2.9859    2.1649    5.8026 C   0  0  0  0  0  0  0  0  0  0  0  0
    1.5530    1.8817    5.5649 N   0  3  0  0  0  0  0  0  0  0  0  0
   -5.7255   -2.7255    4.2493 C   0  0  0  0  0  0  0  0  0  0  0  0
   -2.6144   -2.2074    2.3052 C   0  0  2  0  0  0  0  0  0  0  0  0
   -2.2767   -3.6410    1.9031 C   0  0  2  0  0  0  0  0  0  0  0  0
   -1.3464   -3.6447    0.7489 N   0  3  0  0  0  0  0  0  0  0  0  0
   -3.5465   -4.3943    1.5298 C   0  0  1  0  0  0  0  0  0  0  0  0
   -3.2287   -5.7454    1.2333 O   0  0  0  0  0  0  0  0  0  0  0  0
   -4.5383   -4.3300    2.6891 C   0  0  2  0  0  0  0  0  0  0  0  0
   -5.7530   -4.9716    2.3227 O   0  0  0  0  0  0  0  0  0  0  0  0
   -5.0279   -2.0786    5.3841 N   0  3  0  0  0  0  0  0  0  0  0  0
   -4.8135   -2.8699    3.0434 C   0  0  2  0  0  0  0  0  0  0  0  0
   -3.5784   -2.1938    3.3548 O   0  0  0  0  0  0  0  0  0  0  0  0
   -1.8023    2.1739   -0.5644 C   0  0  2  0  0  0  0  0  0  0  0  0
   -1.3008    3.5615   -0.6919 N   0  3  0  0  0  0  0  0  0  0  0  0
   -3.0812    2.1561    0.2653 C   0  0  0  0  0  0  0  0  0  0  0  0
   -3.6073    0.7347    0.4066 C   0  0  2  0  0  0  0  0  0  0  0  0
   -4.8244    0.7869    1.2041 N   0  3  0  0  0  0  0  0  0  0  0  0
   -2.5535   -0.1427    1.0782 C   0  0  1  0  0  0  0  0  0  0  0  0
   -3.0480   -1.4921    1.1826 O   0  0  0  0  0  0  0  0  0  0  0  0
   -1.2474   -0.1387    0.2717 C   0  0  2  0  0  0  0  0  0  0  0  0
   -0.2447   -0.8884    0.9839 O   0  0  0  0  0  0  0  0  0  0  0  0
   -0.7288    1.2807    0.0553 C   0  0  1  0  0  0  0  0  0  0  0  0
    0.4080    1.2456   -0.7973 O   0  0  0  0  0  0  0  0  0  0  0  0
  1  2  1  0  0  0  0
  3  2  1  1  0  0  0
  3  5  1  0  0  0  0
  3  4  1  0  0  0  0
  4  9  1  0  0  0  0
  5  7  1  0  0  0  0
  5  6  1  6  0  0  0
  7  9  1  0  0  0  0
  7  8  1  6  0  0  0
  9 40  1  1  0  0  0
 10  6  1  1  0  0  0
 10 11  1  0  0  0  0
 10 18  1  0  0  0  0
 11 13  1  0  0  0  0
 11 12  1  1  0  0  0
 13 15  1  0  0  0  0
 13 14  1  6  0  0  0
 15 17  1  0  0  0  0
 15 16  1  1  0  0  0
 17 19  1  1  0  0  0
 17 18  1  0  0  0  0
 19 20  1  0  0  0  0
 21 29  1  0  0  0  0
 22 23  1  0  0  0  0
 22 31  1  0  0  0  0
 22 38  1  6  0  0  0
 23 25  1  0  0  0  0
 23 24  1  6  0  0  0
 25 27  1  0  0  0  0
 25 26  1  1  0  0  0
 27 30  1  0  0  0  0
 27 28  1  6  0  0  0
 30 21  1  1  0  0  0
 30 31  1  0  0  0  0
 32 34  1  0  0  0  0
 32 41  1  0  0  0  0
 32 33  1  1  0  0  0
 34 35  1  0  0  0  0
 35 37  1  0  0  0  0
 35 36  1  1  0  0  0
 37 39  1  0  0  0  0
 37 38  1  6  0  0  0
 39 41  1  0  0  0  0
 39 40  1  1  0  0  0
 41 42  1  6  0  0  0
M  CHG  6  12   1  20   1  24   1  29   1  33   1  36   1
M  END
>  <CHROM.1>
-42.72860590,74.47818580,178.15961078,-166.09895859,-57.77012955,-140.82973787
165.93297254,-60.29309506,76.22922489,-177.09104247,-43.78677730,115.48995640
-21.30255581,-138.78586322,53.34393003,-144.47568124,63.90789049,105.48185825
175.63905459,-147.35890128,165.90713514,61.40841588,0.20535969,-0.77109086
2.12986255,-0.33697695,0.25114968,2.88654315

>  <Name>
1NEM.B

>  <RI>
0

>  <Rbt.Current_Directory>
/home/itssahil/PROJECTS/Mol_Feturizer/New_Systems/rnas/1nem

>  <Rbt.Executable>
rbdock ($Id: //depot/dev/client3/rdock/2013.1/src/exe/rbdock.cxx#4 $)

>  <Rbt.Library>
libRbt.so (2013.1, Build901 2013/11/27)

>  <Rbt.Parameter_File>
/export/apps/rDock/src/rDock_2013.1_src/data/scripts/dock_solv.prm

>  <Rbt.Receptor>
prm/pocket_docking_2.prm

>  <SCORE>
-41.4229

>  <SCORE.INTER>
-48.5175

>  <SCORE.INTER.CONST>
1

>  <SCORE.INTER.POLAR>
-6.62948

>  <SCORE.INTER.ROT>
9

>  <SCORE.INTER.SOLV>
39.7549

>  <SCORE.INTER.VDW>
-33.0984

>  <SCORE.INTER.norm>
-1.15518

>  <SCORE.INTRA>
6.98661

>  <SCORE.INTRA.DIHEDRAL>
15.3716

>  <SCORE.INTRA.DIHEDRAL.0>
22.4324

>  <SCORE.INTRA.POLAR>
-0.626503

>  <SCORE.INTRA.POLAR.0>
-1.83749

>  <SCORE.INTRA.REPUL>
0

>  <SCORE.INTRA.REPUL.0>
0

>  <SCORE.INTRA.SOLV>
-3.00335

>  <SCORE.INTRA.SOLV.lig_0>
-160.638

>  <SCORE.INTRA.VDW>
2.9326

>  <SCORE.INTRA.VDW.0>
-7.61953

>  <SCORE.INTRA.norm>
0.166348

>  <SCORE.RESTR>
0.108032

>  <SCORE.RESTR.CAVITY>
0.108032

>  <SCORE.RESTR.norm>
0.00257218

>  <SCORE.SYSTEM>
0

>  <SCORE.SYSTEM.CONST>
0

>  <SCORE.SYSTEM.DIHEDRAL>
0

>  <SCORE.SYSTEM.SOLV>
0

>  <SCORE.SYSTEM.norm>
0

>  <SCORE.heavy>
42

>  <SCORE.norm>
-0.98626

>  <RMSD>
1.073

$$$$
1NEM.B
 OpenBabel11021811403D
libRbt.so/2013.1/901 2013/11/27
 42 45  0  0  0  0  0  0  0  0999 V2000
    1.2541   -3.7524    1.0108 O   0  0  0  0  0  0  0  0  0  0  0  0
    2.0845   -2.6930    1.4907 C   0  0  0  0  0  0  0  0  0  0  0  0
    2.1184   -1.4875    0.5524 C   0  0  1  0  0  0  0  0  0  0  0  0
    0.8472   -1.2895   -0.0593 O   0  0  0  0  0  0  0  0  0  0  0  0
    2.3835   -0.1568    1.2384 C   0  0  1  0  0  0  0  0  0  0  0  0
    3.7595   -0.1450    1.6252 O   0  0  0  0  0  0  0  0  0  0  0  0
    1.9906    0.7754    0.1077 C   0  0  1  0  0  0  0  0  0  0  0  0
    2.9255    0.7349   -0.9756 O   0  0  0  0  0  0  0  0  0  0  0  0
    0.6743    0.1062   -0.3052 C   0  0  2  0  0  0  0  0  0  0  0  0
    4.1677    0.9271    2.4260 C   0  0  2  0  0  0  0  0  0  0  0  0
    5.6799    0.8300    2.6693 C   0  0  2  0  0  0  0  0  0  0  0  0
    6.0250   -0.5120    3.2079 N   0  3  0  0  0  0  0  0  0  0  0  0
    6.1560    1.9521    3.5976 C   0  0  1  0  0  0  0  0  0  0  0  0
    6.0975    3.1961    2.9123 O   0  0  0  0  0  0  0  0  0  0  0  0
    5.2982    2.0227    4.8648 C   0  0  2  0  0  0  0  0  0  0  0  0
    5.5228    0.8777    5.6776 O   0  0  0  0  0  0  0  0  0  0  0  0
    3.8234    2.1084    4.4821 C   0  0  1  0  0  0  0  0  0  0  0  0
    3.4681    0.9779    3.6626 O   0  0  0  0  0  0  0  0  0  0  0  0
    2.8933    2.1279    5.6823 C   0  0  0  0  0  0  0  0  0  0  0  0
    1.4738    2.0023    5.2832 N   0  3  0  0  0  0  0  0  0  0  0  0
   -6.2988   -2.5852    2.8595 C   0  0  0  0  0  0  0  0  0  0  0  0
   -2.7650   -1.4793    2.7325 C   0  0  2  0  0  0  0  0  0  0  0  0
   -2.0408   -2.7621    3.1339 C   0  0  2  0  0  0  0  0  0  0  0  0
   -0.6210   -2.7034    2.7119 N   0  3  0  0  0  0  0  0  0  0  0  0
   -2.7100   -3.9671    2.4863 C   0  0  1  0  0  0  0  0  0  0  0  0
   -2.0767   -5.1579    2.9282 O   0  0  0  0  0  0  0  0  0  0  0  0
   -4.1908   -3.9904    2.8582 C   0  0  2  0  0  0  0  0  0  0  0  0
   -4.8376   -5.0730    2.2017 O   0  0  0  0  0  0  0  0  0  0  0  0
   -6.4684   -2.8700    4.3028 N   0  3  0  0  0  0  0  0  0  0  0  0
   -4.8413   -2.6727    2.4414 C   0  0  2  0  0  0  0  0  0  0  0  0
   -4.1511   -1.5637    3.0525 O   0  0  0  0  0  0  0  0  0  0  0  0
   -3.3783    2.0888   -1.1553 C   0  0  2  0  0  0  0  0  0  0  0  0
   -3.6128    3.4813   -1.6017 N   0  3  0  0  0  0  0  0  0  0  0  0
   -4.4074    1.6996   -0.1001 C   0  0  0  0  0  0  0  0  0  0  0  0
   -4.1770    0.2702    0.3700 C   0  0  2  0  0  0  0  0  0  0  0  0
   -5.1886   -0.0387    1.3707 N   0  3  0  0  0  0  0  0  0  0  0  0
   -2.7733    0.1381    0.9559 C   0  0  1  0  0  0  0  0  0  0  0  0
   -2.5531   -1.2236    1.3724 O   0  0  0  0  0  0  0  0  0  0  0  0
   -1.7115    0.5330   -0.0800 C   0  0  2  0  0  0  0  0  0  0  0  0
   -0.4093    0.4981    0.5346 O   0  0  0  0  0  0  0  0  0  0  0  0
   -1.9548    1.9397   -0.6208 C   0  0  1  0  0  0  0  0  0  0  0  0
   -1.0270    2.2147   -1.6619 O   0  0  0  0  0  0  0  0  0  0  0  0
  1  2  1  0  0  0  0
  3  2  1  1  0  0  0
  3  5  1  0  0  0  0
  3  4  1  0  0  0  0
  4  9  1  0  0  0  0
  5  7  1  0  0  0  0
  5  6  1  6  0  0  0
  7  9  1  0  0  0  0
  7  8  1  6  0  0  0
  9 40  1  1  0  0  0
 10  6  1  1  0  0  0
 10 11  1  0  0  0  0
 10 18  1  0  0  0  0
 11 13  1  0  0  0  0
 11 12  1  1  0  0  0
 13 15  1  0  0  0  0
 13 14  1  6  0  0  0
 15 17  1  0  0  0  0
 15 16  1  1  0  0  0
 17 19  1  1  0  0  0
 17 18  1  0  0  0  0
 19 20  1  0  0  0  0
 21 29  1  0  0  0  0
 22 23  1  0  0  0  0
 22 31  1  0  0  0  0
 22 38  1  6  0  0  0
 23 25  1  0  0  0  0
 23 24  1  6  0  0  0
 25 27  1  0  0  0  0
 25 26  1  1  0  0  0
 27 30  1  0  0  0  0
 27 28  1  6  0  0  0
 30 21  1  1  0  0  0
 30 31  1  0  0  0  0
 32 34  1  0  0  0  0
 32 41  1  0  0  0  0
 32 33  1  1  0  0  0
 34 35  1  0  0  0  0
 35 37  1  0  0  0  0
 35 36  1  1  0  0  0
 37 39  1  0  0  0  0
 37 38  1  6  0  0  0
 39 41  1  0  0  0  0
 39 40  1  1  0  0  0
 41 42  1  6  0  0  0
M  CHG  6  12   1  20   1  24   1  29   1  33   1  36   1
M  END
>  <CHROM.1>
65.57456494,35.80105229,-172.16908084,-176.39496693,-172.57693361,-96.09020907
38.05527488,-174.95794798,-179.61908198,-171.26121647,67.51883966,52.43403263
-170.70295468,-159.76825944,28.56382951,-172.96278180,169.84494371,89.27815785
120.35793962,-97.16402953,146.53554747,-177.24591564,-0.08469959,-0.37163339
1.92662027,-0.15981156,0.32121174,2.47209548

>  <Name>
1NEM.B

>  <RI>
0

>  <Rbt.Current_Directory>
/home/itssahil/PROJECTS/Mol_Feturizer/New_Systems/rnas/1nem

>  <Rbt.Executable>
rbdock ($Id: //depot/dev/client3/rdock/2013.1/src/exe/rbdock.cxx#4 $)

>  <Rbt.Library>
libRbt.so (2013.1, Build901 2013/11/27)

>  <Rbt.Parameter_File>
/export/apps/rDock/src/rDock_2013.1_src/data/scripts/dock_solv.prm

>  <Rbt.Receptor>
prm/pocket_docking_2.prm

>  <SCORE>
-45.1252

>  <SCORE.INTER>
-55.8826

>  <SCORE.INTER.CONST>
1

>  <SCORE.INTER.POLAR>
-8.42561

>  <SCORE.INTER.ROT>
9

>  <SCORE.INTER.SOLV>
42.1981

>  <SCORE.INTER.VDW>
-32.8358

>  <SCORE.INTER.norm>
-1.33054

>  <SCORE.INTRA>
9.64244

>  <SCORE.INTRA.DIHEDRAL>
6.69732

>  <SCORE.INTRA.DIHEDRAL.0>
22.4324

>  <SCORE.INTRA.POLAR>
-0.403172

>  <SCORE.INTRA.POLAR.0>
-1.83749

>  <SCORE.INTRA.REPUL>
0.000662735

>  <SCORE.INTRA.REPUL.0>
0

>  <SCORE.INTRA.SOLV>
3.07462

>  <SCORE.INTRA.SOLV.lig_0>
-160.638

>  <SCORE.INTRA.VDW>
6.12394

>  <SCORE.INTRA.VDW.0>
-7.61953

>  <SCORE.INTRA.norm>
0.229582

>  <SCORE.RESTR>
1.11504

>  <SCORE.RESTR.CAVITY>
1.11504

>  <SCORE.RESTR.norm>
0.0265485

>  <SCORE.SYSTEM>
0

>  <SCORE.SYSTEM.CONST>
0

>  <SCORE.SYSTEM.DIHEDRAL>
0

>  <SCORE.SYSTEM.SOLV>
0

>  <SCORE.SYSTEM.norm>
0

>  <SCORE.heavy>
42

>  <SCORE.norm>
-1.07441

>  <RMSD>
1.090

$$$$
1NEM.B
 OpenBabel11021811403D
libRbt.so/2013.1/901 2013/11/27
 42 45  0  0  0  0  0  0  0  0999 V2000
    2.8880   -4.0009    3.1152 O   0  0  0  0  0  0  0  0  0  0  0  0
    1.8073   -3.8358    2.1950 C   0  0  0  0  0  0  0  0  0  0  0  0
    1.9723   -2.6148    1.2912 C   0  0  1  0  0  0  0  0  0  0  0  0
    0.8195   -2.4336    0.4741 O   0  0  0  0  0  0  0  0  0  0  0  0
    2.0855   -1.2902    2.0288 C   0  0  1  0  0  0  0  0  0  0  0  0
    3.3750   -1.2558    2.6448 O   0  0  0  0  0  0  0  0  0  0  0  0
    1.8692   -0.3482    0.8592 C   0  0  1  0  0  0  0  0  0  0  0  0
    2.9756   -0.3516   -0.0491 O   0  0  0  0  0  0  0  0  0  0  0  0
    0.6585   -1.0380    0.2196 C   0  0  2  0  0  0  0  0  0  0  0  0
    3.8065   -0.0079    3.1070 C   0  0  2  0  0  0  0  0  0  0  0  0
    5.3408    0.0282    3.1089 C   0  0  2  0  0  0  0  0  0  0  0  0
    5.8776   -1.1327    3.8669 N   0  3  0  0  0  0  0  0  0  0  0  0
    5.8543    1.3577    3.6712 C   0  0  1  0  0  0  0  0  0  0  0  0
    5.5858    2.4031    2.7462 O   0  0  0  0  0  0  0  0  0  0  0  0
    5.1962    1.6802    5.0163 C   0  0  2  0  0  0  0  0  0  0  0  0
    5.6391    0.7689    6.0140 O   0  0  0  0  0  0  0  0  0  0  0  0
    3.6785    1.6025    4.8768 C   0  0  1  0  0  0  0  0  0  0  0  0
    3.3012    0.2960    4.4007 O   0  0  0  0  0  0  0  0  0  0  0  0
    2.9433    1.8562    6.1811 C   0  0  0  0  0  0  0  0  0  0  0  0
    1.6928    1.0702    6.2723 N   0  3  0  0  0  0  0  0  0  0  0  0
   -5.5503   -1.8035    4.6884 C   0  0  0  0  0  0  0  0  0  0  0  0
   -2.6332   -2.2354    2.4453 C   0  0  2  0  0  0  0  0  0  0  0  0
   -2.4138   -3.7437    2.5354 C   0  0  2  0  0  0  0  0  0  0  0  0
   -1.6088   -4.2148    1.3832 N   0  3  0  0  0  0  0  0  0  0  0  0
   -3.7527   -4.4691    2.5455 C   0  0  1  0  0  0  0  0  0  0  0  0
   -3.5379   -5.8627    2.7076 O   0  0  0  0  0  0  0  0  0  0  0  0
   -4.6151   -3.9342    3.6865 C   0  0  2  0  0  0  0  0  0  0  0  0
   -5.8928   -4.5572    3.6603 O   0  0  0  0  0  0  0  0  0  0  0  0
   -4.8822   -2.0485    5.9871 N   0  3  0  0  0  0  0  0  0  0  0  0
   -4.7761   -2.4225    3.5377 C   0  0  2  0  0  0  0  0  0  0  0  0
   -3.4820   -1.7874    3.4989 O   0  0  0  0  0  0  0  0  0  0  0  0
   -2.7213    1.5020   -1.3154 C   0  0  2  0  0  0  0  0  0  0  0  0
   -2.5633    2.9120   -1.7401 N   0  3  0  0  0  0  0  0  0  0  0  0
   -4.0032    1.3421   -0.5059 C   0  0  0  0  0  0  0  0  0  0  0  0
   -4.1777   -0.1030   -0.0604 C   0  0  2  0  0  0  0  0  0  0  0  0
   -5.4148   -0.1881    0.7027 N   0  3  0  0  0  0  0  0  0  0  0  0
   -2.9832   -0.5303    0.7893 C   0  0  1  0  0  0  0  0  0  0  0  0
   -3.1424   -1.9072    1.1832 O   0  0  0  0  0  0  0  0  0  0  0  0
   -1.6730   -0.3718    0.0055 C   0  0  2  0  0  0  0  0  0  0  0  0
   -0.5612   -0.6825    0.8670 O   0  0  0  0  0  0  0  0  0  0  0  0
   -1.5010    1.0538   -0.5128 C   0  0  1  0  0  0  0  0  0  0  0  0
   -0.3427    1.1236   -1.3337 O   0  0  0  0  0  0  0  0  0  0  0  0
  1  2  1  0  0  0  0
  3  2  1  1  0  0  0
  3  5  1  0  0  0  0
  3  4  1  0  0  0  0
  4  9  1  0  0  0  0
  5  7  1  0  0  0  0
  5  6  1  6  0  0  0
  7  9  1  0  0  0  0
  7  8  1  6  0  0  0
  9 40  1  1  0  0  0
 10  6  1  1  0  0  0
 10 11  1  0  0  0  0
 10 18  1  0  0  0  0
 11 13  1  0  0  0  0
 11 12  1  1  0  0  0
 13 15  1  0  0  0  0
 13 14  1  6  0  0  0
 15 17  1  0  0  0  0
 15 16  1  1  0  0  0
 17 19  1  1  0  0  0
 17 18  1  0  0  0  0
 19 20  1  0  0  0  0
 21 29  1  0  0  0  0
 22 23  1  0  0  0  0
 22 31  1  0  0  0  0
 22 38  1  6  0  0  0
 23 25  1  0  0  0  0
 23 24  1  6  0  0  0
 25 27  1  0  0  0  0
 25 26  1  1  0  0  0
 27 30  1  0  0  0  0
 27 28  1  6  0  0  0
 30 21  1  1  0  0  0
 30 31  1  0  0  0  0
 32 34  1  0  0  0  0
 32 41  1  0  0  0  0
 32 33  1  1  0  0  0
 34 35  1  0  0  0  0
 35 37  1  0  0  0  0
 35 36  1  1  0  0  0
 37 39  1  0  0  0  0
 37 38  1  6  0  0  0
 39 41  1  0  0  0  0
 39 40  1  1  0  0  0
 41 42  1  6  0  0  0
M  CHG  6  12   1  20   1  24   1  29   1  33   1  36   1
M  END
>  <CHROM.1>
-48.42287213,-175.13188155,165.47120810,-153.39259361,81.05184247,-109.54623748
32.00819795,-55.40388219,-91.87625751,-146.94956279,111.19828770,59.39582401
56.30798096,-160.10911440,38.56241386,172.45457172,-63.05090077,-88.12894672
-22.24148179,-146.34730730,158.95257329,-62.93465596,-0.10761270,-0.98006282
2.32429918,-0.03543031,0.34235393,2.25937498

>  <Name>
1NEM.B

>  <RI>
0

>  <Rbt.Current_Directory>
/home/itssahil/PROJECTS/Mol_Feturizer/New_Systems/rnas/1nem

>  <Rbt.Executable>
rbdock ($Id: //depot/dev/client3/rdock/2013.1/src/exe/rbdock.cxx#4 $)

>  <Rbt.Library>
libRbt.so (2013.1, Build901 2013/11/27)

>  <Rbt.Parameter_File>
/export/apps/rDock/src/rDock_2013.1_src/data/scripts/dock_solv.prm

>  <Rbt.Receptor>
prm/pocket_docking_6.prm

>  <SCORE>
-50.0115

>  <SCORE.INTER>
-63.2899

>  <SCORE.INTER.CONST>
1

>  <SCORE.INTER.POLAR>
-8.69298

>  <SCORE.INTER.ROT>
9

>  <SCORE.INTER.SOLV>
45.0629

>  <SCORE.INTER.VDW>
-37.8377

>  <SCORE.INTER.norm>
-1.5069

>  <SCORE.INTRA>
13.2633

>  <SCORE.INTRA.DIHEDRAL>
17.0688

>  <SCORE.INTRA.DIHEDRAL.0>
22.4324

>  <SCORE.INTRA.POLAR>
0.296236

>  <SCORE.INTRA.POLAR.0>
-1.83749

>  <SCORE.INTRA.REPUL>
0

>  <SCORE.INTRA.REPUL.0>
0

>  <SCORE.INTRA.SOLV>
-2.35037

>  <SCORE.INTRA.SOLV.lig_0>
-160.638

>  <SCORE.INTRA.VDW>
4.89688

>  <SCORE.INTRA.VDW.0>
-7.61953

>  <SCORE.INTRA.norm>
0.315793

>  <SCORE.RESTR>
0.0151669

>  <SCORE.RESTR.CAVITY>
0.0151669

>  <SCORE.RESTR.norm>
0.000361116

>  <SCORE.SYSTEM>
0

>  <SCORE.SYSTEM.CONST>
0

>  <SCORE.SYSTEM.DIHEDRAL>
0

>  <SCORE.SYSTEM.SOLV>
0

>  <SCORE.SYSTEM.norm>
0

>  <SCORE.heavy>
42

>  <SCORE.norm>
-1.19075

>  <RMSD>
1.102

$$$$
1NEM.B
 OpenBabel11021811403D
libRbt.so/2013.1/901 2013/11/27
 42 45  0  0  0  0  0  0  0  0999 V2000
    1.8169   -5.2197    1.9085 O   0  0  0  0  0  0  0  0  0  0  0  0
    1.7295   -3.9249    2.5069 C   0  0  0  0  0  0  0  0  0  0  0  0
    1.9449   -2.7886    1.5084 C   0  0  1  0  0  0  0  0  0  0  0  0
    0.8153   -2.6506    0.6513 O   0  0  0  0  0  0  0  0  0  0  0  0
    2.0745   -1.4094    2.1350 C   0  0  1  0  0  0  0  0  0  0  0  0
    3.3503   -1.3528    2.7770 O   0  0  0  0  0  0  0  0  0  0  0  0
    1.9077   -0.5647    0.8858 C   0  0  1  0  0  0  0  0  0  0  0  0
    3.0335   -0.6699    0.0080 O   0  0  0  0  0  0  0  0  0  0  0  0
    0.6947   -1.2781    0.2770 C   0  0  2  0  0  0  0  0  0  0  0  0
    3.7466   -0.0994    3.2558 C   0  0  2  0  0  0  0  0  0  0  0  0
    5.2764    0.0060    3.1923 C   0  0  2  0  0  0  0  0  0  0  0  0
    5.8971   -1.1492    3.8926 N   0  3  0  0  0  0  0  0  0  0  0  0
    5.7554    1.3419    3.7697 C   0  0  1  0  0  0  0  0  0  0  0  0
    5.4002    2.3984    2.8875 O   0  0  0  0  0  0  0  0  0  0  0  0
    5.1443    1.5982    5.1507 C   0  0  2  0  0  0  0  0  0  0  0  0
    5.6709    0.6815    6.1017 O   0  0  0  0  0  0  0  0  0  0  0  0
    3.6268    1.4556    5.0749 C   0  0  1  0  0  0  0  0  0  0  0  0
    3.2866    0.1466    4.5783 O   0  0  0  0  0  0  0  0  0  0  0  0
    2.9400    1.6409    6.4166 C   0  0  0  0  0  0  0  0  0  0  0  0
    1.5618    1.1018    6.4107 N   0  3  0  0  0  0  0  0  0  0  0  0
   -6.1573   -2.5008    3.9226 C   0  0  0  0  0  0  0  0  0  0  0  0
   -2.8609   -2.3503    2.2379 C   0  0  2  0  0  0  0  0  0  0  0  0
   -2.4606   -3.8237    2.2427 C   0  0  2  0  0  0  0  0  0  0  0  0
   -1.4103   -4.0734    1.2268 N   0  3  0  0  0  0  0  0  0  0  0  0
   -3.6711   -4.6973    1.9418 C   0  0  1  0  0  0  0  0  0  0  0  0
   -3.3034   -6.0656    2.0257 O   0  0  0  0  0  0  0  0  0  0  0  0
   -4.7840   -4.3901    2.9413 C   0  0  2  0  0  0  0  0  0  0  0  0
   -5.9423   -5.1516    2.6249 O   0  0  0  0  0  0  0  0  0  0  0  0
   -7.2059   -1.6378    3.3321 N   0  3  0  0  0  0  0  0  0  0  0  0
   -5.1174   -2.9003    2.8902 C   0  0  2  0  0  0  0  0  0  0  0  0
   -3.9335   -2.1180    3.1470 O   0  0  0  0  0  0  0  0  0  0  0  0
   -2.4299    1.5606   -1.3330 C   0  0  2  0  0  0  0  0  0  0  0  0
   -2.1784    2.9817   -1.6654 N   0  3  0  0  0  0  0  0  0  0  0  0
   -3.7713    1.4213   -0.6221 C   0  0  0  0  0  0  0  0  0  0  0  0
   -4.0423   -0.0352   -0.2721 C   0  0  2  0  0  0  0  0  0  0  0  0
   -5.3325   -0.0997    0.3999 N   0  3  0  0  0  0  0  0  0  0  0  0
   -2.9310   -0.5658    0.6306 C   0  0  1  0  0  0  0  0  0  0  0  0
   -3.1801   -1.9522    0.9341 O   0  0  0  0  0  0  0  0  0  0  0  0
   -1.5632   -0.4307   -0.0529 C   0  0  2  0  0  0  0  0  0  0  0  0
   -0.5299   -0.8415    0.8626 O   0  0  0  0  0  0  0  0  0  0  0  0
   -1.2906    1.0103   -0.4767 C   0  0  1  0  0  0  0  0  0  0  0  0
   -0.0756    1.0666   -1.2124 O   0  0  0  0  0  0  0  0  0  0  0  0
  1  2  1  0  0  0  0
  3  2  1  1  0  0  0
  3  5  1  0  0  0  0
  3  4  1  0  0  0  0
  4  9  1  0  0  0  0
  5  7  1  0  0  0  0
  5  6  1  6  0  0  0
  7  9  1  0  0  0  0
  7  8  1  6  0  0  0
  9 40  1  1  0  0  0
 10  6  1  1  0  0  0
 10 11  1  0  0  0  0
 10 18  1  0  0  0  0
 11 13  1  0  0  0  0
 11 12  1  1  0  0  0
 13 15  1  0  0  0  0
 13 14  1  6  0  0  0
 15 17  1  0  0  0  0
 15 16  1  1  0  0  0
 17 19  1  1  0  0  0
 17 18  1  0  0  0  0
 19 20  1  0  0  0  0
 21 29  1  0  0  0  0
 22 23  1  0  0  0  0
 22 31  1  0  0  0  0
 22 38  1  6  0  0  0
 23 25  1  0  0  0  0
 23 24  1  6  0  0  0
 25 27  1  0  0  0  0
 25 26  1  1  0  0  0
 27 30  1  0  0  0  0
 27 28  1  6  0  0  0
 30 21  1  1  0  0  0
 30 31  1  0  0  0  0
 32 34  1  0  0  0  0
 32 41  1  0  0  0  0
 32 33  1  1  0  0  0
 34 35  1  0  0  0  0
 35 37  1  0  0  0  0
 35 36  1  1  0  0  0
 37 39  1  0  0  0  0
 37 38  1  6  0  0  0
 39 41  1  0  0  0  0
 39 40  1  1  0  0  0
 41 42  1  6  0  0  0
M  CHG  6  12   1  20   1  24   1  29   1  33   1  36   1
M  END
>  <CHROM.1>
-174.17691086,72.82879096,171.26014428,-149.28993866,174.28419253,-116.51960155
-88.50545769,74.80142005,-67.15421179,-162.50351849,105.42234842,-133.88405772
138.25440936,-150.38347137,-175.72379494,44.71172569,36.81350616,175.45559006
-22.49599295,-142.13655468,156.27299543,-9.44675315,-0.20503391,-1.12364711
2.12937701,-0.11145497,0.37148011,2.54721383

>  <Name>
1NEM.B

>  <RI>
0

>  <Rbt.Current_Directory>
/home/itssahil/PROJECTS/Mol_Feturizer/New_Systems/rnas/1nem

>  <Rbt.Executable>
rbdock ($Id: //depot/dev/client3/rdock/2013.1/src/exe/rbdock.cxx#4 $)

>  <Rbt.Library>
libRbt.so (2013.1, Build901 2013/11/27)

>  <Rbt.Parameter_File>
/export/apps/rDock/src/rDock_2013.1_src/data/scripts/dock_solv.prm

>  <Rbt.Receptor>
prm/pocket_docking_8.prm

>  <SCORE>
-41.415

>  <SCORE.INTER>
-67.761

>  <SCORE.INTER.CONST>
1

>  <SCORE.INTER.POLAR>
-9.34946

>  <SCORE.INTER.ROT>
9

>  <SCORE.INTER.SOLV>
45.2626

>  <SCORE.INTER.VDW>
-38.6966

>  <SCORE.INTER.norm>
-1.61336

>  <SCORE.INTRA>
26.3459

>  <SCORE.INTRA.DIHEDRAL>
28.6619

>  <SCORE.INTRA.DIHEDRAL.0>
22.4324

>  <SCORE.INTRA.POLAR>
0.748449

>  <SCORE.INTRA.POLAR.0>
-1.83749

>  <SCORE.INTRA.REPUL>
0

>  <SCORE.INTRA.REPUL.0>
0

>  <SCORE.INTRA.SOLV>
0.0114708

>  <SCORE.INTRA.SOLV.lig_0>
-160.638

>  <SCORE.INTRA.VDW>
9.46452

>  <SCORE.INTRA.VDW.0>
-7.61953

>  <SCORE.INTRA.norm>
0.627284

>  <SCORE.RESTR>
0

>  <SCORE.RESTR.CAVITY>
0

>  <SCORE.RESTR.norm>
0

>  <SCORE.SYSTEM>
0

>  <SCORE.SYSTEM.CONST>
0

>  <SCORE.SYSTEM.DIHEDRAL>
0

>  <SCORE.SYSTEM.SOLV>
0

>  <SCORE.SYSTEM.norm>
0

>  <SCORE.heavy>
42

>  <SCORE.norm>
-0.986072

>  <RMSD>
1.127

$$$$
1NEM.B
 OpenBabel11021811403D
libRbt.so/2013.1/901 2013/11/27
 42 45  0  0  0  0  0  0  0  0999 V2000
    0.4471   -3.9587    2.5704 O   0  0  0  0  0  0  0  0  0  0  0  0
    1.7004   -3.8831    1.8882 C   0  0  0  0  0  0  0  0  0  0  0  0
    1.8703   -2.5912    1.0901 C   0  0  1  0  0  0  0  0  0  0  0  0
    0.7487   -2.3740    0.2390 O   0  0  0  0  0  0  0  0  0  0  0  0
    1.9156   -1.3264    1.9325 C   0  0  1  0  0  0  0  0  0  0  0  0
    3.1763   -1.3097    2.6061 O   0  0  0  0  0  0  0  0  0  0  0  0
    1.7236   -0.3008    0.8310 C   0  0  1  0  0  0  0  0  0  0  0  0
    2.8672   -0.2062   -0.0246 O   0  0  0  0  0  0  0  0  0  0  0  0
    0.5605   -0.9670    0.0865 C   0  0  2  0  0  0  0  0  0  0  0  0
    3.4154   -0.2150    3.4438 C   0  0  2  0  0  0  0  0  0  0  0  0
    4.8871   -0.2227    3.8790 C   0  0  2  0  0  0  0  0  0  0  0  0
    5.2382   -1.5419    4.4680 N   0  3  0  0  0  0  0  0  0  0  0  0
    5.1743    0.9259    4.8514 C   0  0  1  0  0  0  0  0  0  0  0  0
    5.1315    2.1639    4.1543 O   0  0  0  0  0  0  0  0  0  0  0  0
    4.1589    0.9464    5.9981 C   0  0  2  0  0  0  0  0  0  0  0  0
    4.3441   -0.1829    6.8421 O   0  0  0  0  0  0  0  0  0  0  0  0
    2.7427    0.9450    5.4296 C   0  0  1  0  0  0  0  0  0  0  0  0
    2.5617   -0.2049    4.5805 O   0  0  0  0  0  0  0  0  0  0  0  0
    1.6671    0.9103    6.5011 C   0  0  0  0  0  0  0  0  0  0  0  0
    1.7354    2.0909    7.3907 N   0  3  0  0  0  0  0  0  0  0  0  0
   -5.4475   -2.7651    4.3591 C   0  0  0  0  0  0  0  0  0  0  0  0
   -2.6767   -2.3834    1.9293 C   0  0  2  0  0  0  0  0  0  0  0  0
   -2.2857   -3.8410    1.6978 C   0  0  2  0  0  0  0  0  0  0  0  0
   -1.5220   -3.9730    0.4341 N   0  3  0  0  0  0  0  0  0  0  0  0
   -3.5316   -4.7138    1.6277 C   0  0  1  0  0  0  0  0  0  0  0  0
   -3.1525   -6.0747    1.4904 O   0  0  0  0  0  0  0  0  0  0  0  0
   -4.3601   -4.5247    2.8965 C   0  0  2  0  0  0  0  0  0  0  0  0
   -5.5594   -5.2833    2.8087 O   0  0  0  0  0  0  0  0  0  0  0  0
   -6.8511   -2.3714    4.0983 N   0  3  0  0  0  0  0  0  0  0  0  0
   -4.6980   -3.0450    3.0682 C   0  0  2  0  0  0  0  0  0  0  0  0
   -3.4886   -2.2599    3.0940 O   0  0  0  0  0  0  0  0  0  0  0  0
   -2.7072    1.7392   -1.3537 C   0  0  2  0  0  0  0  0  0  0  0  0
   -2.5013    3.1786   -1.6350 N   0  3  0  0  0  0  0  0  0  0  0  0
   -4.0282    1.5353   -0.6205 C   0  0  0  0  0  0  0  0  0  0  0  0
   -4.2522    0.0594   -0.3225 C   0  0  2  0  0  0  0  0  0  0  0  0
   -5.5248   -0.0669    0.3736 N   0  3  0  0  0  0  0  0  0  0  0  0
   -3.1072   -0.4749    0.5347 C   0  0  1  0  0  0  0  0  0  0  0  0
   -3.3121   -1.8785    0.7885 O   0  0  0  0  0  0  0  0  0  0  0  0
   -1.7591   -0.2755   -0.1718 C   0  0  2  0  0  0  0  0  0  0  0  0
   -0.6949   -0.6929    0.7046 O   0  0  0  0  0  0  0  0  0  0  0  0
   -1.5347    1.1879   -0.5441 C   0  0  1  0  0  0  0  0  0  0  0  0
   -0.3384    1.3063   -1.3027 O   0  0  0  0  0  0  0  0  0  0  0  0
  1  2  1  0  0  0  0
  3  2  1  1  0  0  0
  3  5  1  0  0  0  0
  3  4  1  0  0  0  0
  4  9  1  0  0  0  0
  5  7  1  0  0  0  0
  5  6  1  6  0  0  0
  7  9  1  0  0  0  0
  7  8  1  6  0  0  0
  9 40  1  1  0  0  0
 10  6  1  1  0  0  0
 10 11  1  0  0  0  0
 10 18  1  0  0  0  0
 11 13  1  0  0  0  0
 11 12  1  1  0  0  0
 13 15  1  0  0  0  0
 13 14  1  6  0  0  0
 15 17  1  0  0  0  0
 15 16  1  1  0  0  0
 17 19  1  1  0  0  0
 17 18  1  0  0  0  0
 19 20  1  0  0  0  0
 21 29  1  0  0  0  0
 22 23  1  0  0  0  0
 22 31  1  0  0  0  0
 22 38  1  6  0  0  0
 23 25  1  0  0  0  0
 23 24  1  6  0  0  0
 25 27  1  0  0  0  0
 25 26  1  1  0  0  0
 27 30  1  0  0  0  0
 27 28  1  6  0  0  0
 30 21  1  1  0  0  0
 30 31  1  0  0  0  0
 32 34  1  0  0  0  0
 32 41  1  0  0  0  0
 32 33  1  1  0  0  0
 34 35  1  0  0  0  0
 35 37  1  0  0  0  0
 35 36  1  1  0  0  0
 37 39  1  0  0  0  0
 37 38  1  6  0  0  0
 39 41  1  0  0  0  0
 39 40  1  1  0  0  0
 41 42  1  6  0  0  0
M  CHG  6  12   1  20   1  24   1  29   1  33   1  36   1
M  END
>  <CHROM.1>
179.14063325,-51.51571373,-179.87547301,-169.82837763,-50.14481171,-112.62527017
83.96048686,176.61203889,62.61021725,60.88815644,19.24116955,-110.91678981
179.64431625,-148.12989488,-42.69272076,-59.59855184,35.20904927,-87.24657152
87.18076613,-156.52412992,161.23919796,73.10789839,-0.41086402,-1.12714606
2.22766670,0.05551319,0.46489797,2.33622496

>  <Name>
1NEM.B

>  <RI>
0

>  <Rbt.Current_Directory>
/home/itssahil/PROJECTS/Mol_Feturizer/New_Systems/rnas/1nem

>  <Rbt.Executable>
rbdock ($Id: //depot/dev/client3/rdock/2013.1/src/exe/rbdock.cxx#4 $)

>  <Rbt.Library>
libRbt.so (2013.1, Build901 2013/11/27)

>  <Rbt.Parameter_File>
/export/apps/rDock/src/rDock_2013.1_src/data/scripts/dock_solv.prm

>  <Rbt.Receptor>
prm/blind_docking_60.prm

>  <SCORE>
-47.2126

>  <SCORE.INTER>
-62.4787

>  <SCORE.INTER.CONST>
1

>  <SCORE.INTER.POLAR>
-9.06842

>  <SCORE.INTER.ROT>
9

>  <SCORE.INTER.SOLV>
46.5415

>  <SCORE.INTER.VDW>
-36.5382

>  <SCORE.INTER.norm>
-1.48759

>  <SCORE.INTRA>
9.66302

>  <SCORE.INTRA.DIHEDRAL>
10.6688

>  <SCORE.INTRA.DIHEDRAL.0>
22.4324

>  <SCORE.INTRA.POLAR>
0.340841

>  <SCORE.INTRA.POLAR.0>
-1.83749

>  <SCORE.INTRA.REPUL>
0.0126866

>  <SCORE.INTRA.REPUL.0>
0

>  <SCORE.INTRA.SOLV>
-0.953443

>  <SCORE.INTRA.SOLV.lig_0>
-160.638

>  <SCORE.INTRA.VDW>
3.58304

>  <SCORE.INTRA.VDW.0>
-7.61953

>  <SCORE.INTRA.norm>
0.230072

>  <SCORE.RESTR>
5.6031

>  <SCORE.RESTR.CAVITY>
5.6031

>  <SCORE.RESTR.norm>
0.133407

>  <SCORE.SYSTEM>
0

>  <SCORE.SYSTEM.CONST>
0

>  <SCORE.SYSTEM.DIHEDRAL>
0

>  <SCORE.SYSTEM.SOLV>
0

>  <SCORE.SYSTEM.norm>
0

>  <SCORE.heavy>
42

>  <SCORE.norm>
-1.12411

>  <RMSD>
1.152

$$$$
1NEM.B
 OpenBabel11021811403D
libRbt.so/2013.1/901 2013/11/27
 42 45  0  0  0  0  0  0  0  0999 V2000
    3.0231   -3.6240    2.6193 O   0  0  0  0  0  0  0  0  0  0  0  0
    1.9042   -3.4399    1.7496 C   0  0  0  0  0  0  0  0  0  0  0  0
    2.0277   -2.1961    0.8708 C   0  0  1  0  0  0  0  0  0  0  0  0
    0.8160   -1.9596    0.1597 O   0  0  0  0  0  0  0  0  0  0  0  0
    2.2400   -0.8985    1.6341 C   0  0  1  0  0  0  0  0  0  0  0  0
    3.5770   -0.9170    2.1395 O   0  0  0  0  0  0  0  0  0  0  0  0
    1.9534    0.0847    0.5147 C   0  0  1  0  0  0  0  0  0  0  0  0
    2.9793    0.0809   -0.4837 O   0  0  0  0  0  0  0  0  0  0  0  0
    0.6742   -0.5530   -0.0398 C   0  0  2  0  0  0  0  0  0  0  0  0
    4.0512    0.2841    2.6780 C   0  0  2  0  0  0  0  0  0  0  0  0
    5.5719    0.1903    2.8626 C   0  0  2  0  0  0  0  0  0  0  0  0
    5.9163   -1.0213    3.6523 N   0  3  0  0  0  0  0  0  0  0  0  0
    6.1219    1.4644    3.5119 C   0  0  1  0  0  0  0  0  0  0  0  0
    6.0535    2.5404    2.5856 O   0  0  0  0  0  0  0  0  0  0  0  0
    5.3359    1.8242    4.7764 C   0  0  2  0  0  0  0  0  0  0  0  0
    5.5791    0.8661    5.7986 O   0  0  0  0  0  0  0  0  0  0  0  0
    3.8447    1.8768    4.4562 C   0  0  1  0  0  0  0  0  0  0  0  0
    3.4210    0.6131    3.9091 O   0  0  0  0  0  0  0  0  0  0  0  0
    2.9816    2.1752    5.6695 C   0  0  0  0  0  0  0  0  0  0  0  0
    1.5408    2.1895    5.3324 N   0  3  0  0  0  0  0  0  0  0  0  0
   -6.2224   -3.9604    2.4732 C   0  0  0  0  0  0  0  0  0  0  0  0
   -3.1174   -1.9390    2.4841 C   0  0  2  0  0  0  0  0  0  0  0  0
   -2.0880   -2.9836    2.9086 C   0  0  2  0  0  0  0  0  0  0  0  0
   -0.7229   -2.5377    2.5410 N   0  3  0  0  0  0  0  0  0  0  0  0
   -2.3826   -4.3158    2.2322 C   0  0  1  0  0  0  0  0  0  0  0  0
   -1.4669   -5.2969    2.6941 O   0  0  0  0  0  0  0  0  0  0  0  0
   -3.8142   -4.7434    2.5476 C   0  0  2  0  0  0  0  0  0  0  0  0
   -4.1200   -5.9517    1.8635 O   0  0  0  0  0  0  0  0  0  0  0  0
   -6.4693   -3.7835    3.9226 N   0  3  0  0  0  0  0  0  0  0  0  0
   -4.7817   -3.6452    2.1105 C   0  0  2  0  0  0  0  0  0  0  0  0
   -4.4396   -2.3992    2.7510 O   0  0  0  0  0  0  0  0  0  0  0  0
   -2.9466    1.9743   -1.1337 C   0  0  2  0  0  0  0  0  0  0  0  0
   -2.9198    3.4175   -1.4648 N   0  3  0  0  0  0  0  0  0  0  0  0
   -4.1467    1.6656   -0.2456 C   0  0  0  0  0  0  0  0  0  0  0  0
   -4.1859    0.1848    0.1049 C   0  0  2  0  0  0  0  0  0  0  0  0
   -5.3503   -0.0431    0.9489 N   0  3  0  0  0  0  0  0  0  0  0  0
   -2.9017   -0.2091    0.8308 C   0  0  1  0  0  0  0  0  0  0  0  0
   -2.9343   -1.6175    1.1339 O   0  0  0  0  0  0  0  0  0  0  0  0
   -1.6712    0.0985   -0.0338 C   0  0  2  0  0  0  0  0  0  0  0  0
   -0.4763   -0.1863    0.7185 O   0  0  0  0  0  0  0  0  0  0  0  0
   -1.6390    1.5647   -0.4580 C   0  0  1  0  0  0  0  0  0  0  0  0
   -0.5565    1.7754   -1.3547 O   0  0  0  0  0  0  0  0  0  0  0  0
  1  2  1  0  0  0  0
  3  2  1  1  0  0  0
  3  5  1  0  0  0  0
  3  4  1  0  0  0  0
  4  9  1  0  0  0  0
  5  7  1  0  0  0  0
  5  6  1  6  0  0  0
  7  9  1  0  0  0  0
  7  8  1  6  0  0  0
  9 40  1  1  0  0  0
 10  6  1  1  0  0  0
 10 11  1  0  0  0  0
 10 18  1  0  0  0  0
 11 13  1  0  0  0  0
 11 12  1  1  0  0  0
 13 15  1  0  0  0  0
 13 14  1  6  0  0  0
 15 17  1  0  0  0  0
 15 16  1  1  0  0  0
 17 19  1  1  0  0  0
 17 18  1  0  0  0  0
 19 20  1  0  0  0  0
 21 29  1  0  0  0  0
 22 23  1  0  0  0  0
 22 31  1  0  0  0  0
 22 38  1  6  0  0  0
 23 25  1  0  0  0  0
 23 24  1  6  0  0  0
 25 27  1  0  0  0  0
 25 26  1  1  0  0  0
 27 30  1  0  0  0  0
 27 28  1  6  0  0  0
 30 21  1  1  0  0  0
 30 31  1  0  0  0  0
 32 34  1  0  0  0  0
 32 41  1  0  0  0  0
 32 33  1  1  0  0  0
 34 35  1  0  0  0  0
 35 37  1  0  0  0  0
 35 36  1  1  0  0  0
 37 39  1  0  0  0  0
 37 38  1  6  0  0  0
 39 41  1  0  0  0  0
 39 40  1  1  0  0  0
 41 42  1  6  0  0  0
M  CHG  6  12   1  20   1  24   1  29   1  33   1  36   1
M  END
>  <CHROM.1>
-51.58292322,-172.12600929,169.41806788,-166.76541485,55.41029922,-105.77975596
-79.64653181,-65.30970832,-97.43926698,-178.72651654,-55.44813738,74.52787795
169.04568927,-131.83462683,28.63846650,-62.86767247,-60.05473621,-108.76082398
-17.57507018,-108.09963781,152.16408684,64.12255832,0.02026708,-0.80946583
1.96903804,-0.19983416,0.33539894,2.64754549

>  <Name>
1NEM.B

>  <RI>
0

>  <Rbt.Current_Directory>
/home/itssahil/PROJECTS/Mol_Feturizer/New_Systems/rnas/1nem

>  <Rbt.Executable>
rbdock ($Id: //depot/dev/client3/rdock/2013.1/src/exe/rbdock.cxx#4 $)

>  <Rbt.Library>
libRbt.so (2013.1, Build901 2013/11/27)

>  <Rbt.Parameter_File>
/export/apps/rDock/src/rDock_2013.1_src/data/scripts/dock_solv.prm

>  <Rbt.Receptor>
prm/pocket_docking_2.prm

>  <SCORE>
-40.4645

>  <SCORE.INTER>
-56.4983

>  <SCORE.INTER.CONST>
1

>  <SCORE.INTER.POLAR>
-7.85807

>  <SCORE.INTER.ROT>
9

>  <SCORE.INTER.SOLV>
41.6959

>  <SCORE.INTER.VDW>
-34.9706

>  <SCORE.INTER.norm>
-1.3452

>  <SCORE.INTRA>
15.1736

>  <SCORE.INTRA.DIHEDRAL>
18.05

>  <SCORE.INTRA.DIHEDRAL.0>
22.4324

>  <SCORE.INTRA.POLAR>
-0.191135

>  <SCORE.INTRA.POLAR.0>
-1.83749

>  <SCORE.INTRA.REPUL>
0

>  <SCORE.INTRA.REPUL.0>
0

>  <SCORE.INTRA.SOLV>
2.73761

>  <SCORE.INTRA.SOLV.lig_0>
-160.638

>  <SCORE.INTRA.VDW>
5.42965

>  <SCORE.INTRA.VDW.0>
-7.61953

>  <SCORE.INTRA.norm>
0.361277

>  <SCORE.RESTR>
0.860171

>  <SCORE.RESTR.CAVITY>
0.860171

>  <SCORE.RESTR.norm>
0.0204803

>  <SCORE.SYSTEM>
0

>  <SCORE.SYSTEM.CONST>
0

>  <SCORE.SYSTEM.DIHEDRAL>
0

>  <SCORE.SYSTEM.SOLV>
0

>  <SCORE.SYSTEM.norm>
0

>  <SCORE.heavy>
42

>  <SCORE.norm>
-0.963441

>  <RMSD>
1.162

$$$$
1NEM.B
 OpenBabel11021811403D
libRbt.so/2013.1/901 2013/11/27
 42 45  0  0  0  0  0  0  0  0999 V2000
    2.1339   -5.1500    1.9377 O   0  0  0  0  0  0  0  0  0  0  0  0
    2.3405   -3.8668    2.5316 C   0  0  0  0  0  0  0  0  0  0  0  0
    2.4030   -2.7359    1.5059 C   0  0  1  0  0  0  0  0  0  0  0  0
    1.2163   -2.7043    0.7183 O   0  0  0  0  0  0  0  0  0  0  0  0
    2.4588   -1.3392    2.1041 C   0  0  1  0  0  0  0  0  0  0  0  0
    3.7624   -1.1693    2.6653 O   0  0  0  0  0  0  0  0  0  0  0  0
    2.1494   -0.5341    0.8559 C   0  0  1  0  0  0  0  0  0  0  0  0
    3.2250   -0.5660   -0.0881 O   0  0  0  0  0  0  0  0  0  0  0  0
    0.9632   -1.3529    0.3331 C   0  0  2  0  0  0  0  0  0  0  0  0
    4.0473    0.0932    3.1964 C   0  0  2  0  0  0  0  0  0  0  0  0
    5.5663    0.3125    3.1934 C   0  0  2  0  0  0  0  0  0  0  0  0
    6.2463   -0.8167    3.8811 N   0  3  0  0  0  0  0  0  0  0  0  0
    5.9240    1.6600    3.8287 C   0  0  1  0  0  0  0  0  0  0  0  0
    5.5223    2.7163    2.9664 O   0  0  0  0  0  0  0  0  0  0  0  0
    5.2475    1.8251    5.1930 C   0  0  2  0  0  0  0  0  0  0  0  0
    5.8072    0.9184    6.1348 O   0  0  0  0  0  0  0  0  0  0  0  0
    3.7484    1.5742    5.0563 C   0  0  1  0  0  0  0  0  0  0  0  0
    3.5242    0.2610    4.5076 O   0  0  0  0  0  0  0  0  0  0  0  0
    3.0031    1.6642    6.3763 C   0  0  0  0  0  0  0  0  0  0  0  0
    1.6496    1.0725    6.2878 N   0  3  0  0  0  0  0  0  0  0  0  0
   -6.3146   -2.2491    3.8898 C   0  0  0  0  0  0  0  0  0  0  0  0
   -2.8673   -2.0542    2.5463 C   0  0  2  0  0  0  0  0  0  0  0  0
   -2.4725   -3.5290    2.5342 C   0  0  2  0  0  0  0  0  0  0  0  0
   -1.3273   -3.7462    1.6183 N   0  3  0  0  0  0  0  0  0  0  0  0
   -3.6491   -4.3834    2.0818 C   0  0  1  0  0  0  0  0  0  0  0  0
   -3.2943   -5.7560    2.1492 O   0  0  0  0  0  0  0  0  0  0  0  0
   -4.8549   -4.1079    2.9774 C   0  0  2  0  0  0  0  0  0  0  0  0
   -5.9777   -4.8500    2.5190 O   0  0  0  0  0  0  0  0  0  0  0  0
   -5.8606   -2.1983    5.2984 N   0  3  0  0  0  0  0  0  0  0  0  0
   -5.1785   -2.6153    2.9507 C   0  0  2  0  0  0  0  0  0  0  0  0
   -4.0242   -1.8503    3.3532 O   0  0  0  0  0  0  0  0  0  0  0  0
   -1.8207    1.8118   -0.9673 C   0  0  2  0  0  0  0  0  0  0  0  0
   -1.3298    3.1757   -1.2709 N   0  3  0  0  0  0  0  0  0  0  0  0
   -3.1091    1.8903   -0.1561 C   0  0  0  0  0  0  0  0  0  0  0  0
   -3.6244    0.4945    0.1654 C   0  0  2  0  0  0  0  0  0  0  0  0
   -4.8514    0.6387    0.9362 N   0  3  0  0  0  0  0  0  0  0  0  0
   -2.5710   -0.2761    0.9578 C   0  0  1  0  0  0  0  0  0  0  0  0
   -3.0550   -1.6051    1.2336 O   0  0  0  0  0  0  0  0  0  0  0  0
   -1.2556   -0.3649    0.1718 C   0  0  2  0  0  0  0  0  0  0  0  0
   -0.2549   -1.0041    0.9871 O   0  0  0  0  0  0  0  0  0  0  0  0
   -0.7469    1.0190   -0.2240 C   0  0  1  0  0  0  0  0  0  0  0  0
    0.4003    0.8837   -1.0525 O   0  0  0  0  0  0  0  0  0  0  0  0
  1  2  1  0  0  0  0
  3  2  1  1  0  0  0
  3  5  1  0  0  0  0
  3  4  1  0  0  0  0
  4  9  1  0  0  0  0
  5  7  1  0  0  0  0
  5  6  1  6  0  0  0
  7  9  1  0  0  0  0
  7  8  1  6  0  0  0
  9 40  1  1  0  0  0
 10  6  1  1  0  0  0
 10 11  1  0  0  0  0
 10 18  1  0  0  0  0
 11 13  1  0  0  0  0
 11 12  1  1  0  0  0
 13 15  1  0  0  0  0
 13 14  1  6  0  0  0
 15 17  1  0  0  0  0
 15 16  1  1  0  0  0
 17 19  1  1  0  0  0
 17 18  1  0  0  0  0
 19 20  1  0  0  0  0
 21 29  1  0  0  0  0
 22 23  1  0  0  0  0
 22 31  1  0  0  0  0
 22 38  1  6  0  0  0
 23 25  1  0  0  0  0
 23 24  1  6  0  0  0
 25 27  1  0  0  0  0
 25 26  1  1  0  0  0
 27 30  1  0  0  0  0
 27 28  1  6  0  0  0
 30 21  1  1  0  0  0
 30 31  1  0  0  0  0
 32 34  1  0  0  0  0
 32 41  1  0  0  0  0
 32 33  1  1  0  0  0
 34 35  1  0  0  0  0
 35 37  1  0  0  0  0
 35 36  1  1  0  0  0
 37 39  1  0  0  0  0
 37 38  1  6  0  0  0
 39 41  1  0  0  0  0
 39 40  1  1  0  0  0
 41 42  1  6  0  0  0
M  CHG  6  12   1  20   1  24   1  29   1  33   1  36   1
M  END
>  <CHROM.1>
-163.77321317,57.01172173,176.09564100,-155.91156411,-53.67425038,-132.14458204
157.00095422,-60.31299860,-159.20625568,-164.70207284,-5.43765860,77.31286700
88.81638212,-140.68177825,33.48987110,-67.95335172,-57.05978738,-54.32664055
49.26428292,-134.59941057,170.50572451,-53.49787809,0.07582366,-0.94687144
2.29760016,-0.15181095,0.33674594,2.50497366

>  <Name>
1NEM.B

>  <RI>
0

>  <Rbt.Current_Directory>
/home/itssahil/PROJECTS/Mol_Feturizer/New_Systems/rnas/1nem

>  <Rbt.Executable>
rbdock ($Id: //depot/dev/client3/rdock/2013.1/src/exe/rbdock.cxx#4 $)

>  <Rbt.Library>
libRbt.so (2013.1, Build901 2013/11/27)

>  <Rbt.Parameter_File>
/export/apps/rDock/src/rDock_2013.1_src/data/scripts/dock_solv.prm

>  <Rbt.Receptor>
prm/pocket_docking_2.prm

>  <SCORE>
-42.8198

>  <SCORE.INTER>
-49.1194

>  <SCORE.INTER.CONST>
1

>  <SCORE.INTER.POLAR>
-5.47524

>  <SCORE.INTER.ROT>
9

>  <SCORE.INTER.SOLV>
38.0506

>  <SCORE.INTER.VDW>
-36.779

>  <SCORE.INTER.norm>
-1.16951

>  <SCORE.INTRA>
5.99022

>  <SCORE.INTRA.DIHEDRAL>
13.2195

>  <SCORE.INTRA.DIHEDRAL.0>
22.4324

>  <SCORE.INTRA.POLAR>
-0.956158

>  <SCORE.INTRA.POLAR.0>
-1.83749

>  <SCORE.INTRA.REPUL>
0

>  <SCORE.INTRA.REPUL.0>
0

>  <SCORE.INTRA.SOLV>
-0.792002

>  <SCORE.INTRA.SOLV.lig_0>
-160.638

>  <SCORE.INTRA.VDW>
3.02742

>  <SCORE.INTRA.VDW.0>
-7.61953

>  <SCORE.INTRA.norm>
0.142624

>  <SCORE.RESTR>
0.309373

>  <SCORE.RESTR.CAVITY>
0.309373

>  <SCORE.RESTR.norm>
0.00736602

>  <SCORE.SYSTEM>
0

>  <SCORE.SYSTEM.CONST>
0

>  <SCORE.SYSTEM.DIHEDRAL>
0

>  <SCORE.SYSTEM.SOLV>
0

>  <SCORE.SYSTEM.norm>
0

>  <SCORE.heavy>
42

>  <SCORE.norm>
-1.01952

>  <RMSD>
1.169

$$$$
1NEM.B
 OpenBabel11021811403D
libRbt.so/2013.1/901 2013/11/27
 42 45  0  0  0  0  0  0  0  0999 V2000
    2.4729   -4.1206    2.7688 O   0  0  0  0  0  0  0  0  0  0  0  0
    1.4661   -3.8113    1.8029 C   0  0  0  0  0  0  0  0  0  0  0  0
    1.7592   -2.5309    1.0223 C   0  0  1  0  0  0  0  0  0  0  0  0
    0.6659   -2.1985    0.1715 O   0  0  0  0  0  0  0  0  0  0  0  0
    1.9200   -1.2869    1.8813 C   0  0  1  0  0  0  0  0  0  0  0  0
    3.1743   -1.3972    2.5580 O   0  0  0  0  0  0  0  0  0  0  0  0
    1.8289   -0.2337    0.7930 C   0  0  1  0  0  0  0  0  0  0  0  0
    2.9794   -0.2359   -0.0587 O   0  0  0  0  0  0  0  0  0  0  0  0
    0.6111   -0.7782    0.0371 C   0  0  2  0  0  0  0  0  0  0  0  0
    3.5531   -0.3014    3.3409 C   0  0  2  0  0  0  0  0  0  0  0  0
    5.0362   -0.4336    3.7126 C   0  0  2  0  0  0  0  0  0  0  0  0
    5.2897   -1.7586    4.3375 N   0  3  0  0  0  0  0  0  0  0  0  0
    5.4741    0.7160    4.6259 C   0  0  1  0  0  0  0  0  0  0  0  0
    5.5147    1.9273    3.8831 O   0  0  0  0  0  0  0  0  0  0  0  0
    4.5193    0.8732    5.8133 C   0  0  2  0  0  0  0  0  0  0  0  0
    4.6373   -0.2383    6.6924 O   0  0  0  0  0  0  0  0  0  0  0  0
    3.0843    0.9863    5.3066 C   0  0  1  0  0  0  0  0  0  0  0  0
    2.7577   -0.1704    4.5119 O   0  0  0  0  0  0  0  0  0  0  0  0
    2.0610    1.0916    6.4237 C   0  0  0  0  0  0  0  0  0  0  0  0
    2.1230    2.4023    7.1078 N   0  3  0  0  0  0  0  0  0  0  0  0
   -5.4494   -2.0335    4.0979 C   0  0  0  0  0  0  0  0  0  0  0  0
   -2.7316   -2.1123    1.5811 C   0  0  2  0  0  0  0  0  0  0  0  0
   -2.6483   -3.6077    1.2849 C   0  0  2  0  0  0  0  0  0  0  0  0
   -1.9645   -3.8371   -0.0102 N   0  3  0  0  0  0  0  0  0  0  0  0
   -4.0457   -4.2106    1.2311 C   0  0  1  0  0  0  0  0  0  0  0  0
   -3.9518   -5.6129    1.0326 O   0  0  0  0  0  0  0  0  0  0  0  0
   -4.7813   -3.9127    2.5357 C   0  0  2  0  0  0  0  0  0  0  0  0
   -6.1107   -4.4123    2.4665 O   0  0  0  0  0  0  0  0  0  0  0  0
   -4.4355   -1.8820    5.1665 N   0  3  0  0  0  0  0  0  0  0  0  0
   -4.8099   -2.4037    2.7710 C   0  0  2  0  0  0  0  0  0  0  0  0
   -3.4672   -1.8775    2.7789 O   0  0  0  0  0  0  0  0  0  0  0  0
   -2.4072    2.3640   -1.1814 C   0  0  2  0  0  0  0  0  0  0  0  0
   -2.1204    3.8137   -1.2787 N   0  3  0  0  0  0  0  0  0  0  0  0
   -3.7709    2.1448   -0.5360 C   0  0  0  0  0  0  0  0  0  0  0  0
   -4.0782    0.6578   -0.4273 C   0  0  2  0  0  0  0  0  0  0  0  0
   -5.3882    0.5174    0.1927 N   0  3  0  0  0  0  0  0  0  0  0  0
   -3.0033   -0.0329    0.4086 C   0  0  1  0  0  0  0  0  0  0  0  0
   -3.2861   -1.4439    0.4830 O   0  0  0  0  0  0  0  0  0  0  0  0
   -1.6141    0.1773   -0.2096 C   0  0  2  0  0  0  0  0  0  0  0  0
   -0.6153   -0.3954    0.6558 O   0  0  0  0  0  0  0  0  0  0  0  0
   -1.3032    1.6606   -0.3936 C   0  0  1  0  0  0  0  0  0  0  0  0
   -0.0667    1.8045   -1.0797 O   0  0  0  0  0  0  0  0  0  0  0  0
  1  2  1  0  0  0  0
  3  2  1  1  0  0  0
  3  5  1  0  0  0  0
  3  4  1  0  0  0  0
  4  9  1  0  0  0  0
  5  7  1  0  0  0  0
  5  6  1  6  0  0  0
  7  9  1  0  0  0  0
  7  8  1  6  0  0  0
  9 40  1  1  0  0  0
 10  6  1  1  0  0  0
 10 11  1  0  0  0  0
 10 18  1  0  0  0  0
 11 13  1  0  0  0  0
 11 12  1  1  0  0  0
 13 15  1  0  0  0  0
 13 14  1  6  0  0  0
 15 17  1  0  0  0  0
 15 16  1  1  0  0  0
 17 19  1  1  0  0  0
 17 18  1  0  0  0  0
 19 20  1  0  0  0  0
 21 29  1  0  0  0  0
 22 23  1  0  0  0  0
 22 31  1  0  0  0  0
 22 38  1  6  0  0  0
 23 25  1  0  0  0  0
 23 24  1  6  0  0  0
 25 27  1  0  0  0  0
 25 26  1  1  0  0  0
 27 30  1  0  0  0  0
 27 28  1  6  0  0  0
 30 21  1  1  0  0  0
 30 31  1  0  0  0  0
 32 34  1  0  0  0  0
 32 41  1  0  0  0  0
 32 33  1  1  0  0  0
 34 35  1  0  0  0  0
 35 37  1  0  0  0  0
 35 36  1  1  0  0  0
 37 39  1  0  0  0  0
 37 38  1  6  0  0  0
 39 41  1  0  0  0  0
 39 40  1  1  0  0  0
 41 42  1  6  0  0  0
M  CHG  6  12   1  20   1  24   1  29   1  33   1  36   1
M  END
>  <CHROM.1>
-179.45632138,-174.22217864,176.02245391,-166.52270520,-62.47416206,-114.85618778
-163.22562228,-58.60773709,66.11188264,71.21950600,33.75597134,93.92051938
31.05121359,-158.98646141,-73.96900923,179.31345246,70.35399408,178.39794920
-9.98609040,-156.55677148,155.47223816,67.83065917,-0.24958985,-0.87330252
2.12886606,0.05126788,0.43677841,2.48452165

>  <Name>
1NEM.B

>  <RI>
0

>  <Rbt.Current_Directory>
/home/itssahil/PROJECTS/Mol_Feturizer/New_Systems/rnas/1nem

>  <Rbt.Executable>
rbdock ($Id: //depot/dev/client3/rdock/2013.1/src/exe/rbdock.cxx#4 $)

>  <Rbt.Library>
libRbt.so (2013.1, Build901 2013/11/27)

>  <Rbt.Parameter_File>
/export/apps/rDock/src/rDock_2013.1_src/data/scripts/dock_solv.prm

>  <Rbt.Receptor>
prm/pocket_docking_3.prm

>  <SCORE>
-50.9352

>  <SCORE.INTER>
-55.2287

>  <SCORE.INTER.CONST>
1

>  <SCORE.INTER.POLAR>
-7.59315

>  <SCORE.INTER.ROT>
9

>  <SCORE.INTER.SOLV>
52.0999

>  <SCORE.INTER.VDW>
-38.4753

>  <SCORE.INTER.norm>
-1.31497

>  <SCORE.INTRA>
4.29347

>  <SCORE.INTRA.DIHEDRAL>
5.6968

>  <SCORE.INTRA.DIHEDRAL.0>
22.4324

>  <SCORE.INTRA.POLAR>
0.35178

>  <SCORE.INTRA.POLAR.0>
-1.83749

>  <SCORE.INTRA.REPUL>
0.0220777

>  <SCORE.INTRA.REPUL.0>
0

>  <SCORE.INTRA.SOLV>
-4.42032

>  <SCORE.INTRA.SOLV.lig_0>
-160.638

>  <SCORE.INTRA.VDW>
2.34879

>  <SCORE.INTRA.VDW.0>
-7.61953

>  <SCORE.INTRA.norm>
0.102225

>  <SCORE.RESTR>
0

>  <SCORE.RESTR.CAVITY>
0

>  <SCORE.RESTR.norm>
0

>  <SCORE.SYSTEM>
0

>  <SCORE.SYSTEM.CONST>
0

>  <SCORE.SYSTEM.DIHEDRAL>
0

>  <SCORE.SYSTEM.SOLV>
0

>  <SCORE.SYSTEM.norm>
0

>  <SCORE.heavy>
42

>  <SCORE.norm>
-1.21274

>  <RMSD>
1.169

$$$$
1NEM.B
 OpenBabel11021811403D
libRbt.so/2013.1/901 2013/11/27
 42 45  0  0  0  0  0  0  0  0999 V2000
    1.0971   -3.8187    2.5835 O   0  0  0  0  0  0  0  0  0  0  0  0
    2.2530   -3.6357    1.7633 C   0  0  0  0  0  0  0  0  0  0  0  0
    2.1257   -2.4519    0.8056 C   0  0  1  0  0  0  0  0  0  0  0  0
    0.8554   -2.4602    0.1608 O   0  0  0  0  0  0  0  0  0  0  0  0
    2.1654   -1.0873    1.4748 C   0  0  1  0  0  0  0  0  0  0  0  0
    3.5128   -0.8587    1.8937 O   0  0  0  0  0  0  0  0  0  0  0  0
    1.6635   -0.2418    0.3193 C   0  0  1  0  0  0  0  0  0  0  0  0
    2.6213   -0.1523   -0.7408 O   0  0  0  0  0  0  0  0  0  0  0  0
    0.4768   -1.1110   -0.1130 C   0  0  2  0  0  0  0  0  0  0  0  0
    3.7616    0.3566    2.5404 C   0  0  2  0  0  0  0  0  0  0  0  0
    5.1625    0.3195    3.1661 C   0  0  2  0  0  0  0  0  0  0  0  0
    5.3039   -0.8823    4.0299 N   0  3  0  0  0  0  0  0  0  0  0  0
    5.4483    1.6101    3.9407 C   0  0  1  0  0  0  0  0  0  0  0  0
    5.6159    2.6874    3.0286 O   0  0  0  0  0  0  0  0  0  0  0  0
    4.3112    1.9337    4.9147 C   0  0  2  0  0  0  0  0  0  0  0  0
    4.2778    0.9803    5.9692 O   0  0  0  0  0  0  0  0  0  0  0  0
    2.9800    1.9315    4.1685 C   0  0  1  0  0  0  0  0  0  0  0  0
    2.7843    0.6554    3.5287 O   0  0  0  0  0  0  0  0  0  0  0  0
    1.7868    2.1910    5.0712 C   0  0  0  0  0  0  0  0  0  0  0  0
    0.9240    3.2739    4.5487 N   0  3  0  0  0  0  0  0  0  0  0  0
   -5.6657   -2.0097    4.7734 C   0  0  0  0  0  0  0  0  0  0  0  0
   -2.7446   -2.4050    2.5288 C   0  0  2  0  0  0  0  0  0  0  0  0
   -2.5436   -3.9178    2.5715 C   0  0  2  0  0  0  0  0  0  0  0  0
   -1.7394   -4.3617    1.4079 N   0  3  0  0  0  0  0  0  0  0  0  0
   -3.8911   -4.6270    2.5533 C   0  0  1  0  0  0  0  0  0  0  0  0
   -3.6936   -6.0276    2.6716 O   0  0  0  0  0  0  0  0  0  0  0  0
   -4.7518   -4.1185    3.7075 C   0  0  2  0  0  0  0  0  0  0  0  0
   -6.0368   -4.7249    3.6566 O   0  0  0  0  0  0  0  0  0  0  0  0
   -4.8786   -2.0599    6.0268 N   0  3  0  0  0  0  0  0  0  0  0  0
   -4.8941   -2.6010    3.6064 C   0  0  2  0  0  0  0  0  0  0  0  0
   -3.5924   -1.9806    3.5929 O   0  0  0  0  0  0  0  0  0  0  0  0
   -3.0015    1.4915   -1.0862 C   0  0  2  0  0  0  0  0  0  0  0  0
   -2.8407    2.9160   -1.4579 N   0  3  0  0  0  0  0  0  0  0  0  0
   -4.1773    1.3323   -0.1289 C   0  0  0  0  0  0  0  0  0  0  0  0
   -4.3532   -0.1278    0.2639 C   0  0  2  0  0  0  0  0  0  0  0  0
   -5.4874   -0.2115    1.1731 N   0  3  0  0  0  0  0  0  0  0  0  0
   -3.0801   -0.6407    0.9328 C   0  0  1  0  0  0  0  0  0  0  0  0
   -3.2445   -2.0305    1.2758 O   0  0  0  0  0  0  0  0  0  0  0  0
   -1.8730   -0.4853   -0.0026 C   0  0  2  0  0  0  0  0  0  0  0  0
   -0.6757   -0.8795    0.6942 O   0  0  0  0  0  0  0  0  0  0  0  0
   -1.7095    0.9594   -0.4682 C   0  0  1  0  0  0  0  0  0  0  0  0
   -0.6613    1.0336   -1.4254 O   0  0  0  0  0  0  0  0  0  0  0  0
  1  2  1  0  0  0  0
  3  2  1  1  0  0  0
  3  5  1  0  0  0  0
  3  4  1  0  0  0  0
  4  9  1  0  0  0  0
  5  7  1  0  0  0  0
  5  6  1  6  0  0  0
  7  9  1  0  0  0  0
  7  8  1  6  0  0  0
  9 40  1  1  0  0  0
 10  6  1  1  0  0  0
 10 11  1  0  0  0  0
 10 18  1  0  0  0  0
 11 13  1  0  0  0  0
 11 12  1  1  0  0  0
 13 15  1  0  0  0  0
 13 14  1  6  0  0  0
 15 17  1  0  0  0  0
 15 16  1  1  0  0  0
 17 19  1  1  0  0  0
 17 18  1  0  0  0  0
 19 20  1  0  0  0  0
 21 29  1  0  0  0  0
 22 23  1  0  0  0  0
 22 31  1  0  0  0  0
 22 38  1  6  0  0  0
 23 25  1  0  0  0  0
 23 24  1  6  0  0  0
 25 27  1  0  0  0  0
 25 26  1  1  0  0  0
 27 30  1  0  0  0  0
 27 28  1  6  0  0  0
 30 21  1  1  0  0  0
 30 31  1  0  0  0  0
 32 34  1  0  0  0  0
 32 41  1  0  0  0  0
 32 33  1  1  0  0  0
 34 35  1  0  0  0  0
 35 37  1  0  0  0  0
 35 36  1  1  0  0  0
 37 39  1  0  0  0  0
 37 38  1  6  0  0  0
 39 41  1  0  0  0  0
 39 40  1  1  0  0  0
 41 42  1  6  0  0  0
M  CHG  6  12   1  20   1  24   1  29   1  33   1  36   1
M  END
>  <CHROM.1>
-64.90189946,-45.75192156,-179.92425918,168.65118489,-173.66087787,-121.86106135
55.25228205,64.70836970,78.22109601,128.69091420,-166.91531579,70.98486213
169.42262045,-160.74493385,-37.95900829,162.37013629,177.10620183,20.80758720
-8.28399613,-138.38392637,165.05118866,74.43098257,-0.39375210,-0.86779644
2.16377476,-0.21332381,0.34687049,2.37920071

>  <Name>
1NEM.B

>  <RI>
0

>  <Rbt.Current_Directory>
/home/itssahil/PROJECTS/Mol_Feturizer/New_Systems/rnas/1nem

>  <Rbt.Executable>
rbdock ($Id: //depot/dev/client3/rdock/2013.1/src/exe/rbdock.cxx#4 $)

>  <Rbt.Library>
libRbt.so (2013.1, Build901 2013/11/27)

>  <Rbt.Parameter_File>
/export/apps/rDock/src/rDock_2013.1_src/data/scripts/dock_solv.prm

>  <Rbt.Receptor>
prm/pocket_docking_7.prm

>  <SCORE>
-45.2047

>  <SCORE.INTER>
-53.5719

>  <SCORE.INTER.CONST>
1

>  <SCORE.INTER.POLAR>
-7.52741

>  <SCORE.INTER.ROT>
9

>  <SCORE.INTER.SOLV>
42.7594

>  <SCORE.INTER.VDW>
-34.4764

>  <SCORE.INTER.norm>
-1.27552

>  <SCORE.INTRA>
8.36728

>  <SCORE.INTRA.DIHEDRAL>
12.8896

>  <SCORE.INTRA.DIHEDRAL.0>
22.4324

>  <SCORE.INTRA.POLAR>
-0.0857436

>  <SCORE.INTRA.POLAR.0>
-1.83749

>  <SCORE.INTRA.REPUL>
0

>  <SCORE.INTRA.REPUL.0>
0

>  <SCORE.INTRA.SOLV>
-2.77774

>  <SCORE.INTRA.SOLV.lig_0>
-160.638

>  <SCORE.INTRA.VDW>
3.60286

>  <SCORE.INTRA.VDW.0>
-7.61953

>  <SCORE.INTRA.norm>
0.199221

>  <SCORE.RESTR>
0

>  <SCORE.RESTR.CAVITY>
0

>  <SCORE.RESTR.norm>
0

>  <SCORE.SYSTEM>
0

>  <SCORE.SYSTEM.CONST>
0

>  <SCORE.SYSTEM.DIHEDRAL>
0

>  <SCORE.SYSTEM.SOLV>
0

>  <SCORE.SYSTEM.norm>
0

>  <SCORE.heavy>
42

>  <SCORE.norm>
-1.0763

>  <RMSD>
1.173

$$$$
1NEM.B
 OpenBabel11021811403D
libRbt.so/2013.1/901 2013/11/27
 42 45  0  0  0  0  0  0  0  0999 V2000
    3.3874   -2.0203   -2.0322 O   0  0  0  0  0  0  0  0  0  0  0  0
    3.2541   -2.0149   -0.6095 C   0  0  0  0  0  0  0  0  0  0  0  0
    2.9002   -0.6390   -0.0469 C   0  0  1  0  0  0  0  0  0  0  0  0
    1.7060   -0.1427   -0.6443 O   0  0  0  0  0  0  0  0  0  0  0  0
    2.5759   -0.6251    1.4384 C   0  0  1  0  0  0  0  0  0  0  0  0
    3.8046   -0.8168    2.1433 O   0  0  0  0  0  0  0  0  0  0  0  0
    1.9505    0.7540    1.5318 C   0  0  1  0  0  0  0  0  0  0  0  0
    2.9156    1.7976    1.3630 O   0  0  0  0  0  0  0  0  0  0  0  0
    1.0314    0.6813    0.3067 C   0  0  2  0  0  0  0  0  0  0  0  0
    4.1132    0.1373    3.1188 C   0  0  2  0  0  0  0  0  0  0  0  0
    5.5567   -0.0746    3.5951 C   0  0  2  0  0  0  0  0  0  0  0  0
    5.7507   -1.4846    4.0244 N   0  3  0  0  0  0  0  0  0  0  0  0
    5.9126    0.9114    4.7125 C   0  0  1  0  0  0  0  0  0  0  0  0
    6.0219    2.2229    4.1754 O   0  0  0  0  0  0  0  0  0  0  0  0
    4.8551    0.8964    5.8206 C   0  0  2  0  0  0  0  0  0  0  0  0
    4.8916   -0.3404    6.5215 O   0  0  0  0  0  0  0  0  0  0  0  0
    3.4717    1.1097    5.2127 C   0  0  1  0  0  0  0  0  0  0  0  0
    3.2159    0.0966    4.2208 O   0  0  0  0  0  0  0  0  0  0  0  0
    2.3522    1.0555    6.2374 C   0  0  0  0  0  0  0  0  0  0  0  0
    1.9794    2.4038    6.7201 N   0  3  0  0  0  0  0  0  0  0  0  0
   -4.9929   -2.5997    3.9599 C   0  0  0  0  0  0  0  0  0  0  0  0
   -2.0533   -2.0569    1.7710 C   0  0  2  0  0  0  0  0  0  0  0  0
   -1.5926   -3.4933    1.5357 C   0  0  2  0  0  0  0  0  0  0  0  0
   -0.7267   -3.5643    0.3346 N   0  3  0  0  0  0  0  0  0  0  0  0
   -2.7966   -4.4058    1.3440 C   0  0  1  0  0  0  0  0  0  0  0  0
   -2.3587   -5.7486    1.2039 O   0  0  0  0  0  0  0  0  0  0  0  0
   -3.7296   -4.2802    2.5463 C   0  0  2  0  0  0  0  0  0  0  0  0
   -4.8899   -5.0765    2.3436 O   0  0  0  0  0  0  0  0  0  0  0  0
   -5.5008   -1.2104    4.0292 N   0  3  0  0  0  0  0  0  0  0  0  0
   -4.1334   -2.8182    2.7269 C   0  0  2  0  0  0  0  0  0  0  0  0
   -2.9592   -1.9933    2.8694 O   0  0  0  0  0  0  0  0  0  0  0  0
   -2.5683    2.3181   -1.1753 C   0  0  2  0  0  0  0  0  0  0  0  0
   -2.5680    3.7928   -1.3113 N   0  3  0  0  0  0  0  0  0  0  0  0
   -3.8274    1.8623   -0.4465 C   0  0  0  0  0  0  0  0  0  0  0  0
   -3.8402    0.3474   -0.2973 C   0  0  2  0  0  0  0  0  0  0  0  0
   -5.0631   -0.0214    0.4018 N   0  3  0  0  0  0  0  0  0  0  0  0
   -2.6088   -0.1060    0.4833 C   0  0  1  0  0  0  0  0  0  0  0  0
   -2.6139   -1.5426    0.5957 O   0  0  0  0  0  0  0  0  0  0  0  0
   -1.3215    0.3464   -0.2198 C   0  0  2  0  0  0  0  0  0  0  0  0
   -0.1854   -0.0048    0.5930 O   0  0  0  0  0  0  0  0  0  0  0  0
   -1.3087    1.8564   -0.4443 C   0  0  1  0  0  0  0  0  0  0  0  0
   -0.1622    2.2132   -1.2051 O   0  0  0  0  0  0  0  0  0  0  0  0
  1  2  1  0  0  0  0
  3  2  1  6  0  0  0
  3  5  1  0  0  0  0
  3  4  1  0  0  0  0
  4  9  1  0  0  0  0
  5  7  1  0  0  0  0
  5  6  1  1  0  0  0
  7  9  1  0  0  0  0
  7  8  1  6  0  0  0
  9 40  1  1  0  0  0
 10  6  1  6  0  0  0
 10 11  1  0  0  0  0
 10 18  1  0  0  0  0
 11 13  1  0  0  0  0
 11 12  1  1  0  0  0
 13 15  1  0  0  0  0
 13 14  1  6  0  0  0
 15 17  1  0  0  0  0
 15 16  1  6  0  0  0
 17 19  1  1  0  0  0
 17 18  1  0  0  0  0
 19 20  1  0  0  0  0
 21 29  1  0  0  0  0
 22 23  1  0  0  0  0
 22 31  1  0  0  0  0
 22 38  1  6  0  0  0
 23 25  1  0  0  0  0
 23 24  1  6  0  0  0
 25 27  1  0  0  0  0
 25 26  1  1  0  0  0
 27 30  1  0  0  0  0
 27 28  1  6  0  0  0
 30 21  1  1  0  0  0
 30 31  1  0  0  0  0
 32 34  1  0  0  0  0
 32 41  1  0  0  0  0
 32 33  1  1  0  0  0
 34 35  1  0  0  0  0
 35 37  1  0  0  0  0
 35 36  1  1  0  0  0
 37 39  1  0  0  0  0
 37 38  1  6  0  0  0
 39 41  1  0  0  0  0
 39 40  1  1  0  0  0
 41 42  1  6  0  0  0
M  CHG  6  12   1  20   1  24   1  29   1  33   1  36   1
M  END
>  <CHROM.1>
-170.55898800,56.39140445,126.46395002,-170.11187242,-173.42665732,-91.51140270
-87.63624219,-177.54081747,155.68275289,95.28847755,-86.90522836,-173.41704461
-37.86633952,-156.58201101,88.46023508,-63.22327090,66.11264578,-49.67370311
-20.16147836,-147.49905283,-161.59046693,70.11985543,0.23852099,-0.53274334
1.90090100,-0.07413196,-0.41401107,-0.86730587

>  <Name>
1NEM.B

>  <RI>
0

>  <Rbt.Current_Directory>
/home/itssahil/PROJECTS/Mol_Feturizer/New_Systems/rnas/1nem

>  <Rbt.Executable>
rbdock ($Id: //depot/dev/client3/rdock/2013.1/src/exe/rbdock.cxx#4 $)

>  <Rbt.Library>
libRbt.so (2013.1, Build901 2013/11/27)

>  <Rbt.Parameter_File>
/export/apps/rDock/src/rDock_2013.1_src/data/scripts/dock_solv.prm

>  <Rbt.Receptor>
prm/pocket_docking_2.prm

>  <SCORE>
-33.2045

>  <SCORE.INTER>
-51.6186

>  <SCORE.INTER.CONST>
1

>  <SCORE.INTER.POLAR>
-7.64283

>  <SCORE.INTER.ROT>
9

>  <SCORE.INTER.SOLV>
47.8552

>  <SCORE.INTER.VDW>
-34.488

>  <SCORE.INTER.norm>
-1.22901

>  <SCORE.INTRA>
16.3145

>  <SCORE.INTRA.DIHEDRAL>
13.3443

>  <SCORE.INTRA.DIHEDRAL.0>
22.4324

>  <SCORE.INTRA.POLAR>
0.694054

>  <SCORE.INTRA.POLAR.0>
-1.83749

>  <SCORE.INTRA.REPUL>
0.00827035

>  <SCORE.INTRA.REPUL.0>
0

>  <SCORE.INTRA.SOLV>
-4.85309

>  <SCORE.INTRA.SOLV.lig_0>
-160.638

>  <SCORE.INTRA.VDW>
9.66771

>  <SCORE.INTRA.VDW.0>
-7.61953

>  <SCORE.INTRA.norm>
0.38844

>  <SCORE.RESTR>
2.09962

>  <SCORE.RESTR.CAVITY>
2.09962

>  <SCORE.RESTR.norm>
0.049991

>  <SCORE.SYSTEM>
0

>  <SCORE.SYSTEM.CONST>
0

>  <SCORE.SYSTEM.DIHEDRAL>
0

>  <SCORE.SYSTEM.SOLV>
0

>  <SCORE.SYSTEM.norm>
0

>  <SCORE.heavy>
42

>  <SCORE.norm>
-0.790584

>  <RMSD>
1.203

$$$$
1NEM.B
 OpenBabel11021811403D
libRbt.so/2013.1/901 2013/11/27
 42 45  0  0  0  0  0  0  0  0999 V2000
    3.4076   -3.0675    3.3990 O   0  0  0  0  0  0  0  0  0  0  0  0
    2.2364   -3.0260    2.5812 C   0  0  0  0  0  0  0  0  0  0  0  0
    2.4071   -2.1585    1.3350 C   0  0  1  0  0  0  0  0  0  0  0  0
    1.1893   -2.0889    0.5992 O   0  0  0  0  0  0  0  0  0  0  0  0
    2.7252   -0.6987    1.6169 C   0  0  1  0  0  0  0  0  0  0  0  0
    4.0747   -0.6407    2.0846 O   0  0  0  0  0  0  0  0  0  0  0  0
    2.4626   -0.1279    0.2360 C   0  0  1  0  0  0  0  0  0  0  0  0
    3.4520   -0.5361   -0.7146 O   0  0  0  0  0  0  0  0  0  0  0  0
    1.1283   -0.8232   -0.0587 C   0  0  2  0  0  0  0  0  0  0  0  0
    4.3359    0.2776    3.1072 C   0  0  2  0  0  0  0  0  0  0  0  0
    5.7394    0.0202    3.6722 C   0  0  2  0  0  0  0  0  0  0  0  0
    5.8756   -1.4057    4.0704 N   0  3  0  0  0  0  0  0  0  0  0  0
    6.0387    0.9652    4.8405 C   0  0  1  0  0  0  0  0  0  0  0  0
    6.2103    2.2891    4.3521 O   0  0  0  0  0  0  0  0  0  0  0  0
    4.9087    0.9414    5.8744 C   0  0  2  0  0  0  0  0  0  0  0  0
    4.8730   -0.3157    6.5381 O   0  0  0  0  0  0  0  0  0  0  0  0
    3.5741    1.2028    5.1821 C   0  0  1  0  0  0  0  0  0  0  0  0
    3.3656    0.2248    4.1449 O   0  0  0  0  0  0  0  0  0  0  0  0
    2.3871    1.1436    6.1275 C   0  0  0  0  0  0  0  0  0  0  0  0
    1.7848    2.4782    6.3421 N   0  3  0  0  0  0  0  0  0  0  0  0
   -5.9930   -2.0045    2.5869 C   0  0  0  0  0  0  0  0  0  0  0  0
   -2.4728   -1.9816    1.4315 C   0  0  2  0  0  0  0  0  0  0  0  0
   -2.2106   -3.4756    1.2578 C   0  0  2  0  0  0  0  0  0  0  0  0
   -1.0402   -3.6918    0.3741 N   0  3  0  0  0  0  0  0  0  0  0  0
   -3.4315   -4.1559    0.6532 C   0  0  1  0  0  0  0  0  0  0  0  0
   -3.2043   -5.5544    0.5689 O   0  0  0  0  0  0  0  0  0  0  0  0
   -4.6558   -3.8738    1.5212 C   0  0  2  0  0  0  0  0  0  0  0  0
   -5.8129   -4.4475    0.9266 O   0  0  0  0  0  0  0  0  0  0  0  0
   -7.3039   -2.1961    1.9253 N   0  3  0  0  0  0  0  0  0  0  0  0
   -4.8436   -2.3644    1.6617 C   0  0  2  0  0  0  0  0  0  0  0  0
   -3.6499   -1.7647    2.2050 O   0  0  0  0  0  0  0  0  0  0  0  0
   -1.8503    2.5617   -1.2827 C   0  0  2  0  0  0  0  0  0  0  0  0
   -1.6625    4.0305   -1.3059 N   0  3  0  0  0  0  0  0  0  0  0  0
   -3.2286    2.2213   -0.7270 C   0  0  0  0  0  0  0  0  0  0  0  0
   -3.4349    0.7135   -0.6952 C   0  0  2  0  0  0  0  0  0  0  0  0
   -4.7639    0.4565   -0.1586 N   0  3  0  0  0  0  0  0  0  0  0  0
   -2.3615    0.0626    0.1740 C   0  0  1  0  0  0  0  0  0  0  0  0
   -2.5468   -1.3663    0.1761 O   0  0  0  0  0  0  0  0  0  0  0  0
   -0.9587    0.3945   -0.3534 C   0  0  2  0  0  0  0  0  0  0  0  0
    0.0290   -0.1452    0.5454 O   0  0  0  0  0  0  0  0  0  0  0  0
   -0.7444    1.9023   -0.4603 C   0  0  1  0  0  0  0  0  0  0  0  0
    0.5148    2.1606   -1.0670 O   0  0  0  0  0  0  0  0  0  0  0  0
  1  2  1  0  0  0  0
  3  2  1  1  0  0  0
  3  5  1  0  0  0  0
  3  4  1  0  0  0  0
  4  9  1  0  0  0  0
  5  7  1  0  0  0  0
  5  6  1  6  0  0  0
  7  9  1  0  0  0  0
  7  8  1  6  0  0  0
  9 40  1  1  0  0  0
 10  6  1  6  0  0  0
 10 11  1  0  0  0  0
 10 18  1  0  0  0  0
 11 13  1  0  0  0  0
 11 12  1  1  0  0  0
 13 15  1  0  0  0  0
 13 14  1  6  0  0  0
 15 17  1  0  0  0  0
 15 16  1  6  0  0  0
 17 19  1  1  0  0  0
 17 18  1  0  0  0  0
 19 20  1  0  0  0  0
 21 29  1  0  0  0  0
 22 23  1  0  0  0  0
 22 31  1  0  0  0  0
 22 38  1  6  0  0  0
 23 25  1  0  0  0  0
 23 24  1  6  0  0  0
 25 27  1  0  0  0  0
 25 26  1  1  0  0  0
 27 30  1  0  0  0  0
 27 28  1  6  0  0  0
 30 21  1  1  0  0  0
 30 31  1  0  0  0  0
 32 34  1  0  0  0  0
 32 41  1  0  0  0  0
 32 33  1  1  0  0  0
 34 35  1  0  0  0  0
 35 37  1  0  0  0  0
 35 36  1  1  0  0  0
 37 39  1  0  0  0  0
 37 38  1  6  0  0  0
 39 41  1  0  0  0  0
 39 40  1  1  0  0  0
 41 42  1  6  0  0  0
M  CHG  6  12   1  20   1  24   1  29   1  33   1  36   1
M  END
>  <CHROM.1>
161.70866463,-176.58416586,-141.84313185,168.99700559,178.50289331,-128.08991350
25.32057497,-57.94899493,59.68952140,110.42034640,166.84386751,-76.48370751
166.92958806,-160.90835299,-161.53349077,-54.72655426,-39.50721322,165.25061270
-7.62703705,-134.03448989,135.23766891,-53.78031052,0.15762904,-0.67774771
1.80119345,-0.02429474,0.44041399,2.64640584

>  <Name>
1NEM.B

>  <RI>
0

>  <Rbt.Current_Directory>
/home/itssahil/PROJECTS/Mol_Feturizer/New_Systems/rnas/1nem

>  <Rbt.Executable>
rbdock ($Id: //depot/dev/client3/rdock/2013.1/src/exe/rbdock.cxx#4 $)

>  <Rbt.Library>
libRbt.so (2013.1, Build901 2013/11/27)

>  <Rbt.Parameter_File>
/export/apps/rDock/src/rDock_2013.1_src/data/scripts/dock_solv.prm

>  <Rbt.Receptor>
prm/pocket_docking_3.prm

>  <SCORE>
-50.7011

>  <SCORE.INTER>
-62.0685

>  <SCORE.INTER.CONST>
1

>  <SCORE.INTER.POLAR>
-9.1662

>  <SCORE.INTER.ROT>
9

>  <SCORE.INTER.SOLV>
45.2499

>  <SCORE.INTER.VDW>
-35.5083

>  <SCORE.INTER.norm>
-1.47782

>  <SCORE.INTRA>
11.0373

>  <SCORE.INTRA.DIHEDRAL>
21.9014

>  <SCORE.INTRA.DIHEDRAL.0>
22.4324

>  <SCORE.INTRA.POLAR>
-1.11558

>  <SCORE.INTRA.POLAR.0>
-1.83749

>  <SCORE.INTRA.REPUL>
0.035242

>  <SCORE.INTRA.REPUL.0>
0

>  <SCORE.INTRA.SOLV>
0.455442

>  <SCORE.INTRA.SOLV.lig_0>
-160.638

>  <SCORE.INTRA.VDW>
3.47564

>  <SCORE.INTRA.VDW.0>
-7.61953

>  <SCORE.INTRA.norm>
0.262793

>  <SCORE.RESTR>
0.330143

>  <SCORE.RESTR.CAVITY>
0.330143

>  <SCORE.RESTR.norm>
0.00786054

>  <SCORE.SYSTEM>
0

>  <SCORE.SYSTEM.CONST>
0

>  <SCORE.SYSTEM.DIHEDRAL>
0

>  <SCORE.SYSTEM.SOLV>
0

>  <SCORE.SYSTEM.norm>
0

>  <SCORE.heavy>
42

>  <SCORE.norm>
-1.20717

>  <RMSD>
1.204

$$$$
1NEM.B
 OpenBabel11021811403D
libRbt.so/2013.1/901 2013/11/27
 42 45  0  0  0  0  0  0  0  0999 V2000
    3.0750   -3.8180    3.2270 O   0  0  0  0  0  0  0  0  0  0  0  0
    1.9588   -3.7829    2.3354 C   0  0  0  0  0  0  0  0  0  0  0  0
    1.9783   -2.5751    1.3996 C   0  0  1  0  0  0  0  0  0  0  0  0
    0.8227   -2.5649    0.5665 O   0  0  0  0  0  0  0  0  0  0  0  0
    1.9113   -1.2279    2.1010 C   0  0  1  0  0  0  0  0  0  0  0  0
    3.1775   -1.0123    2.7284 O   0  0  0  0  0  0  0  0  0  0  0  0
    1.5919   -0.3527    0.9036 C   0  0  1  0  0  0  0  0  0  0  0  0
    2.7016   -0.2382    0.0066 O   0  0  0  0  0  0  0  0  0  0  0  0
    0.4879   -1.2086    0.2716 C   0  0  2  0  0  0  0  0  0  0  0  0
    3.3665    0.2384    3.3261 C   0  0  2  0  0  0  0  0  0  0  0  0
    4.7970    0.3259    3.8752 C   0  0  2  0  0  0  0  0  0  0  0  0
    5.0744   -0.8335    4.7636 N   0  3  0  0  0  0  0  0  0  0  0  0
    5.0238    1.6586    4.5963 C   0  0  1  0  0  0  0  0  0  0  0  0
    5.0611    2.7153    3.6463 O   0  0  0  0  0  0  0  0  0  0  0  0
    3.9179    1.9278    5.6213 C   0  0  2  0  0  0  0  0  0  0  0  0
    4.0123    1.0091    6.7026 O   0  0  0  0  0  0  0  0  0  0  0  0
    2.5535    1.8024    4.9492 C   0  0  1  0  0  0  0  0  0  0  0  0
    2.4223    0.4954    4.3574 O   0  0  0  0  0  0  0  0  0  0  0  0
    1.3928    2.0014    5.9080 C   0  0  0  0  0  0  0  0  0  0  0  0
    1.6386    1.3523    7.2150 N   0  3  0  0  0  0  0  0  0  0  0  0
   -5.7349   -3.0169    4.6354 C   0  0  0  0  0  0  0  0  0  0  0  0
   -2.8468   -2.4388    2.3878 C   0  0  2  0  0  0  0  0  0  0  0  0
   -2.3093   -3.8589    2.2284 C   0  0  2  0  0  0  0  0  0  0  0  0
   -1.4501   -3.9502    1.0239 N   0  3  0  0  0  0  0  0  0  0  0  0
   -3.4626   -4.8452    2.1012 C   0  0  1  0  0  0  0  0  0  0  0  0
   -2.9523   -6.1679    2.0318 O   0  0  0  0  0  0  0  0  0  0  0  0
   -4.3917   -4.7030    3.3046 C   0  0  2  0  0  0  0  0  0  0  0  0
   -5.5079   -5.5717    3.1594 O   0  0  0  0  0  0  0  0  0  0  0  0
   -6.7412   -1.9573    4.3950 N   0  3  0  0  0  0  0  0  0  0  0  0
   -4.8742   -3.2574    3.4074 C   0  0  2  0  0  0  0  0  0  0  0  0
   -3.7462   -2.3628    3.4907 O   0  0  0  0  0  0  0  0  0  0  0  0
   -2.7517    1.3588   -1.2833 C   0  0  2  0  0  0  0  0  0  0  0  0
   -2.4851    2.7553   -1.6983 N   0  3  0  0  0  0  0  0  0  0  0  0
   -4.0467    1.2918   -0.4816 C   0  0  0  0  0  0  0  0  0  0  0  0
   -4.3326   -0.1386   -0.0461 C   0  0  2  0  0  0  0  0  0  0  0  0
   -5.5770   -0.1343    0.7099 N   0  3  0  0  0  0  0  0  0  0  0  0
   -3.1788   -0.6600    0.8073 C   0  0  1  0  0  0  0  0  0  0  0  0
   -3.4439   -2.0231    1.1917 O   0  0  0  0  0  0  0  0  0  0  0  0
   -1.8558   -0.5966    0.0315 C   0  0  2  0  0  0  0  0  0  0  0  0
   -0.7757   -0.9955    0.8969 O   0  0  0  0  0  0  0  0  0  0  0  0
   -1.5735    0.8149   -0.4770 C   0  0  1  0  0  0  0  0  0  0  0  0
   -0.4085    0.8017   -1.2913 O   0  0  0  0  0  0  0  0  0  0  0  0
  1  2  1  0  0  0  0
  3  2  1  1  0  0  0
  3  5  1  0  0  0  0
  3  4  1  0  0  0  0
  4  9  1  0  0  0  0
  5  7  1  0  0  0  0
  5  6  1  6  0  0  0
  7  9  1  0  0  0  0
  7  8  1  6  0  0  0
  9 40  1  1  0  0  0
 10  6  1  1  0  0  0
 10 11  1  0  0  0  0
 10 18  1  0  0  0  0
 11 13  1  0  0  0  0
 11 12  1  1  0  0  0
 13 15  1  0  0  0  0
 13 14  1  6  0  0  0
 15 17  1  0  0  0  0
 15 16  1  1  0  0  0
 17 19  1  1  0  0  0
 17 18  1  0  0  0  0
 19 20  1  0  0  0  0
 21 29  1  0  0  0  0
 22 23  1  0  0  0  0
 22 31  1  0  0  0  0
 22 38  1  6  0  0  0
 23 25  1  0  0  0  0
 23 24  1  6  0  0  0
 25 27  1  0  0  0  0
 25 26  1  1  0  0  0
 27 30  1  0  0  0  0
 27 28  1  6  0  0  0
 30 21  1  1  0  0  0
 30 31  1  0  0  0  0
 32 34  1  0  0  0  0
 32 41  1  0  0  0  0
 32 33  1  1  0  0  0
 34 35  1  0  0  0  0
 35 37  1  0  0  0  0
 35 36  1  1  0  0  0
 37 39  1  0  0  0  0
 37 38  1  6  0  0  0
 39 41  1  0  0  0  0
 39 40  1  1  0  0  0
 41 42  1  6  0  0  0
M  CHG  6  12   1  20   1  24   1  29   1  33   1  36   1
M  END
>  <CHROM.1>
66.56292035,-177.99658687,174.12539782,-176.76330892,-175.97179319,-121.17118087
-24.15668584,72.97608581,-85.16997959,-40.45378404,55.91673641,-149.48582597
131.69665983,-139.09056779,-64.01610705,62.58198058,48.48838565,165.57580322
101.65605942,-152.92490388,169.77331815,-57.61228447,-0.41009553,-1.05500932
2.37890666,-0.05509015,0.46043004,2.33915739

>  <Name>
1NEM.B

>  <RI>
0

>  <Rbt.Current_Directory>
/home/itssahil/PROJECTS/Mol_Feturizer/New_Systems/rnas/1nem

>  <Rbt.Executable>
rbdock ($Id: //depot/dev/client3/rdock/2013.1/src/exe/rbdock.cxx#4 $)

>  <Rbt.Library>
libRbt.so (2013.1, Build901 2013/11/27)

>  <Rbt.Parameter_File>
/export/apps/rDock/src/rDock_2013.1_src/data/scripts/dock_solv.prm

>  <Rbt.Receptor>
prm/blind_docking_20.prm

>  <SCORE>
-33.0092

>  <SCORE.INTER>
-53.1793

>  <SCORE.INTER.CONST>
1

>  <SCORE.INTER.POLAR>
-6.99736

>  <SCORE.INTER.ROT>
9

>  <SCORE.INTER.SOLV>
44.8281

>  <SCORE.INTER.VDW>
-36.6711

>  <SCORE.INTER.norm>
-1.26617

>  <SCORE.INTRA>
13.823

>  <SCORE.INTRA.DIHEDRAL>
12.271

>  <SCORE.INTRA.DIHEDRAL.0>
22.4324

>  <SCORE.INTRA.POLAR>
0.19704

>  <SCORE.INTRA.POLAR.0>
-1.83749

>  <SCORE.INTRA.REPUL>
0.185209

>  <SCORE.INTRA.REPUL.0>
0

>  <SCORE.INTRA.SOLV>
2.01803

>  <SCORE.INTRA.SOLV.lig_0>
-160.638

>  <SCORE.INTRA.VDW>
5.08253

>  <SCORE.INTRA.VDW.0>
-7.61953

>  <SCORE.INTRA.norm>
0.329119

>  <SCORE.RESTR>
6.34708

>  <SCORE.RESTR.CAVITY>
6.34708

>  <SCORE.RESTR.norm>
0.151121

>  <SCORE.SYSTEM>
0

>  <SCORE.SYSTEM.CONST>
0

>  <SCORE.SYSTEM.DIHEDRAL>
0

>  <SCORE.SYSTEM.SOLV>
0

>  <SCORE.SYSTEM.norm>
0

>  <SCORE.heavy>
42

>  <SCORE.norm>
-0.785934

>  <RMSD>
1.217

$$$$
1NEM.B
 OpenBabel11021811403D
libRbt.so/2013.1/901 2013/11/27
 42 45  0  0  0  0  0  0  0  0999 V2000
    3.5039   -2.1844    0.0797 O   0  0  0  0  0  0  0  0  0  0  0  0
    2.7452   -1.4912   -0.9131 C   0  0  0  0  0  0  0  0  0  0  0  0
    2.4100   -0.0545   -0.5150 C   0  0  1  0  0  0  0  0  0  0  0  0
    1.1005    0.2968   -0.9524 O   0  0  0  0  0  0  0  0  0  0  0  0
    2.3518    0.1912    0.9842 C   0  0  1  0  0  0  0  0  0  0  0  0
    3.6949    0.1590    1.4724 O   0  0  0  0  0  0  0  0  0  0  0  0
    1.6672    1.5451    0.9762 C   0  0  1  0  0  0  0  0  0  0  0  0
    2.5201    2.5790    0.4736 O   0  0  0  0  0  0  0  0  0  0  0  0
    0.5533    1.2420   -0.0329 C   0  0  2  0  0  0  0  0  0  0  0  0
    3.9828    1.0073    2.5470 C   0  0  2  0  0  0  0  0  0  0  0  0
    5.4725    0.8921    2.8976 C   0  0  2  0  0  0  0  0  0  0  0  0
    5.8363   -0.5324    3.1181 N   0  3  0  0  0  0  0  0  0  0  0  0
    5.8151    1.7586    4.1139 C   0  0  1  0  0  0  0  0  0  0  0  0
    5.7536    3.1324    3.7542 O   0  0  0  0  0  0  0  0  0  0  0  0
    4.8527    1.4877    5.2744 C   0  0  2  0  0  0  0  0  0  0  0  0
    5.0642    0.1822    5.7969 O   0  0  0  0  0  0  0  0  0  0  0  0
    3.4123    1.6277    4.7901 C   0  0  1  0  0  0  0  0  0  0  0  0
    3.1814    0.7290    3.6878 O   0  0  0  0  0  0  0  0  0  0  0  0
    2.3859    1.3222    5.8667 C   0  0  0  0  0  0  0  0  0  0  0  0
    1.3051    2.3323    5.9021 N   0  3  0  0  0  0  0  0  0  0  0  0
   -5.2638   -1.6640    4.0712 C   0  0  0  0  0  0  0  0  0  0  0  0
   -2.0784   -1.8400    2.1872 C   0  0  2  0  0  0  0  0  0  0  0  0
   -1.7440   -3.3244    2.3130 C   0  0  2  0  0  0  0  0  0  0  0  0
   -0.7728   -3.7221    1.2661 N   0  3  0  0  0  0  0  0  0  0  0  0
   -3.0086   -4.1610    2.1718 C   0  0  1  0  0  0  0  0  0  0  0  0
   -2.6969   -5.5317    2.3677 O   0  0  0  0  0  0  0  0  0  0  0  0
   -4.0407   -3.7046    3.2005 C   0  0  2  0  0  0  0  0  0  0  0  0
   -5.2492   -4.4339    3.0297 O   0  0  0  0  0  0  0  0  0  0  0  0
   -4.8131   -1.9957    5.4423 N   0  3  0  0  0  0  0  0  0  0  0  0
   -4.3107   -2.2117    3.0232 C   0  0  2  0  0  0  0  0  0  0  0  0
   -3.0794   -1.4687    3.1313 O   0  0  0  0  0  0  0  0  0  0  0  0
   -3.5339    1.9649   -1.2545 C   0  0  2  0  0  0  0  0  0  0  0  0
   -3.9415    3.3621   -1.5288 N   0  3  0  0  0  0  0  0  0  0  0  0
   -4.5951    1.2688   -0.4099 C   0  0  0  0  0  0  0  0  0  0  0  0
   -4.1882   -0.1687   -0.1180 C   0  0  2  0  0  0  0  0  0  0  0  0
   -5.2393   -0.7751    0.6867 N   0  3  0  0  0  0  0  0  0  0  0  0
   -2.8542   -0.1881    0.6245 C   0  0  1  0  0  0  0  0  0  0  0  0
   -2.4624   -1.5526    0.8720 O   0  0  0  0  0  0  0  0  0  0  0  0
   -1.7640    0.5151   -0.1960 C   0  0  2  0  0  0  0  0  0  0  0  0
   -0.5485    0.5713    0.5748 O   0  0  0  0  0  0  0  0  0  0  0  0
   -2.1722    1.9398   -0.5622 C   0  0  1  0  0  0  0  0  0  0  0  0
   -1.1932    2.5075   -1.4224 O   0  0  0  0  0  0  0  0  0  0  0  0
  1  2  1  0  0  0  0
  3  2  1  1  0  0  0
  3  5  1  0  0  0  0
  3  4  1  0  0  0  0
  4  9  1  0  0  0  0
  5  7  1  0  0  0  0
  5  6  1  6  0  0  0
  7  9  1  0  0  0  0
  7  8  1  6  0  0  0
  9 40  1  1  0  0  0
 10  6  1  6  0  0  0
 10 11  1  0  0  0  0
 10 18  1  0  0  0  0
 11 13  1  0  0  0  0
 11 12  1  1  0  0  0
 13 15  1  0  0  0  0
 13 14  1  6  0  0  0
 15 17  1  0  0  0  0
 15 16  1  6  0  0  0
 17 19  1  1  0  0  0
 17 18  1  0  0  0  0
 19 20  1  0  0  0  0
 21 29  1  0  0  0  0
 22 23  1  0  0  0  0
 22 31  1  0  0  0  0
 22 38  1  6  0  0  0
 23 25  1  0  0  0  0
 23 24  1  6  0  0  0
 25 27  1  0  0  0  0
 25 26  1  1  0  0  0
 27 30  1  0  0  0  0
 27 28  1  6  0  0  0
 30 21  1  1  0  0  0
 30 31  1  0  0  0  0
 32 34  1  0  0  0  0
 32 41  1  0  0  0  0
 32 33  1  1  0  0  0
 34 35  1  0  0  0  0
 35 37  1  0  0  0  0
 35 36  1  1  0  0  0
 37 39  1  0  0  0  0
 37 38  1  6  0  0  0
 39 41  1  0  0  0  0
 39 40  1  1  0  0  0
 41 42  1  6  0  0  0
M  CHG  6  12   1  20   1  24   1  29   1  33   1  36   1
M  END
>  <CHROM.1>
165.35059887,-142.46824084,146.74675278,-177.44864791,176.86886981,-79.23509607
-71.02248702,54.12832129,167.12491939,134.46810745,179.23277979,52.67595864
-149.16476012,177.82793016,64.82257059,-68.59035471,-179.81826897,87.65237310
-73.59425864,-130.77009122,-177.80254508,67.46027574,-0.04341365,-0.21458437
1.89678943,0.05849578,-0.36242903,-0.87939017

>  <Name>
1NEM.B

>  <RI>
0

>  <Rbt.Current_Directory>
/home/itssahil/PROJECTS/Mol_Feturizer/New_Systems/rnas/1nem

>  <Rbt.Executable>
rbdock ($Id: //depot/dev/client3/rdock/2013.1/src/exe/rbdock.cxx#4 $)

>  <Rbt.Library>
libRbt.so (2013.1, Build901 2013/11/27)

>  <Rbt.Parameter_File>
/export/apps/rDock/src/rDock_2013.1_src/data/scripts/dock_solv.prm

>  <Rbt.Receptor>
prm/pocket_docking_2.prm

>  <SCORE>
-28.0499

>  <SCORE.INTER>
-41.3824

>  <SCORE.INTER.CONST>
1

>  <SCORE.INTER.POLAR>
-5.48377

>  <SCORE.INTER.ROT>
9

>  <SCORE.INTER.SOLV>
45.6582

>  <SCORE.INTER.VDW>
-34.1284

>  <SCORE.INTER.norm>
-0.985295

>  <SCORE.INTRA>
11.7208

>  <SCORE.INTRA.DIHEDRAL>
5.96986

>  <SCORE.INTRA.DIHEDRAL.0>
22.4324

>  <SCORE.INTRA.POLAR>
1.07417

>  <SCORE.INTRA.POLAR.0>
-1.83749

>  <SCORE.INTRA.REPUL>
0.0924944

>  <SCORE.INTRA.REPUL.0>
0

>  <SCORE.INTRA.SOLV>
-3.5019

>  <SCORE.INTRA.SOLV.lig_0>
-160.638

>  <SCORE.INTRA.VDW>
6.37213

>  <SCORE.INTRA.VDW.0>
-7.61953

>  <SCORE.INTRA.norm>
0.279066

>  <SCORE.RESTR>
1.6117

>  <SCORE.RESTR.CAVITY>
1.6117

>  <SCORE.RESTR.norm>
0.0383739

>  <SCORE.SYSTEM>
0

>  <SCORE.SYSTEM.CONST>
0

>  <SCORE.SYSTEM.DIHEDRAL>
0

>  <SCORE.SYSTEM.SOLV>
0

>  <SCORE.SYSTEM.norm>
0

>  <SCORE.heavy>
42

>  <SCORE.norm>
-0.667855

>  <RMSD>
1.260

$$$$
1NEM.B
 OpenBabel11021811403D
libRbt.so/2013.1/901 2013/11/27
 42 45  0  0  0  0  0  0  0  0999 V2000
    3.0470   -2.9123    3.4569 O   0  0  0  0  0  0  0  0  0  0  0  0
    2.2924   -3.3120    2.3111 C   0  0  0  0  0  0  0  0  0  0  0  0
    2.2223   -2.2307    1.2338 C   0  0  1  0  0  0  0  0  0  0  0  0
    1.0022   -2.3250    0.5044 O   0  0  0  0  0  0  0  0  0  0  0  0
    2.1987   -0.8064    1.7652 C   0  0  1  0  0  0  0  0  0  0  0  0
    3.5097   -0.5137    2.2540 O   0  0  0  0  0  0  0  0  0  0  0  0
    1.7728   -0.0877    0.4987 C   0  0  1  0  0  0  0  0  0  0  0  0
    2.8039   -0.0858   -0.4943 O   0  0  0  0  0  0  0  0  0  0  0  0
    0.6299   -1.0163    0.0717 C   0  0  2  0  0  0  0  0  0  0  0  0
    3.6669    0.7143    2.9056 C   0  0  2  0  0  0  0  0  0  0  0  0
    4.8109    0.6047    3.9227 C   0  0  2  0  0  0  0  0  0  0  0  0
    4.5800   -0.5518    4.8279 N   0  3  0  0  0  0  0  0  0  0  0  0
    4.9724    1.9122    4.7049 C   0  0  1  0  0  0  0  0  0  0  0  0
    5.5000    2.9180    3.8502 O   0  0  0  0  0  0  0  0  0  0  0  0
    3.6331    2.3797    5.2829 C   0  0  2  0  0  0  0  0  0  0  0  0
    3.2025    1.4951    6.3095 O   0  0  0  0  0  0  0  0  0  0  0  0
    2.5873    2.4377    4.1730 C   0  0  1  0  0  0  0  0  0  0  0  0
    2.4731    1.1456    3.5459 O   0  0  0  0  0  0  0  0  0  0  0  0
    1.2098    2.8417    4.6683 C   0  0  0  0  0  0  0  0  0  0  0  0
    0.4767    3.6470    3.6663 N   0  3  0  0  0  0  0  0  0  0  0  0
   -5.5254   -1.9777    4.4521 C   0  0  0  0  0  0  0  0  0  0  0  0
   -2.5716   -2.5895    2.3008 C   0  0  2  0  0  0  0  0  0  0  0  0
   -2.4509   -4.1088    2.3921 C   0  0  2  0  0  0  0  0  0  0  0  0
   -1.6411   -4.6279    1.2642 N   0  3  0  0  0  0  0  0  0  0  0  0
   -3.8326   -4.7480    2.3572 C   0  0  1  0  0  0  0  0  0  0  0  0
   -3.7116   -6.1527    2.5208 O   0  0  0  0  0  0  0  0  0  0  0  0
   -4.6954   -4.1616    3.4724 C   0  0  2  0  0  0  0  0  0  0  0  0
   -6.0084   -4.7025    3.4035 O   0  0  0  0  0  0  0  0  0  0  0  0
   -4.7024   -1.8626    5.6778 N   0  3  0  0  0  0  0  0  0  0  0  0
   -4.7557   -2.6425    3.3241 C   0  0  2  0  0  0  0  0  0  0  0  0
   -3.4234   -2.0905    3.3286 O   0  0  0  0  0  0  0  0  0  0  0  0
   -2.9983    1.3932   -1.1966 C   0  0  2  0  0  0  0  0  0  0  0  0
   -2.9914    2.8410   -1.5082 N   0  3  0  0  0  0  0  0  0  0  0  0
   -4.2383    1.0412   -0.3826 C   0  0  0  0  0  0  0  0  0  0  0  0
   -4.2575   -0.4448   -0.0528 C   0  0  2  0  0  0  0  0  0  0  0  0
   -5.4616   -0.7145    0.7202 N   0  3  0  0  0  0  0  0  0  0  0  0
   -3.0067   -0.8148    0.7407 C   0  0  1  0  0  0  0  0  0  0  0  0
   -3.0187   -2.2275    1.0244 O   0  0  0  0  0  0  0  0  0  0  0  0
   -1.7376   -0.4634   -0.0481 C   0  0  2  0  0  0  0  0  0  0  0  0
   -0.5804   -0.7271    0.7679 O   0  0  0  0  0  0  0  0  0  0  0  0
   -1.7207    1.0087   -0.4520 C   0  0  1  0  0  0  0  0  0  0  0  0
   -0.5949    1.2598   -1.2826 O   0  0  0  0  0  0  0  0  0  0  0  0
  1  2  1  0  0  0  0
  3  2  1  1  0  0  0
  3  5  1  0  0  0  0
  3  4  1  0  0  0  0
  4  9  1  0  0  0  0
  5  7  1  0  0  0  0
  5  6  1  6  0  0  0
  7  9  1  0  0  0  0
  7  8  1  6  0  0  0
  9 40  1  1  0  0  0
 10  6  1  1  0  0  0
 10 11  1  0  0  0  0
 10 18  1  0  0  0  0
 11 13  1  0  0  0  0
 11 12  1  1  0  0  0
 13 15  1  0  0  0  0
 13 14  1  6  0  0  0
 15 17  1  0  0  0  0
 15 16  1  1  0  0  0
 17 19  1  1  0  0  0
 17 18  1  0  0  0  0
 19 20  1  0  0  0  0
 21 29  1  0  0  0  0
 22 23  1  0  0  0  0
 22 31  1  0  0  0  0
 22 38  1  6  0  0  0
 23 25  1  0  0  0  0
 23 24  1  6  0  0  0
 25 27  1  0  0  0  0
 25 26  1  1  0  0  0
 27 30  1  0  0  0  0
 27 28  1  6  0  0  0
 30 21  1  1  0  0  0
 30 31  1  0  0  0  0
 32 34  1  0  0  0  0
 32 41  1  0  0  0  0
 32 33  1  1  0  0  0
 34 35  1  0  0  0  0
 35 37  1  0  0  0  0
 35 36  1  1  0  0  0
 37 39  1  0  0  0  0
 37 38  1  6  0  0  0
 39 41  1  0  0  0  0
 39 40  1  1  0  0  0
 41 42  1  6  0  0  0
M  CHG  6  12   1  20   1  24   1  29   1  33   1  36   1
M  END
>  <CHROM.1>
73.05644073,-149.65883695,-174.12289021,152.31980224,60.06613517,-120.09401680
162.13804153,-53.14247759,80.76399642,145.83451300,-106.15853792,78.88177113
29.45047999,-172.02728881,69.82109966,55.72460943,-63.41948678,-98.84092229
176.28589781,-140.28803976,153.86982205,-62.62790976,-0.40859685,-0.75195610
2.21753859,-0.22433873,0.43176981,2.47177714

>  <Name>
1NEM.B

>  <RI>
0

>  <Rbt.Current_Directory>
/home/itssahil/PROJECTS/Mol_Feturizer/New_Systems/rnas/1nem

>  <Rbt.Executable>
rbdock ($Id: //depot/dev/client3/rdock/2013.1/src/exe/rbdock.cxx#4 $)

>  <Rbt.Library>
libRbt.so (2013.1, Build901 2013/11/27)

>  <Rbt.Parameter_File>
/export/apps/rDock/src/rDock_2013.1_src/data/scripts/dock_solv.prm

>  <Rbt.Receptor>
prm/pocket_docking_4.prm

>  <SCORE>
-39.2686

>  <SCORE.INTER>
-47.471

>  <SCORE.INTER.CONST>
1

>  <SCORE.INTER.POLAR>
-5.62662

>  <SCORE.INTER.ROT>
9

>  <SCORE.INTER.SOLV>
45.62

>  <SCORE.INTER.VDW>
-37.6986

>  <SCORE.INTER.norm>
-1.13026

>  <SCORE.INTRA>
8.20243

>  <SCORE.INTRA.DIHEDRAL>
16.1996

>  <SCORE.INTRA.DIHEDRAL.0>
22.4324

>  <SCORE.INTRA.POLAR>
-0.402209

>  <SCORE.INTRA.POLAR.0>
-1.83749

>  <SCORE.INTRA.REPUL>
0

>  <SCORE.INTRA.REPUL.0>
0

>  <SCORE.INTRA.SOLV>
-2.82251

>  <SCORE.INTRA.SOLV.lig_0>
-160.638

>  <SCORE.INTRA.VDW>
2.8814

>  <SCORE.INTRA.VDW.0>
-7.61953

>  <SCORE.INTRA.norm>
0.195296

>  <SCORE.RESTR>
0

>  <SCORE.RESTR.CAVITY>
0

>  <SCORE.RESTR.norm>
0

>  <SCORE.SYSTEM>
0

>  <SCORE.SYSTEM.CONST>
0

>  <SCORE.SYSTEM.DIHEDRAL>
0

>  <SCORE.SYSTEM.SOLV>
0

>  <SCORE.SYSTEM.norm>
0

>  <SCORE.heavy>
42

>  <SCORE.norm>
-0.934966

>  <RMSD>
1.275

$$$$
1NEM.B
 OpenBabel11021811403D
libRbt.so/2013.1/901 2013/11/27
 42 45  0  0  0  0  0  0  0  0999 V2000
    4.3816   -1.3551    3.9634 O   0  0  0  0  0  0  0  0  0  0  0  0
    3.0594   -1.2180    3.4387 C   0  0  0  0  0  0  0  0  0  0  0  0
    3.0310   -1.0768    1.9175 C   0  0  1  0  0  0  0  0  0  0  0  0
    1.7381   -1.3884    1.4070 O   0  0  0  0  0  0  0  0  0  0  0  0
    3.2742    0.3343    1.4066 C   0  0  1  0  0  0  0  0  0  0  0  0
    4.6593    0.6256    1.6063 O   0  0  0  0  0  0  0  0  0  0  0  0
    2.8224    0.1477   -0.0297 C   0  0  1  0  0  0  0  0  0  0  0  0
    3.7281   -0.6689   -0.7793 O   0  0  0  0  0  0  0  0  0  0  0  0
    1.5162   -0.6125    0.2291 C   0  0  2  0  0  0  0  0  0  0  0  0
    4.9603    1.5227    2.6368 C   0  0  2  0  0  0  0  0  0  0  0  0
    6.4455    1.3946    3.0016 C   0  0  2  0  0  0  0  0  0  0  0  0
    6.7776   -0.0239    3.2984 N   0  3  0  0  0  0  0  0  0  0  0  0
    6.8009    2.3161    4.1729 C   0  0  1  0  0  0  0  0  0  0  0  0
    6.7705    3.6702    3.7416 O   0  0  0  0  0  0  0  0  0  0  0  0
    5.8275    2.1267    5.3404 C   0  0  2  0  0  0  0  0  0  0  0  0
    6.0084    0.8462    5.9317 O   0  0  0  0  0  0  0  0  0  0  0  0
    4.3927    2.2716    4.8411 C   0  0  1  0  0  0  0  0  0  0  0  0
    4.1478    1.3215    3.7860 O   0  0  0  0  0  0  0  0  0  0  0  0
    3.3549    2.0447    5.9263 C   0  0  0  0  0  0  0  0  0  0  0  0
    3.6756    2.7925    7.1623 N   0  3  0  0  0  0  0  0  0  0  0  0
   -4.1630   -3.0332    3.5103 C   0  0  0  0  0  0  0  0  0  0  0  0
   -1.1253   -2.0735    1.6187 C   0  0  2  0  0  0  0  0  0  0  0  0
   -0.4016   -3.4145    1.5245 C   0  0  2  0  0  0  0  0  0  0  0  0
    0.5974   -3.3827    0.4297 N   0  3  0  0  0  0  0  0  0  0  0  0
   -1.4013   -4.5330    1.2626 C   0  0  1  0  0  0  0  0  0  0  0  0
   -0.7271   -5.7819    1.2545 O   0  0  0  0  0  0  0  0  0  0  0  0
   -2.4754   -4.5229    2.3480 C   0  0  2  0  0  0  0  0  0  0  0  0
   -3.4510   -5.5198    2.0727 O   0  0  0  0  0  0  0  0  0  0  0  0
   -5.3530   -3.8749    3.2486 N   0  3  0  0  0  0  0  0  0  0  0  0
   -3.1414   -3.1489    2.3925 C   0  0  2  0  0  0  0  0  0  0  0  0
   -2.1501   -2.1240    2.6078 O   0  0  0  0  0  0  0  0  0  0  0  0
   -2.0920    2.0193   -1.6048 C   0  0  2  0  0  0  0  0  0  0  0  0
   -2.3563    3.4602   -1.8218 N   0  3  0  0  0  0  0  0  0  0  0  0
   -3.3235    1.3478   -1.0075 C   0  0  0  0  0  0  0  0  0  0  0  0
   -3.0655   -0.1345   -0.7768 C   0  0  2  0  0  0  0  0  0  0  0  0
   -4.2745   -0.7146   -0.2095 N   0  3  0  0  0  0  0  0  0  0  0  0
   -1.8804   -0.3122    0.1695 C   0  0  1  0  0  0  0  0  0  0  0  0
   -1.6250   -1.7174    0.3603 O   0  0  0  0  0  0  0  0  0  0  0  0
   -0.6241    0.3623   -0.3987 C   0  0  2  0  0  0  0  0  0  0  0  0
    0.4445    0.2671    0.5624 O   0  0  0  0  0  0  0  0  0  0  0  0
   -0.8716    1.8375   -0.7038 C   0  0  1  0  0  0  0  0  0  0  0  0
    0.2734    2.3888   -1.3408 O   0  0  0  0  0  0  0  0  0  0  0  0
  1  2  1  0  0  0  0
  3  2  1  1  0  0  0
  3  5  1  0  0  0  0
  3  4  1  0  0  0  0
  4  9  1  0  0  0  0
  5  7  1  0  0  0  0
  5  6  1  6  0  0  0
  7  9  1  0  0  0  0
  7  8  1  6  0  0  0
  9 40  1  1  0  0  0
 10  6  1  6  0  0  0
 10 11  1  0  0  0  0
 10 18  1  0  0  0  0
 11 13  1  0  0  0  0
 11 12  1  1  0  0  0
 13 15  1  0  0  0  0
 13 14  1  6  0  0  0
 15 17  1  0  0  0  0
 15 16  1  6  0  0  0
 17 19  1  1  0  0  0
 17 18  1  0  0  0  0
 19 20  1  0  0  0  0
 21 29  1  0  0  0  0
 22 23  1  0  0  0  0
 22 31  1  0  0  0  0
 22 38  1  6  0  0  0
 23 25  1  0  0  0  0
 23 24  1  6  0  0  0
 25 27  1  0  0  0  0
 25 26  1  1  0  0  0
 27 30  1  0  0  0  0
 27 28  1  6  0  0  0
 30 21  1  1  0  0  0
 30 31  1  0  0  0  0
 32 34  1  0  0  0  0
 32 41  1  0  0  0  0
 32 33  1  1  0  0  0
 34 35  1  0  0  0  0
 35 37  1  0  0  0  0
 35 36  1  1  0  0  0
 37 39  1  0  0  0  0
 37 38  1  6  0  0  0
 39 41  1  0  0  0  0
 39 40  1  1  0  0  0
 41 42  1  6  0  0  0
M  CHG  6  12   1  20   1  24   1  29   1  33   1  36   1
M  END
>  <CHROM.1>
-48.89040985,160.60385694,-107.02092328,162.62595077,-173.83048847,-132.66039896
-38.96182564,154.49488333,50.92131255,47.46354566,164.22546271,-69.08226539
51.02111881,-157.89419149,83.12654572,-100.08832878,-47.47371549,-57.68413596
-45.94508597,-147.81467584,109.61829351,76.72884677,1.06297754,-0.43606307
1.88591870,-0.12903143,0.52659056,2.51182472

>  <Name>
1NEM.B

>  <RI>
0

>  <Rbt.Current_Directory>
/home/itssahil/PROJECTS/Mol_Feturizer/New_Systems/rnas/1nem

>  <Rbt.Executable>
rbdock ($Id: //depot/dev/client3/rdock/2013.1/src/exe/rbdock.cxx#4 $)

>  <Rbt.Library>
libRbt.so (2013.1, Build901 2013/11/27)

>  <Rbt.Parameter_File>
/export/apps/rDock/src/rDock_2013.1_src/data/scripts/dock_solv.prm

>  <Rbt.Receptor>
prm/pocket_docking_2.prm

>  <SCORE>
-37.0064

>  <SCORE.INTER>
-51.489

>  <SCORE.INTER.CONST>
1

>  <SCORE.INTER.POLAR>
-6.75306

>  <SCORE.INTER.ROT>
9

>  <SCORE.INTER.SOLV>
30.3152

>  <SCORE.INTER.VDW>
-31.5209

>  <SCORE.INTER.norm>
-1.22593

>  <SCORE.INTRA>
13.287

>  <SCORE.INTRA.DIHEDRAL>
21.6297

>  <SCORE.INTRA.DIHEDRAL.0>
22.4324

>  <SCORE.INTRA.POLAR>
-0.737592

>  <SCORE.INTRA.POLAR.0>
-1.83749

>  <SCORE.INTRA.REPUL>
0.275722

>  <SCORE.INTRA.REPUL.0>
0

>  <SCORE.INTRA.SOLV>
3.78294

>  <SCORE.INTRA.SOLV.lig_0>
-160.638

>  <SCORE.INTRA.VDW>
1.70991

>  <SCORE.INTRA.VDW.0>
-7.61953

>  <SCORE.INTRA.norm>
0.316357

>  <SCORE.RESTR>
1.19555

>  <SCORE.RESTR.CAVITY>
1.19555

>  <SCORE.RESTR.norm>
0.0284654

>  <SCORE.SYSTEM>
0

>  <SCORE.SYSTEM.CONST>
0

>  <SCORE.SYSTEM.DIHEDRAL>
0

>  <SCORE.SYSTEM.SOLV>
0

>  <SCORE.SYSTEM.norm>
0

>  <SCORE.heavy>
42

>  <SCORE.norm>
-0.881105

>  <RMSD>
1.361

$$$$
1NEM.B
 OpenBabel11021811403D
libRbt.so/2013.1/901 2013/11/27
 42 45  0  0  0  0  0  0  0  0999 V2000
    2.6053   -1.4594    3.8423 O   0  0  0  0  0  0  0  0  0  0  0  0
    3.7667   -1.1178    3.0830 C   0  0  0  0  0  0  0  0  0  0  0  0
    3.4598   -0.8411    1.6119 C   0  0  1  0  0  0  0  0  0  0  0  0
    2.1853   -1.3686    1.2556 O   0  0  0  0  0  0  0  0  0  0  0  0
    3.3367    0.6318    1.2557 C   0  0  1  0  0  0  0  0  0  0  0  0
    4.6527    1.1888    1.2912 O   0  0  0  0  0  0  0  0  0  0  0  0
    2.6979    0.4922   -0.1134 C   0  0  1  0  0  0  0  0  0  0  0  0
    3.6077   -0.0391   -1.0825 O   0  0  0  0  0  0  0  0  0  0  0  0
    1.6252   -0.5481    0.2301 C   0  0  2  0  0  0  0  0  0  0  0  0
    4.9723    1.9488    2.4215 C   0  0  2  0  0  0  0  0  0  0  0  0
    6.4978    2.0023    2.5805 C   0  0  2  0  0  0  0  0  0  0  0  0
    7.0595    0.6257    2.5805 N   0  3  0  0  0  0  0  0  0  0  0  0
    6.8875    2.7726    3.8463 C   0  0  1  0  0  0  0  0  0  0  0  0
    6.6112    4.1555    3.6679 O   0  0  0  0  0  0  0  0  0  0  0  0
    6.1257    2.2498    5.0682 C   0  0  2  0  0  0  0  0  0  0  0  0
    6.5624    0.9374    5.3981 O   0  0  0  0  0  0  0  0  0  0  0  0
    4.6282    2.2419    4.7746 C   0  0  1  0  0  0  0  0  0  0  0  0
    4.3673    1.4430    3.6043 O   0  0  0  0  0  0  0  0  0  0  0  0
    3.7967    1.6853    5.9170 C   0  0  0  0  0  0  0  0  0  0  0  0
    3.6682    2.6529    7.0292 N   0  3  0  0  0  0  0  0  0  0  0  0
   -3.9590   -3.3398    4.0055 C   0  0  0  0  0  0  0  0  0  0  0  0
   -1.1788   -2.1198    1.8819 C   0  0  2  0  0  0  0  0  0  0  0  0
   -0.4405   -3.4232    1.5867 C   0  0  2  0  0  0  0  0  0  0  0  0
    0.4264   -3.2633    0.3949 N   0  3  0  0  0  0  0  0  0  0  0  0
   -1.4380   -4.5466    1.3377 C   0  0  1  0  0  0  0  0  0  0  0  0
   -0.7409   -5.7673    1.1416 O   0  0  0  0  0  0  0  0  0  0  0  0
   -2.3814   -4.6663    2.5325 C   0  0  2  0  0  0  0  0  0  0  0  0
   -3.3592   -5.6668    2.2784 O   0  0  0  0  0  0  0  0  0  0  0  0
   -4.6420   -2.0402    4.1990 N   0  3  0  0  0  0  0  0  0  0  0  0
   -3.0690   -3.3240    2.7749 C   0  0  2  0  0  0  0  0  0  0  0  0
   -2.0830   -2.2900    2.9703 O   0  0  0  0  0  0  0  0  0  0  0  0
   -1.9777    2.1518   -1.1195 C   0  0  2  0  0  0  0  0  0  0  0  0
   -2.0825    3.6198   -1.2853 N   0  3  0  0  0  0  0  0  0  0  0  0
   -3.2369    1.6117   -0.4510 C   0  0  0  0  0  0  0  0  0  0  0  0
   -3.1421    0.1030   -0.2720 C   0  0  2  0  0  0  0  0  0  0  0  0
   -4.3702   -0.3482    0.3670 N   0  3  0  0  0  0  0  0  0  0  0  0
   -1.9250   -0.2411    0.5833 C   0  0  1  0  0  0  0  0  0  0  0  0
   -1.8265   -1.6718    0.7243 O   0  0  0  0  0  0  0  0  0  0  0  0
   -0.6389    0.2982   -0.0579 C   0  0  2  0  0  0  0  0  0  0  0  0
    0.4737    0.0492    0.8223 O   0  0  0  0  0  0  0  0  0  0  0  0
   -0.7291    1.8009   -0.3120 C   0  0  1  0  0  0  0  0  0  0  0  0
    0.4273    2.2331   -1.0165 O   0  0  0  0  0  0  0  0  0  0  0  0
  1  2  1  0  0  0  0
  3  2  1  1  0  0  0
  3  5  1  0  0  0  0
  3  4  1  0  0  0  0
  4  9  1  0  0  0  0
  5  7  1  0  0  0  0
  5  6  1  6  0  0  0
  7  9  1  0  0  0  0
  7  8  1  6  0  0  0
  9 40  1  1  0  0  0
 10  6  1  6  0  0  0
 10 11  1  0  0  0  0
 10 18  1  0  0  0  0
 11 13  1  0  0  0  0
 11 12  1  1  0  0  0
 13 15  1  0  0  0  0
 13 14  1  6  0  0  0
 15 17  1  0  0  0  0
 15 16  1  6  0  0  0
 17 19  1  1  0  0  0
 17 18  1  0  0  0  0
 19 20  1  0  0  0  0
 21 29  1  0  0  0  0
 22 23  1  0  0  0  0
 22 31  1  0  0  0  0
 22 38  1  6  0  0  0
 23 25  1  0  0  0  0
 23 24  1  6  0  0  0
 25 27  1  0  0  0  0
 25 26  1  1  0  0  0
 27 30  1  0  0  0  0
 27 28  1  6  0  0  0
 30 21  1  1  0  0  0
 30 31  1  0  0  0  0
 32 34  1  0  0  0  0
 32 41  1  0  0  0  0
 32 33  1  1  0  0  0
 34 35  1  0  0  0  0
 35 37  1  0  0  0  0
 35 36  1  1  0  0  0
 37 39  1  0  0  0  0
 37 38  1  6  0  0  0
 39 41  1  0  0  0  0
 39 40  1  1  0  0  0
 41 42  1  6  0  0  0
M  CHG  6  12   1  20   1  24   1  29   1  33   1  36   1
M  END
>  <CHROM.1>
-55.91492230,-17.45884731,-102.62163025,158.06190800,-65.31343134,-147.02405781
47.18470575,59.47201152,75.15356711,75.73783971,-9.81510924,-178.47618407
67.68047242,-147.48578282,80.64409433,60.64996797,173.03860804,-178.96233833
-166.18736859,-153.34655375,131.11249555,-59.28582555,1.12889269,-0.27378118
1.95701761,-0.20954117,0.48289408,2.49735203

>  <Name>
1NEM.B

>  <RI>
0

>  <Rbt.Current_Directory>
/home/itssahil/PROJECTS/Mol_Feturizer/New_Systems/rnas/1nem

>  <Rbt.Executable>
rbdock ($Id: //depot/dev/client3/rdock/2013.1/src/exe/rbdock.cxx#4 $)

>  <Rbt.Library>
libRbt.so (2013.1, Build901 2013/11/27)

>  <Rbt.Parameter_File>
/export/apps/rDock/src/rDock_2013.1_src/data/scripts/dock_solv.prm

>  <Rbt.Receptor>
prm/pocket_docking_3.prm

>  <SCORE>
-32.8772

>  <SCORE.INTER>
-41.7861

>  <SCORE.INTER.CONST>
1

>  <SCORE.INTER.POLAR>
-5.67179

>  <SCORE.INTER.ROT>
9

>  <SCORE.INTER.SOLV>
33.1149

>  <SCORE.INTER.VDW>
-29.5897

>  <SCORE.INTER.norm>
-0.994906

>  <SCORE.INTRA>
8.85337

>  <SCORE.INTRA.DIHEDRAL>
15.4753

>  <SCORE.INTRA.DIHEDRAL.0>
22.4324

>  <SCORE.INTRA.POLAR>
-0.0718094

>  <SCORE.INTRA.POLAR.0>
-1.83749

>  <SCORE.INTRA.REPUL>
0

>  <SCORE.INTRA.REPUL.0>
0

>  <SCORE.INTRA.SOLV>
-2.20461

>  <SCORE.INTRA.SOLV.lig_0>
-160.638

>  <SCORE.INTRA.VDW>
2.46217

>  <SCORE.INTRA.VDW.0>
-7.61953

>  <SCORE.INTRA.norm>
0.210795

>  <SCORE.RESTR>
0.0554986

>  <SCORE.RESTR.CAVITY>
0.0554986

>  <SCORE.RESTR.norm>
0.00132139

>  <SCORE.SYSTEM>
0

>  <SCORE.SYSTEM.CONST>
0

>  <SCORE.SYSTEM.DIHEDRAL>
0

>  <SCORE.SYSTEM.SOLV>
0

>  <SCORE.SYSTEM.norm>
0

>  <SCORE.heavy>
42

>  <SCORE.norm>
-0.78279

>  <RMSD>
1.393

$$$$
1NEM.B
 OpenBabel11021811403D
libRbt.so/2013.1/901 2013/11/27
 42 45  0  0  0  0  0  0  0  0999 V2000
    3.7838   -1.9693   -0.5018 O   0  0  0  0  0  0  0  0  0  0  0  0
    2.5224   -1.4288   -0.9004 C   0  0  0  0  0  0  0  0  0  0  0  0
    2.2792   -0.0189   -0.3640 C   0  0  1  0  0  0  0  0  0  0  0  0
    1.0133    0.4724   -0.7950 O   0  0  0  0  0  0  0  0  0  0  0  0
    2.1903    0.0770    1.1508 C   0  0  1  0  0  0  0  0  0  0  0  0
    3.5110   -0.1055    1.6661 O   0  0  0  0  0  0  0  0  0  0  0  0
    1.6058    1.4723    1.2662 C   0  0  1  0  0  0  0  0  0  0  0  0
    2.5471    2.4849    0.8947 O   0  0  0  0  0  0  0  0  0  0  0  0
    0.5063    1.3578    0.2037 C   0  0  2  0  0  0  0  0  0  0  0  0
    3.9869    0.8979    2.5170 C   0  0  2  0  0  0  0  0  0  0  0  0
    5.5084    0.7591    2.6619 C   0  0  2  0  0  0  0  0  0  0  0  0
    5.8572   -0.6244    3.0797 N   0  3  0  0  0  0  0  0  0  0  0  0
    6.0606    1.8017    3.6393 C   0  0  1  0  0  0  0  0  0  0  0  0
    5.9874    3.0937    3.0512 O   0  0  0  0  0  0  0  0  0  0  0  0
    5.2800    1.7921    4.9572 C   0  0  2  0  0  0  0  0  0  0  0  0
    5.5284    0.5868    5.6697 O   0  0  0  0  0  0  0  0  0  0  0  0
    3.7873    1.9294    4.6706 C   0  0  1  0  0  0  0  0  0  0  0  0
    3.3620    0.8683    3.7936 O   0  0  0  0  0  0  0  0  0  0  0  0
    2.9295    1.8750    5.9225 C   0  0  0  0  0  0  0  0  0  0  0  0
    1.8327    0.8894    5.7981 N   0  3  0  0  0  0  0  0  0  0  0  0
   -4.8363   -3.5521    3.7900 C   0  0  0  0  0  0  0  0  0  0  0  0
   -2.1530   -1.5712    2.1766 C   0  0  2  0  0  0  0  0  0  0  0  0
   -1.0132   -2.5867    2.1501 C   0  0  2  0  0  0  0  0  0  0  0  0
    0.0054   -2.1888    1.1492 N   0  3  0  0  0  0  0  0  0  0  0  0
   -1.5497   -3.9687    1.8017 C   0  0  1  0  0  0  0  0  0  0  0  0
   -0.4947   -4.9166    1.8563 O   0  0  0  0  0  0  0  0  0  0  0  0
   -2.6521   -4.3521    2.7864 C   0  0  2  0  0  0  0  0  0  0  0  0
   -3.2058   -5.6112    2.4265 O   0  0  0  0  0  0  0  0  0  0  0  0
   -4.5006   -2.9693    5.1094 N   0  3  0  0  0  0  0  0  0  0  0  0
   -3.7447   -3.2848    2.7684 C   0  0  2  0  0  0  0  0  0  0  0  0
   -3.1805   -1.9923    3.0699 O   0  0  0  0  0  0  0  0  0  0  0  0
   -3.4150    2.0906   -1.4606 C   0  0  2  0  0  0  0  0  0  0  0  0
   -3.7655    3.4838   -1.8205 N   0  3  0  0  0  0  0  0  0  0  0  0
   -4.5704    1.4406   -0.7078 C   0  0  0  0  0  0  0  0  0  0  0  0
   -4.2232    0.0077   -0.3291 C   0  0  2  0  0  0  0  0  0  0  0  0
   -5.3627   -0.5543    0.3820 N   0  3  0  0  0  0  0  0  0  0  0  0
   -2.9729   -0.0074    0.5473 C   0  0  1  0  0  0  0  0  0  0  0  0
   -2.6348   -1.3685    0.8778 O   0  0  0  0  0  0  0  0  0  0  0  0
   -1.7911    0.6502   -0.1788 C   0  0  2  0  0  0  0  0  0  0  0  0
   -0.6602    0.7136    0.7111 O   0  0  0  0  0  0  0  0  0  0  0  0
   -2.1322    2.0678   -0.6311 C   0  0  1  0  0  0  0  0  0  0  0  0
   -1.0595    2.5903   -1.4036 O   0  0  0  0  0  0  0  0  0  0  0  0
  1  2  1  0  0  0  0
  3  2  1  1  0  0  0
  3  5  1  0  0  0  0
  3  4  1  0  0  0  0
  4  9  1  0  0  0  0
  5  7  1  0  0  0  0
  5  6  1  1  0  0  0
  7  9  1  0  0  0  0
  7  8  1  6  0  0  0
  9 40  1  1  0  0  0
 10  6  1  6  0  0  0
 10 11  1  0  0  0  0
 10 18  1  0  0  0  0
 11 13  1  0  0  0  0
 11 12  1  1  0  0  0
 13 15  1  0  0  0  0
 13 14  1  6  0  0  0
 15 17  1  0  0  0  0
 15 16  1  6  0  0  0
 17 19  1  1  0  0  0
 17 18  1  0  0  0  0
 19 20  1  0  0  0  0
 21 29  1  0  0  0  0
 22 23  1  0  0  0  0
 22 31  1  0  0  0  0
 22 38  1  6  0  0  0
 23 25  1  0  0  0  0
 23 24  1  6  0  0  0
 25 27  1  0  0  0  0
 25 26  1  1  0  0  0
 27 30  1  0  0  0  0
 27 28  1  6  0  0  0
 30 21  1  1  0  0  0
 30 31  1  0  0  0  0
 32 34  1  0  0  0  0
 32 41  1  0  0  0  0
 32 33  1  1  0  0  0
 34 35  1  0  0  0  0
 35 37  1  0  0  0  0
 35 36  1  1  0  0  0
 37 39  1  0  0  0  0
 37 38  1  6  0  0  0
 39 41  1  0  0  0  0
 39 40  1  1  0  0  0
 41 42  1  6  0  0  0
M  CHG  6  12   1  20   1  24   1  29   1  33   1  36   1
M  END
>  <CHROM.1>
166.59970692,179.75398654,125.71473626,-164.45523516,68.97922760,-70.06480563
38.35385688,64.95047148,174.95156563,-128.74742214,115.03287353,87.44286254
-167.19396127,-140.35891293,-80.06766130,173.76823262,175.39374244,-168.86609260
68.74772595,-142.18308853,-177.18724329,-73.92879182,0.25522347,-0.25373339
1.76438831,0.07483597,-0.38467472,-0.70893644

>  <Name>
1NEM.B

>  <RI>
0

>  <Rbt.Current_Directory>
/home/itssahil/PROJECTS/Mol_Feturizer/New_Systems/rnas/1nem

>  <Rbt.Executable>
rbdock ($Id: //depot/dev/client3/rdock/2013.1/src/exe/rbdock.cxx#4 $)

>  <Rbt.Library>
libRbt.so (2013.1, Build901 2013/11/27)

>  <Rbt.Parameter_File>
/export/apps/rDock/src/rDock_2013.1_src/data/scripts/dock_solv.prm

>  <Rbt.Receptor>
prm/pocket_docking_2.prm

>  <SCORE>
-18.8187

>  <SCORE.INTER>
-32.2769

>  <SCORE.INTER.CONST>
1

>  <SCORE.INTER.POLAR>
-5.15867

>  <SCORE.INTER.ROT>
9

>  <SCORE.INTER.SOLV>
45.3307

>  <SCORE.INTER.VDW>
-29.0326

>  <SCORE.INTER.norm>
-0.768497

>  <SCORE.INTRA>
11.5461

>  <SCORE.INTRA.DIHEDRAL>
13.179

>  <SCORE.INTRA.DIHEDRAL.0>
22.4324

>  <SCORE.INTRA.POLAR>
-0.5907

>  <SCORE.INTRA.POLAR.0>
-1.83749

>  <SCORE.INTRA.REPUL>
0

>  <SCORE.INTRA.REPUL.0>
0

>  <SCORE.INTRA.SOLV>
1.13698

>  <SCORE.INTRA.SOLV.lig_0>
-160.638

>  <SCORE.INTRA.VDW>
6.39652

>  <SCORE.INTRA.VDW.0>
-7.61953

>  <SCORE.INTRA.norm>
0.274908

>  <SCORE.RESTR>
1.91204

>  <SCORE.RESTR.CAVITY>
1.91204

>  <SCORE.RESTR.norm>
0.0455247

>  <SCORE.SYSTEM>
0

>  <SCORE.SYSTEM.CONST>
0

>  <SCORE.SYSTEM.DIHEDRAL>
0

>  <SCORE.SYSTEM.SOLV>
0

>  <SCORE.SYSTEM.norm>
0

>  <SCORE.heavy>
42

>  <SCORE.norm>
-0.448065

>  <RMSD>
1.437

$$$$
1NEM.B
 OpenBabel11021811403D
libRbt.so/2013.1/901 2013/11/27
 42 45  0  0  0  0  0  0  0  0999 V2000
    2.7417   -3.7093    2.8957 O   0  0  0  0  0  0  0  0  0  0  0  0
    2.3838   -2.3285    2.8095 C   0  0  0  0  0  0  0  0  0  0  0  0
    2.2461   -1.8348    1.3700 C   0  0  1  0  0  0  0  0  0  0  0  0
    0.9295   -2.0716    0.8802 O   0  0  0  0  0  0  0  0  0  0  0  0
    2.4158   -0.3341    1.1950 C   0  0  1  0  0  0  0  0  0  0  0  0
    3.8033   -0.0400    1.3729 O   0  0  0  0  0  0  0  0  0  0  0  0
    1.8704   -0.1965   -0.2141 C   0  0  1  0  0  0  0  0  0  0  0  0
    2.7431   -0.7750   -1.1902 O   0  0  0  0  0  0  0  0  0  0  0  0
    0.6060   -1.0505   -0.0637 C   0  0  2  0  0  0  0  0  0  0  0  0
    4.1027    1.0767    2.1607 C   0  0  2  0  0  0  0  0  0  0  0  0
    5.5961    1.4042    2.0278 C   0  0  2  0  0  0  0  0  0  0  0  0
    6.4117    0.1979    2.3277 N   0  3  0  0  0  0  0  0  0  0  0  0
    5.9781    2.5838    2.9278 C   0  0  1  0  0  0  0  0  0  0  0  0
    5.4174    3.7822    2.4082 O   0  0  0  0  0  0  0  0  0  0  0  0
    5.4868    2.3664    4.3623 C   0  0  2  0  0  0  0  0  0  0  0  0
    6.2082    1.3057    4.9761 O   0  0  0  0  0  0  0  0  0  0  0  0
    3.9954    2.0433    4.3507 C   0  0  1  0  0  0  0  0  0  0  0  0
    3.7559    0.8862    3.5262 O   0  0  0  0  0  0  0  0  0  0  0  0
    3.4333    1.7587    5.7324 C   0  0  0  0  0  0  0  0  0  0  0  0
    2.3914    0.7083    5.6992 N   0  3  0  0  0  0  0  0  0  0  0  0
   -6.4849   -2.1296    2.5790 C   0  0  0  0  0  0  0  0  0  0  0  0
   -2.9842   -2.0740    1.3670 C   0  0  2  0  0  0  0  0  0  0  0  0
   -2.7208   -3.5636    1.1605 C   0  0  2  0  0  0  0  0  0  0  0  0
   -1.5644   -3.7594    0.2538 N   0  3  0  0  0  0  0  0  0  0  0  0
   -3.9496   -4.2359    0.5629 C   0  0  1  0  0  0  0  0  0  0  0  0
   -3.7201   -5.6318    0.4482 O   0  0  0  0  0  0  0  0  0  0  0  0
   -5.1603   -3.9741    1.4559 C   0  0  2  0  0  0  0  0  0  0  0  0
   -6.3254   -4.5399    0.8694 O   0  0  0  0  0  0  0  0  0  0  0  0
   -7.0513   -0.7912    2.2942 N   0  3  0  0  0  0  0  0  0  0  0  0
   -5.3498   -2.4683    1.6284 C   0  0  2  0  0  0  0  0  0  0  0  0
   -4.1491   -1.8754    2.1636 O   0  0  0  0  0  0  0  0  0  0  0  0
   -2.2132    2.4750   -1.2899 C   0  0  2  0  0  0  0  0  0  0  0  0
   -1.9674    3.9354   -1.2976 N   0  3  0  0  0  0  0  0  0  0  0  0
   -3.6100    2.1845   -0.7526 C   0  0  0  0  0  0  0  0  0  0  0  0
   -3.8759    0.6857   -0.7369 C   0  0  2  0  0  0  0  0  0  0  0  0
   -5.2200    0.4767   -0.2173 N   0  3  0  0  0  0  0  0  0  0  0  0
   -2.8389   -0.0146    0.1381 C   0  0  1  0  0  0  0  0  0  0  0  0
   -3.0804   -1.4351    0.1250 O   0  0  0  0  0  0  0  0  0  0  0  0
   -1.4182    0.2663   -0.3708 C   0  0  2  0  0  0  0  0  0  0  0  0
   -0.4628   -0.3199    0.5338 O   0  0  0  0  0  0  0  0  0  0  0  0
   -1.1435    1.7653   -0.4615 C   0  0  1  0  0  0  0  0  0  0  0  0
    0.1318    1.9790   -1.0519 O   0  0  0  0  0  0  0  0  0  0  0  0
  1  2  1  0  0  0  0
  3  2  1  1  0  0  0
  3  5  1  0  0  0  0
  3  4  1  0  0  0  0
  4  9  1  0  0  0  0
  5  7  1  0  0  0  0
  5  6  1  6  0  0  0
  7  9  1  0  0  0  0
  7  8  1  6  0  0  0
  9 40  1  1  0  0  0
 10  6  1  6  0  0  0
 10 11  1  0  0  0  0
 10 18  1  0  0  0  0
 11 13  1  0  0  0  0
 11 12  1  1  0  0  0
 13 15  1  0  0  0  0
 13 14  1  6  0  0  0
 15 17  1  0  0  0  0
 15 16  1  6  0  0  0
 17 19  1  1  0  0  0
 17 18  1  0  0  0  0
 19 20  1  0  0  0  0
 21 29  1  0  0  0  0
 22 23  1  0  0  0  0
 22 31  1  0  0  0  0
 22 38  1  6  0  0  0
 23 25  1  0  0  0  0
 23 24  1  6  0  0  0
 25 27  1  0  0  0  0
 25 26  1  1  0  0  0
 27 30  1  0  0  0  0
 27 28  1  6  0  0  0
 30 21  1  1  0  0  0
 30 31  1  0  0  0  0
 32 34  1  0  0  0  0
 32 41  1  0  0  0  0
 32 33  1  1  0  0  0
 34 35  1  0  0  0  0
 35 37  1  0  0  0  0
 35 36  1  1  0  0  0
 37 39  1  0  0  0  0
 37 38  1  6  0  0  0
 39 41  1  0  0  0  0
 39 40  1  1  0  0  0
 41 42  1  6  0  0  0
M  CHG  6  12   1  20   1  24   1  29   1  33   1  36   1
M  END
>  <CHROM.1>
65.52383516,86.88114620,-135.95112183,-169.23356644,65.51301433,-148.93263951
-53.07796822,-169.94295978,-96.50872338,-144.18184798,79.05698856,-154.58164910
41.97564874,-158.20402553,67.51387431,43.60231866,-51.85999197,173.79589939
-143.24592972,-136.85261381,134.43442800,67.54881880,-0.05613601,-0.43045959
1.41316792,-0.22431956,0.34364119,2.77269294

>  <Name>
1NEM.B

>  <RI>
0

>  <Rbt.Current_Directory>
/home/itssahil/PROJECTS/Mol_Feturizer/New_Systems/rnas/1nem

>  <Rbt.Executable>
rbdock ($Id: //depot/dev/client3/rdock/2013.1/src/exe/rbdock.cxx#4 $)

>  <Rbt.Library>
libRbt.so (2013.1, Build901 2013/11/27)

>  <Rbt.Parameter_File>
/export/apps/rDock/src/rDock_2013.1_src/data/scripts/dock_solv.prm

>  <Rbt.Receptor>
prm/pocket_docking_7.prm

>  <SCORE>
-34.2653

>  <SCORE.INTER>
-50.0559

>  <SCORE.INTER.CONST>
1

>  <SCORE.INTER.POLAR>
-7.14082

>  <SCORE.INTER.ROT>
9

>  <SCORE.INTER.SOLV>
48.2991

>  <SCORE.INTER.VDW>
-35.2675

>  <SCORE.INTER.norm>
-1.19181

>  <SCORE.INTRA>
15.7905

>  <SCORE.INTRA.DIHEDRAL>
21.8285

>  <SCORE.INTRA.DIHEDRAL.0>
22.4324

>  <SCORE.INTRA.POLAR>
0.637875

>  <SCORE.INTRA.POLAR.0>
-1.83749

>  <SCORE.INTRA.REPUL>
0

>  <SCORE.INTRA.REPUL.0>
0

>  <SCORE.INTRA.SOLV>
0.115903

>  <SCORE.INTRA.SOLV.lig_0>
-160.638

>  <SCORE.INTRA.VDW>
2.64959

>  <SCORE.INTRA.VDW.0>
-7.61953

>  <SCORE.INTRA.norm>
0.375965

>  <SCORE.RESTR>
0

>  <SCORE.RESTR.CAVITY>
0

>  <SCORE.RESTR.norm>
0

>  <SCORE.SYSTEM>
0

>  <SCORE.SYSTEM.CONST>
0

>  <SCORE.SYSTEM.DIHEDRAL>
0

>  <SCORE.SYSTEM.SOLV>
0

>  <SCORE.SYSTEM.norm>
0

>  <SCORE.heavy>
42

>  <SCORE.norm>
-0.815841

>  <RMSD>
1.462

$$$$
1NEM.B
 OpenBabel11021811403D
libRbt.so/2013.1/901 2013/11/27
 42 45  0  0  0  0  0  0  0  0999 V2000
    2.8729   -3.5436    2.8211 O   0  0  0  0  0  0  0  0  0  0  0  0
    1.8632   -3.6280    1.8134 C   0  0  0  0  0  0  0  0  0  0  0  0
    1.8377   -2.4119    0.8886 C   0  0  1  0  0  0  0  0  0  0  0  0
    0.5827   -2.3124    0.2220 O   0  0  0  0  0  0  0  0  0  0  0  0
    1.9600   -1.0727    1.5980 C   0  0  1  0  0  0  0  0  0  0  0  0
    3.3118   -0.9516    2.0466 O   0  0  0  0  0  0  0  0  0  0  0  0
    1.5410   -0.1620    0.4592 C   0  0  1  0  0  0  0  0  0  0  0  0
    2.5230   -0.1107   -0.5811 O   0  0  0  0  0  0  0  0  0  0  0  0
    0.3048   -0.9328   -0.0188 C   0  0  2  0  0  0  0  0  0  0  0  0
    3.6633    0.2714    2.6280 C   0  0  2  0  0  0  0  0  0  0  0  0
    4.7990    0.9096    1.8168 C   0  0  2  0  0  0  0  0  0  0  0  0
    5.9233   -0.0519    1.6689 N   0  3  0  0  0  0  0  0  0  0  0  0
    5.2577    2.2223    2.4600 C   0  0  1  0  0  0  0  0  0  0  0  0
    4.2516    3.2127    2.2939 O   0  0  0  0  0  0  0  0  0  0  0  0
    5.5522    2.0340    3.9513 C   0  0  2  0  0  0  0  0  0  0  0  0
    6.7060    1.2218    4.1282 O   0  0  0  0  0  0  0  0  0  0  0  0
    4.3504    1.3872    4.6341 C   0  0  1  0  0  0  0  0  0  0  0  0
    4.0429    0.1350    3.9912 O   0  0  0  0  0  0  0  0  0  0  0  0
    4.5762    1.1129    6.1106 C   0  0  0  0  0  0  0  0  0  0  0  0
    5.0661    2.3118    6.8265 N   0  3  0  0  0  0  0  0  0  0  0  0
   -3.8190   -3.0326    5.5181 C   0  0  0  0  0  0  0  0  0  0  0  0
   -2.2534   -2.3667    2.2268 C   0  0  2  0  0  0  0  0  0  0  0  0
   -1.8434   -3.7758    1.8057 C   0  0  2  0  0  0  0  0  0  0  0  0
   -1.6186   -3.8288    0.3414 N   0  3  0  0  0  0  0  0  0  0  0  0
   -2.9290   -4.7738    2.1857 C   0  0  1  0  0  0  0  0  0  0  0  0
   -2.5029   -6.0879    1.8597 O   0  0  0  0  0  0  0  0  0  0  0  0
   -3.2168   -4.6708    3.6818 C   0  0  2  0  0  0  0  0  0  0  0  0
   -4.2775   -5.5504    4.0322 O   0  0  0  0  0  0  0  0  0  0  0  0
   -5.1610   -2.4748    5.8025 N   0  3  0  0  0  0  0  0  0  0  0  0
   -3.6033   -3.2342    4.0283 C   0  0  2  0  0  0  0  0  0  0  0  0
   -2.5598   -2.3273    3.6180 O   0  0  0  0  0  0  0  0  0  0  0  0
   -3.3286    1.4344   -1.1517 C   0  0  2  0  0  0  0  0  0  0  0  0
   -3.2684    2.8390   -1.6173 N   0  3  0  0  0  0  0  0  0  0  0  0
   -4.4918    1.2561   -0.1826 C   0  0  0  0  0  0  0  0  0  0  0  0
   -4.5647   -0.1837    0.3064 C   0  0  2  0  0  0  0  0  0  0  0  0
   -5.6917   -0.2870    1.2225 N   0  3  0  0  0  0  0  0  0  0  0  0
   -3.2596   -0.5597    1.0041 C   0  0  1  0  0  0  0  0  0  0  0  0
   -3.3258   -1.9320    1.4388 O   0  0  0  0  0  0  0  0  0  0  0  0
   -2.0649   -0.3815    0.0569 C   0  0  2  0  0  0  0  0  0  0  0  0
   -0.8439   -0.6431    0.7748 O   0  0  0  0  0  0  0  0  0  0  0  0
   -2.0033    1.0371   -0.5036 C   0  0  1  0  0  0  0  0  0  0  0  0
   -0.9612    1.1218   -1.4667 O   0  0  0  0  0  0  0  0  0  0  0  0
  1  2  1  0  0  0  0
  3  2  1  1  0  0  0
  3  5  1  0  0  0  0
  3  4  1  0  0  0  0
  4  9  1  0  0  0  0
  5  7  1  0  0  0  0
  5  6  1  6  0  0  0
  7  9  1  0  0  0  0
  7  8  1  6  0  0  0
  9 40  1  1  0  0  0
 10  6  1  6  0  0  0
 10 11  1  0  0  0  0
 10 18  1  0  0  0  0
 11 13  1  0  0  0  0
 11 12  1  1  0  0  0
 13 15  1  0  0  0  0
 13 14  1  1  0  0  0
 15 17  1  0  0  0  0
 15 16  1  6  0  0  0
 17 19  1  1  0  0  0
 17 18  1  0  0  0  0
 19 20  1  0  0  0  0
 21 29  1  0  0  0  0
 22 23  1  0  0  0  0
 22 31  1  0  0  0  0
 22 38  1  6  0  0  0
 23 25  1  0  0  0  0
 23 24  1  6  0  0  0
 25 27  1  0  0  0  0
 25 26  1  1  0  0  0
 27 30  1  0  0  0  0
 27 28  1  6  0  0  0
 30 21  1  1  0  0  0
 30 31  1  0  0  0  0
 32 34  1  0  0  0  0
 32 41  1  0  0  0  0
 32 33  1  1  0  0  0
 34 35  1  0  0  0  0
 35 37  1  0  0  0  0
 35 36  1  1  0  0  0
 37 39  1  0  0  0  0
 37 38  1  6  0  0  0
 39 41  1  0  0  0  0
 39 40  1  1  0  0  0
 41 42  1  6  0  0  0
M  CHG  6  12   1  20   1  24   1  29   1  33   1  36   1
M  END
>  <CHROM.1>
-27.31146890,-160.21480835,174.65167331,-119.99881839,70.34595986,-110.95569434
163.75526559,-49.99503005,70.36996810,51.13817801,-87.77591209,-124.48216738
39.43457231,-138.68542855,64.45484480,-64.44975261,-44.63405716,139.21862649
-144.01164154,-173.14980094,161.04661730,-53.63832259,0.09866978,-0.92936044
2.02587423,-0.16650707,0.37191643,2.38864165

>  <Name>
1NEM.B

>  <RI>
0

>  <Rbt.Current_Directory>
/home/itssahil/PROJECTS/Mol_Feturizer/New_Systems/rnas/1nem

>  <Rbt.Executable>
rbdock ($Id: //depot/dev/client3/rdock/2013.1/src/exe/rbdock.cxx#4 $)

>  <Rbt.Library>
libRbt.so (2013.1, Build901 2013/11/27)

>  <Rbt.Parameter_File>
/export/apps/rDock/src/rDock_2013.1_src/data/scripts/dock_solv.prm

>  <Rbt.Receptor>
prm/pocket_docking_5.prm

>  <SCORE>
-50.474

>  <SCORE.INTER>
-62.6898

>  <SCORE.INTER.CONST>
1

>  <SCORE.INTER.POLAR>
-8.69333

>  <SCORE.INTER.ROT>
9

>  <SCORE.INTER.SOLV>
38.5788

>  <SCORE.INTER.VDW>
-35.275

>  <SCORE.INTER.norm>
-1.49261

>  <SCORE.INTRA>
12.2158

>  <SCORE.INTRA.DIHEDRAL>
21.9237

>  <SCORE.INTRA.DIHEDRAL.0>
22.4324

>  <SCORE.INTRA.POLAR>
-0.415723

>  <SCORE.INTRA.POLAR.0>
-1.83749

>  <SCORE.INTRA.REPUL>
0

>  <SCORE.INTRA.REPUL.0>
0

>  <SCORE.INTRA.SOLV>
-3.7029

>  <SCORE.INTRA.SOLV.lig_0>
-160.638

>  <SCORE.INTRA.VDW>
4.51882

>  <SCORE.INTRA.VDW.0>
-7.61953

>  <SCORE.INTRA.norm>
0.290852

>  <SCORE.RESTR>
0

>  <SCORE.RESTR.CAVITY>
0

>  <SCORE.RESTR.norm>
0

>  <SCORE.SYSTEM>
0

>  <SCORE.SYSTEM.CONST>
0

>  <SCORE.SYSTEM.DIHEDRAL>
0

>  <SCORE.SYSTEM.SOLV>
0

>  <SCORE.SYSTEM.norm>
0

>  <SCORE.heavy>
42

>  <SCORE.norm>
-1.20176

>  <RMSD>
1.481

$$$$
1NEM.B
 OpenBabel11021811403D
libRbt.so/2013.1/901 2013/11/27
 42 45  0  0  0  0  0  0  0  0999 V2000
    1.7225   -2.6753    0.0723 O   0  0  0  0  0  0  0  0  0  0  0  0
    2.6856   -1.9608   -0.7048 C   0  0  0  0  0  0  0  0  0  0  0  0
    2.3558   -0.4758   -0.8485 C   0  0  1  0  0  0  0  0  0  0  0  0
    0.9973   -0.2971   -1.2386 O   0  0  0  0  0  0  0  0  0  0  0  0
    2.4537    0.3235    0.4411 C   0  0  1  0  0  0  0  0  0  0  0  0
    3.8422    0.4587    0.7526 O   0  0  0  0  0  0  0  0  0  0  0  0
    1.7348    1.5828   -0.0053 C   0  0  1  0  0  0  0  0  0  0  0  0
    2.4991    2.3337   -0.9546 O   0  0  0  0  0  0  0  0  0  0  0  0
    0.5270    0.9357   -0.6931 C   0  0  2  0  0  0  0  0  0  0  0  0
    4.1464    1.1184    1.9482 C   0  0  2  0  0  0  0  0  0  0  0  0
    5.6703    1.2305    2.0909 C   0  0  2  0  0  0  0  0  0  0  0  0
    6.2964   -0.1102    1.9465 N   0  3  0  0  0  0  0  0  0  0  0  0
    6.0465    1.8905    3.4214 C   0  0  1  0  0  0  0  0  0  0  0  0
    5.7018    3.2691    3.3850 O   0  0  0  0  0  0  0  0  0  0  0  0
    5.3331    1.2133    4.5956 C   0  0  2  0  0  0  0  0  0  0  0  0
    5.8374   -0.1023    4.7877 O   0  0  0  0  0  0  0  0  0  0  0  0
    3.8324    1.1611    4.3234 C   0  0  1  0  0  0  0  0  0  0  0  0
    3.5880    0.4695    3.0833 O   0  0  0  0  0  0  0  0  0  0  0  0
    3.0496    0.4547    5.4161 C   0  0  0  0  0  0  0  0  0  0  0  0
    3.1400    1.1679    6.7096 N   0  3  0  0  0  0  0  0  0  0  0  0
   -5.8793   -2.5910    3.4681 C   0  0  0  0  0  0  0  0  0  0  0  0
   -2.4591   -1.4146    2.6646 C   0  0  2  0  0  0  0  0  0  0  0  0
   -1.6410   -2.6714    2.9511 C   0  0  2  0  0  0  0  0  0  0  0  0
   -0.3256   -2.5934    2.2718 N   0  3  0  0  0  0  0  0  0  0  0  0
   -2.3877   -3.9060    2.4641 C   0  0  1  0  0  0  0  0  0  0  0  0
   -1.6536   -5.0718    2.8054 O   0  0  0  0  0  0  0  0  0  0  0  0
   -3.7731   -3.9511    3.1048 C   0  0  2  0  0  0  0  0  0  0  0  0
   -4.5025   -5.0632    2.6023 O   0  0  0  0  0  0  0  0  0  0  0  0
   -5.7510   -2.2669    4.9074 N   0  3  0  0  0  0  0  0  0  0  0  0
   -4.5226   -2.6582    2.7887 C   0  0  2  0  0  0  0  0  0  0  0  0
   -3.7595   -1.5200    3.2380 O   0  0  0  0  0  0  0  0  0  0  0  0
   -3.6254    2.1007   -1.1609 C   0  0  2  0  0  0  0  0  0  0  0  0
   -3.9241    3.4876   -1.5858 N   0  3  0  0  0  0  0  0  0  0  0  0
   -4.5429    1.6988   -0.0117 C   0  0  0  0  0  0  0  0  0  0  0  0
   -4.2454    0.2750    0.4374 C   0  0  2  0  0  0  0  0  0  0  0  0
   -5.1520   -0.0464    1.5305 N   0  3  0  0  0  0  0  0  0  0  0  0
   -2.7903    0.1679    0.8873 C   0  0  1  0  0  0  0  0  0  0  0  0
   -2.5091   -1.1886    1.2838 O   0  0  0  0  0  0  0  0  0  0  0  0
   -1.8385    0.5760   -0.2458 C   0  0  2  0  0  0  0  0  0  0  0  0
   -0.4834    0.5645    0.2421 O   0  0  0  0  0  0  0  0  0  0  0  0
   -2.1553    1.9766   -0.7640 C   0  0  1  0  0  0  0  0  0  0  0  0
   -1.3353    2.2628   -1.8893 O   0  0  0  0  0  0  0  0  0  0  0  0
  1  2  1  0  0  0  0
  3  2  1  1  0  0  0
  3  5  1  0  0  0  0
  3  4  1  0  0  0  0
  4  9  1  0  0  0  0
  5  7  1  0  0  0  0
  5  6  1  6  0  0  0
  7  9  1  0  0  0  0
  7  8  1  6  0  0  0
  9 40  1  1  0  0  0
 10  6  1  6  0  0  0
 10 11  1  0  0  0  0
 10 18  1  0  0  0  0
 11 13  1  0  0  0  0
 11 12  1  1  0  0  0
 13 15  1  0  0  0  0
 13 14  1  6  0  0  0
 15 17  1  0  0  0  0
 15 16  1  6  0  0  0
 17 19  1  1  0  0  0
 17 18  1  0  0  0  0
 19 20  1  0  0  0  0
 21 29  1  0  0  0  0
 22 23  1  0  0  0  0
 22 31  1  0  0  0  0
 22 38  1  6  0  0  0
 23 25  1  0  0  0  0
 23 24  1  6  0  0  0
 25 27  1  0  0  0  0
 25 26  1  1  0  0  0
 27 30  1  0  0  0  0
 27 28  1  6  0  0  0
 30 21  1  1  0  0  0
 30 31  1  0  0  0  0
 32 34  1  0  0  0  0
 32 41  1  0  0  0  0
 32 33  1  1  0  0  0
 34 35  1  0  0  0  0
 35 37  1  0  0  0  0
 35 36  1  1  0  0  0
 37 39  1  0  0  0  0
 37 38  1  6  0  0  0
 39 41  1  0  0  0  0
 39 40  1  1  0  0  0
 41 42  1  6  0  0  0
M  CHG  6  12   1  20   1  24   1  29   1  33   1  36   1
M  END
>  <CHROM.1>
172.12843242,-48.57435910,-177.19966438,-177.40509734,-66.00679050,-94.81828266
-79.73870103,-57.99666337,175.51116960,63.54445336,83.25311893,76.59972257
86.98141247,-157.65983089,-55.59508516,171.32299266,83.86055163,-41.49675928
8.15889238,-103.08341887,-179.42324642,-64.37096172,0.06483600,-0.25606570
1.70211844,-0.10660175,0.27985772,2.27615198

>  <Name>
1NEM.B

>  <RI>
0

>  <Rbt.Current_Directory>
/home/itssahil/PROJECTS/Mol_Feturizer/New_Systems/rnas/1nem

>  <Rbt.Executable>
rbdock ($Id: //depot/dev/client3/rdock/2013.1/src/exe/rbdock.cxx#4 $)

>  <Rbt.Library>
libRbt.so (2013.1, Build901 2013/11/27)

>  <Rbt.Parameter_File>
/export/apps/rDock/src/rDock_2013.1_src/data/scripts/dock_solv.prm

>  <Rbt.Receptor>
prm/pocket_docking_3.prm

>  <SCORE>
-39.0219

>  <SCORE.INTER>
-47.1979

>  <SCORE.INTER.CONST>
1

>  <SCORE.INTER.POLAR>
-6.57958

>  <SCORE.INTER.ROT>
9

>  <SCORE.INTER.SOLV>
39.1173

>  <SCORE.INTER.VDW>
-32.1724

>  <SCORE.INTER.norm>
-1.12376

>  <SCORE.INTRA>
8.17594

>  <SCORE.INTRA.DIHEDRAL>
3.83959

>  <SCORE.INTRA.DIHEDRAL.0>
22.4324

>  <SCORE.INTRA.POLAR>
0.274726

>  <SCORE.INTRA.POLAR.0>
-1.83749

>  <SCORE.INTRA.REPUL>
0

>  <SCORE.INTRA.REPUL.0>
0

>  <SCORE.INTRA.SOLV>
0.48965

>  <SCORE.INTRA.SOLV.lig_0>
-160.638

>  <SCORE.INTRA.VDW>
5.07726

>  <SCORE.INTRA.VDW.0>
-7.61953

>  <SCORE.INTRA.norm>
0.194665

>  <SCORE.RESTR>
0

>  <SCORE.RESTR.CAVITY>
0

>  <SCORE.RESTR.norm>
0

>  <SCORE.SYSTEM>
0

>  <SCORE.SYSTEM.CONST>
0

>  <SCORE.SYSTEM.DIHEDRAL>
0

>  <SCORE.SYSTEM.SOLV>
0

>  <SCORE.SYSTEM.norm>
0

>  <SCORE.heavy>
42

>  <SCORE.norm>
-0.929094

>  <RMSD>
1.492

$$$$
1NEM.B
 OpenBabel11021811403D
libRbt.so/2013.1/901 2013/11/27
 42 45  0  0  0  0  0  0  0  0999 V2000
    2.4618   -5.4412    1.9458 O   0  0  0  0  0  0  0  0  0  0  0  0
    2.0192   -4.2481    2.5958 C   0  0  0  0  0  0  0  0  0  0  0  0
    2.0632   -3.0203    1.6874 C   0  0  1  0  0  0  0  0  0  0  0  0
    0.9120   -2.9722    0.8496 O   0  0  0  0  0  0  0  0  0  0  0  0
    2.0151   -1.6881    2.4185 C   0  0  1  0  0  0  0  0  0  0  0  0
    3.2816   -1.5076    3.0562 O   0  0  0  0  0  0  0  0  0  0  0  0
    1.7161   -0.7812    1.2395 C   0  0  1  0  0  0  0  0  0  0  0  0
    2.8318   -0.6652    0.3503 O   0  0  0  0  0  0  0  0  0  0  0  0
    0.6012   -1.6043    0.5836 C   0  0  2  0  0  0  0  0  0  0  0  0
    3.6665   -0.1856    3.3038 C   0  0  2  0  0  0  0  0  0  0  0  0
    5.0101   -0.1802    4.0455 C   0  0  2  0  0  0  0  0  0  0  0  0
    4.9280   -1.0386    5.2565 N   0  3  0  0  0  0  0  0  0  0  0  0
    5.4353    1.2501    4.3934 C   0  0  1  0  0  0  0  0  0  0  0  0
    5.8074    1.9396    3.2073 O   0  0  0  0  0  0  0  0  0  0  0  0
    4.3040    2.0080    5.0949 C   0  0  2  0  0  0  0  0  0  0  0  0
    4.0744    1.4656    6.3891 O   0  0  0  0  0  0  0  0  0  0  0  0
    3.0304    1.9179    4.2590 C   0  0  1  0  0  0  0  0  0  0  0  0
    2.6888    0.5350    4.0426 O   0  0  0  0  0  0  0  0  0  0  0  0
    1.8384    2.5990    4.9081 C   0  0  0  0  0  0  0  0  0  0  0  0
    1.1255    3.4852    3.9614 N   0  3  0  0  0  0  0  0  0  0  0  0
   -5.4938   -2.1294    5.0084 C   0  0  0  0  0  0  0  0  0  0  0  0
   -2.7658   -2.9754    2.6485 C   0  0  2  0  0  0  0  0  0  0  0  0
   -2.7668   -4.4999    2.7322 C   0  0  2  0  0  0  0  0  0  0  0  0
   -2.0874   -5.0792    1.5488 N   0  3  0  0  0  0  0  0  0  0  0  0
   -4.1962   -5.0209    2.7984 C   0  0  1  0  0  0  0  0  0  0  0  0
   -4.1820   -6.4316    2.9540 O   0  0  0  0  0  0  0  0  0  0  0  0
   -4.9234   -4.3701    3.9729 C   0  0  2  0  0  0  0  0  0  0  0  0
   -6.2788   -4.7986    4.0002 O   0  0  0  0  0  0  0  0  0  0  0  0
   -4.7290   -2.3604    6.2554 N   0  3  0  0  0  0  0  0  0  0  0  0
   -4.8666   -2.8505    3.8281 C   0  0  2  0  0  0  0  0  0  0  0  0
   -3.4958   -2.4121    3.7351 O   0  0  0  0  0  0  0  0  0  0  0  0
   -2.7283    0.9416   -0.9185 C   0  0  2  0  0  0  0  0  0  0  0  0
   -2.5338    2.3663   -1.2730 N   0  3  0  0  0  0  0  0  0  0  0  0
   -4.0317    0.7700   -0.1466 C   0  0  0  0  0  0  0  0  0  0  0  0
   -4.2438   -0.6905    0.2267 C   0  0  2  0  0  0  0  0  0  0  0  0
   -5.5000   -0.7862    0.9568 N   0  3  0  0  0  0  0  0  0  0  0  0
   -3.0780   -1.1804    1.0824 C   0  0  1  0  0  0  0  0  0  0  0  0
   -3.2723   -2.5706    1.4077 O   0  0  0  0  0  0  0  0  0  0  0  0
   -1.7469   -1.0119    0.3368 C   0  0  2  0  0  0  0  0  0  0  0  0
   -0.6618   -1.3842    1.2078 O   0  0  0  0  0  0  0  0  0  0  0  0
   -1.5360    0.4325   -0.1102 C   0  0  1  0  0  0  0  0  0  0  0  0
   -0.3575    0.5173   -0.9005 O   0  0  0  0  0  0  0  0  0  0  0  0
  1  2  1  0  0  0  0
  3  2  1  1  0  0  0
  3  5  1  0  0  0  0
  3  4  1  0  0  0  0
  4  9  1  0  0  0  0
  5  7  1  0  0  0  0
  5  6  1  6  0  0  0
  7  9  1  0  0  0  0
  7  8  1  6  0  0  0
  9 40  1  1  0  0  0
 10  6  1  1  0  0  0
 10 11  1  0  0  0  0
 10 18  1  0  0  0  0
 11 13  1  0  0  0  0
 11 12  1  1  0  0  0
 13 15  1  0  0  0  0
 13 14  1  6  0  0  0
 15 17  1  0  0  0  0
 15 16  1  1  0  0  0
 17 19  1  1  0  0  0
 17 18  1  0  0  0  0
 19 20  1  0  0  0  0
 21 29  1  0  0  0  0
 22 23  1  0  0  0  0
 22 31  1  0  0  0  0
 22 38  1  6  0  0  0
 23 25  1  0  0  0  0
 23 24  1  6  0  0  0
 25 27  1  0  0  0  0
 25 26  1  1  0  0  0
 27 30  1  0  0  0  0
 27 28  1  6  0  0  0
 30 21  1  1  0  0  0
 30 31  1  0  0  0  0
 32 34  1  0  0  0  0
 32 41  1  0  0  0  0
 32 33  1  1  0  0  0
 34 35  1  0  0  0  0
 35 37  1  0  0  0  0
 35 36  1  1  0  0  0
 37 39  1  0  0  0  0
 37 38  1  6  0  0  0
 39 41  1  0  0  0  0
 39 40  1  1  0  0  0
 41 42  1  6  0  0  0
M  CHG  6  12   1  20   1  24   1  29   1  33   1  36   1
M  END
>  <CHROM.1>
-51.43172691,81.48554611,154.50336615,177.41573286,-174.29946656,-118.22443708
26.75778346,-51.56737277,-178.79480418,131.94532387,-69.29732852,65.49107272
-144.80192414,-167.83407266,-21.14653667,50.00169379,-76.11931326,40.14419227
-170.95016919,-148.07025245,164.97567782,-52.53631854,-0.37104816,-1.28702791
2.50998919,-0.28928985,0.34801504,2.61784779

>  <Name>
1NEM.B

>  <RI>
0

>  <Rbt.Current_Directory>
/home/itssahil/PROJECTS/Mol_Feturizer/New_Systems/rnas/1nem

>  <Rbt.Executable>
rbdock ($Id: //depot/dev/client3/rdock/2013.1/src/exe/rbdock.cxx#4 $)

>  <Rbt.Library>
libRbt.so (2013.1, Build901 2013/11/27)

>  <Rbt.Parameter_File>
/export/apps/rDock/src/rDock_2013.1_src/data/scripts/dock_solv.prm

>  <Rbt.Receptor>
prm/pocket_docking_3.prm

>  <SCORE>
-54.0364

>  <SCORE.INTER>
-62.9051

>  <SCORE.INTER.CONST>
1

>  <SCORE.INTER.POLAR>
-7.94876

>  <SCORE.INTER.ROT>
9

>  <SCORE.INTER.SOLV>
45.0108

>  <SCORE.INTER.VDW>
-40.0445

>  <SCORE.INTER.norm>
-1.49774

>  <SCORE.INTRA>
8.86868

>  <SCORE.INTRA.DIHEDRAL>
11.2745

>  <SCORE.INTRA.DIHEDRAL.0>
22.4324

>  <SCORE.INTRA.POLAR>
0.690972

>  <SCORE.INTRA.POLAR.0>
-1.83749

>  <SCORE.INTRA.REPUL>
0

>  <SCORE.INTRA.REPUL.0>
0

>  <SCORE.INTRA.SOLV>
-6.31394

>  <SCORE.INTRA.SOLV.lig_0>
-160.638

>  <SCORE.INTRA.VDW>
4.03908

>  <SCORE.INTRA.VDW.0>
-7.61953

>  <SCORE.INTRA.norm>
0.211159

>  <SCORE.RESTR>
0

>  <SCORE.RESTR.CAVITY>
0

>  <SCORE.RESTR.norm>
0

>  <SCORE.SYSTEM>
0

>  <SCORE.SYSTEM.CONST>
0

>  <SCORE.SYSTEM.DIHEDRAL>
0

>  <SCORE.SYSTEM.SOLV>
0

>  <SCORE.SYSTEM.norm>
0

>  <SCORE.heavy>
42

>  <SCORE.norm>
-1.28658

>  <RMSD>
1.559

$$$$
1NEM.B
 OpenBabel11021811403D
libRbt.so/2013.1/901 2013/11/27
 42 45  0  0  0  0  0  0  0  0999 V2000
    2.7313   -3.5001    0.6297 O   0  0  0  0  0  0  0  0  0  0  0  0
    3.3200   -2.5126   -0.2190 C   0  0  0  0  0  0  0  0  0  0  0  0
    2.6900   -1.1302   -0.0550 C   0  0  1  0  0  0  0  0  0  0  0  0
    1.6097   -0.9577   -0.9674 O   0  0  0  0  0  0  0  0  0  0  0  0
    2.0426   -0.8846    1.2985 C   0  0  1  0  0  0  0  0  0  0  0  0
    3.0965   -0.7361    2.2527 O   0  0  0  0  0  0  0  0  0  0  0  0
    1.2544    0.3670    0.9608 C   0  0  1  0  0  0  0  0  0  0  0  0
    2.1032    1.5011    0.7553 O   0  0  0  0  0  0  0  0  0  0  0  0
    0.6474   -0.0871   -0.3720 C   0  0  2  0  0  0  0  0  0  0  0  0
    3.2857    0.5500    2.7700 C   0  0  2  0  0  0  0  0  0  0  0  0
    4.7266    0.6829    3.2814 C   0  0  2  0  0  0  0  0  0  0  0  0
    5.0344   -0.4184    4.2315 N   0  3  0  0  0  0  0  0  0  0  0  0
    4.9553    2.0585    3.9161 C   0  0  1  0  0  0  0  0  0  0  0  0
    4.9616    3.0564    2.9039 O   0  0  0  0  0  0  0  0  0  0  0  0
    3.8688    2.3792    4.9471 C   0  0  2  0  0  0  0  0  0  0  0  0
    3.9955    1.5282    6.0793 O   0  0  0  0  0  0  0  0  0  0  0  0
    2.4917    2.2017    4.3138 C   0  0  1  0  0  0  0  0  0  0  0  0
    2.3611    0.8603    3.8044 O   0  0  0  0  0  0  0  0  0  0  0  0
    1.3498    2.4478    5.2841 C   0  0  0  0  0  0  0  0  0  0  0  0
    1.4394    1.5746    6.4755 N   0  3  0  0  0  0  0  0  0  0  0  0
   -6.5949   -2.0645    3.2871 C   0  0  0  0  0  0  0  0  0  0  0  0
   -2.9891   -1.3165    2.8793 C   0  0  2  0  0  0  0  0  0  0  0  0
   -2.3588   -2.5682    3.4851 C   0  0  2  0  0  0  0  0  0  0  0  0
   -0.9568   -2.7107    3.0250 N   0  3  0  0  0  0  0  0  0  0  0  0
   -3.1509   -3.8037    3.0790 C   0  0  1  0  0  0  0  0  0  0  0  0
   -2.6018   -4.9501    3.7105 O   0  0  0  0  0  0  0  0  0  0  0  0
   -4.6127   -3.6298    3.4850 C   0  0  2  0  0  0  0  0  0  0  0  0
   -5.3727   -4.7490    3.0478 O   0  0  0  0  0  0  0  0  0  0  0  0
   -6.7434   -2.1365    4.7587 N   0  3  0  0  0  0  0  0  0  0  0  0
   -5.1674   -2.3532    2.8560 C   0  0  2  0  0  0  0  0  0  0  0  0
   -4.3638   -1.2200    3.2428 O   0  0  0  0  0  0  0  0  0  0  0  0
   -2.8145    1.8682   -1.3125 C   0  0  2  0  0  0  0  0  0  0  0  0
   -2.5265    3.1803   -1.9361 N   0  3  0  0  0  0  0  0  0  0  0  0
   -3.5137    2.0703    0.0271 C   0  0  0  0  0  0  0  0  0  0  0  0
   -3.8142    0.7290    0.6812 C   0  0  2  0  0  0  0  0  0  0  0  0
   -4.4800    0.9906    1.9495 N   0  3  0  0  0  0  0  0  0  0  0  0
   -2.5152   -0.0438    0.8973 C   0  0  1  0  0  0  0  0  0  0  0  0
   -2.8109   -1.3232    1.4906 O   0  0  0  0  0  0  0  0  0  0  0  0
   -1.7801   -0.2560   -0.4334 C   0  0  2  0  0  0  0  0  0  0  0  0
   -0.5131   -0.8934   -0.1821 O   0  0  0  0  0  0  0  0  0  0  0  0
   -1.5230    1.0689   -1.1470 C   0  0  1  0  0  0  0  0  0  0  0  0
   -0.9552    0.8168   -2.4254 O   0  0  0  0  0  0  0  0  0  0  0  0
  1  2  1  0  0  0  0
  3  2  1  1  0  0  0
  3  5  1  0  0  0  0
  3  4  1  0  0  0  0
  4  9  1  0  0  0  0
  5  7  1  0  0  0  0
  5  6  1  1  0  0  0
  7  9  1  0  0  0  0
  7  8  1  6  0  0  0
  9 40  1  1  0  0  0
 10  6  1  1  0  0  0
 10 11  1  0  0  0  0
 10 18  1  0  0  0  0
 11 13  1  0  0  0  0
 11 12  1  1  0  0  0
 13 15  1  0  0  0  0
 13 14  1  6  0  0  0
 15 17  1  0  0  0  0
 15 16  1  1  0  0  0
 17 19  1  1  0  0  0
 17 18  1  0  0  0  0
 19 20  1  0  0  0  0
 21 29  1  0  0  0  0
 22 23  1  0  0  0  0
 22 31  1  0  0  0  0
 22 38  1  6  0  0  0
 23 25  1  0  0  0  0
 23 24  1  6  0  0  0
 25 27  1  0  0  0  0
 25 26  1  1  0  0  0
 27 30  1  0  0  0  0
 27 28  1  6  0  0  0
 30 21  1  1  0  0  0
 30 31  1  0  0  0  0
 32 34  1  0  0  0  0
 32 41  1  0  0  0  0
 32 33  1  1  0  0  0
 34 35  1  0  0  0  0
 35 37  1  0  0  0  0
 35 36  1  1  0  0  0
 37 39  1  0  0  0  0
 37 38  1  6  0  0  0
 39 41  1  0  0  0  0
 39 40  1  1  0  0  0
 41 42  1  6  0  0  0
M  CHG  6  12   1  20   1  24   1  29   1  33   1  36   1
M  END
>  <CHROM.1>
-56.29437182,-90.88138228,109.70054409,-156.72317632,-166.17609782,-141.21983574
-14.44808859,168.13484761,-67.53644431,-56.75266248,177.33451738,49.83775010
-38.44779871,-141.11437782,37.94592817,-167.21637390,-67.35552689,61.65556019
48.53440884,-82.32413534,-109.36336817,68.95025347,-0.33140132,-0.35709020
2.09676932,0.04559360,-0.35207237,-1.15707402

>  <Name>
1NEM.B

>  <RI>
0

>  <Rbt.Current_Directory>
/home/itssahil/PROJECTS/Mol_Feturizer/New_Systems/rnas/1nem

>  <Rbt.Executable>
rbdock ($Id: //depot/dev/client3/rdock/2013.1/src/exe/rbdock.cxx#4 $)

>  <Rbt.Library>
libRbt.so (2013.1, Build901 2013/11/27)

>  <Rbt.Parameter_File>
/export/apps/rDock/src/rDock_2013.1_src/data/scripts/dock_solv.prm

>  <Rbt.Receptor>
prm/blind_docking_20.prm

>  <SCORE>
3.0671

>  <SCORE.INTER>
-30.3613

>  <SCORE.INTER.CONST>
1

>  <SCORE.INTER.POLAR>
-5.28355

>  <SCORE.INTER.ROT>
9

>  <SCORE.INTER.SOLV>
46.6348

>  <SCORE.INTER.VDW>
-27.7739

>  <SCORE.INTER.norm>
-0.722887

>  <SCORE.INTRA>
24.1601

>  <SCORE.INTRA.DIHEDRAL>
17.8896

>  <SCORE.INTRA.DIHEDRAL.0>
22.4324

>  <SCORE.INTRA.POLAR>
0.625926

>  <SCORE.INTRA.POLAR.0>
-1.83749

>  <SCORE.INTRA.REPUL>
0

>  <SCORE.INTRA.REPUL.0>
0

>  <SCORE.INTRA.SOLV>
2.29868

>  <SCORE.INTRA.SOLV.lig_0>
-160.638

>  <SCORE.INTRA.VDW>
11.9378

>  <SCORE.INTRA.VDW.0>
-7.61953

>  <SCORE.INTRA.norm>
0.575242

>  <SCORE.RESTR>
9.26821

>  <SCORE.RESTR.CAVITY>
9.26821

>  <SCORE.RESTR.norm>
0.220672

>  <SCORE.SYSTEM>
0

>  <SCORE.SYSTEM.CONST>
0

>  <SCORE.SYSTEM.DIHEDRAL>
0

>  <SCORE.SYSTEM.SOLV>
0

>  <SCORE.SYSTEM.norm>
0

>  <SCORE.heavy>
42

>  <SCORE.norm>
0.0730262

>  <RMSD>
1.571

$$$$
1NEM.B
 OpenBabel11021811403D
libRbt.so/2013.1/901 2013/11/27
 42 45  0  0  0  0  0  0  0  0999 V2000
    3.5721   -2.4630    3.6948 O   0  0  0  0  0  0  0  0  0  0  0  0
    2.3236   -2.5067    3.0010 C   0  0  0  0  0  0  0  0  0  0  0  0
    2.4174   -1.9871    1.5671 C   0  0  1  0  0  0  0  0  0  0  0  0
    1.1604   -2.1022    0.9066 O   0  0  0  0  0  0  0  0  0  0  0  0
    2.7362   -0.5053    1.4488 C   0  0  1  0  0  0  0  0  0  0  0  0
    4.1087   -0.3359    1.8106 O   0  0  0  0  0  0  0  0  0  0  0  0
    2.3929   -0.3049   -0.0154 C   0  0  1  0  0  0  0  0  0  0  0  0
    3.3326   -0.9470   -0.8835 O   0  0  0  0  0  0  0  0  0  0  0  0
    1.0512   -1.0463   -0.0483 C   0  0  2  0  0  0  0  0  0  0  0  0
    4.4045    0.7705    2.6141 C   0  0  2  0  0  0  0  0  0  0  0  0
    5.9131    1.0469    2.5593 C   0  0  2  0  0  0  0  0  0  0  0  0
    6.6706   -0.1862    2.8998 N   0  3  0  0  0  0  0  0  0  0  0  0
    6.2876    2.2134    3.4794 C   0  0  1  0  0  0  0  0  0  0  0  0
    5.7957    3.4298    2.9327 O   0  0  0  0  0  0  0  0  0  0  0  0
    5.7153    2.0137    4.8861 C   0  0  2  0  0  0  0  0  0  0  0  0
    6.3674    0.9296    5.5353 O   0  0  0  0  0  0  0  0  0  0  0  0
    4.2164    1.7415    4.7967 C   0  0  1  0  0  0  0  0  0  0  0  0
    3.9809    0.5927    3.9595 O   0  0  0  0  0  0  0  0  0  0  0  0
    3.5739    1.4771    6.1469 C   0  0  0  0  0  0  0  0  0  0  0  0
    3.4601    2.7111    6.9557 N   0  3  0  0  0  0  0  0  0  0  0  0
   -6.1948   -0.8680    2.5412 C   0  0  0  0  0  0  0  0  0  0  0  0
   -2.7499   -1.4898    1.3276 C   0  0  2  0  0  0  0  0  0  0  0  0
   -2.7254   -3.0156    1.2808 C   0  0  2  0  0  0  0  0  0  0  0  0
   -1.6297   -3.4846    0.3994 N   0  3  0  0  0  0  0  0  0  0  0  0
   -4.0542   -3.5460    0.7593 C   0  0  1  0  0  0  0  0  0  0  0  0
   -4.0471   -4.9649    0.7938 O   0  0  0  0  0  0  0  0  0  0  0  0
   -5.1936   -3.0052    1.6202 C   0  0  2  0  0  0  0  0  0  0  0  0
   -6.4427   -3.4397    1.0982 O   0  0  0  0  0  0  0  0  0  0  0  0
   -5.9923   -1.2695    3.9521 N   0  3  0  0  0  0  0  0  0  0  0  0
   -5.1431   -1.4786    1.6313 C   0  0  2  0  0  0  0  0  0  0  0  0
   -3.8555   -1.0284    2.0993 O   0  0  0  0  0  0  0  0  0  0  0  0
   -1.2620    2.5569   -1.7873 C   0  0  2  0  0  0  0  0  0  0  0  0
   -0.7914    3.9515   -1.9508 N   0  3  0  0  0  0  0  0  0  0  0  0
   -2.7013    2.5481   -1.2849 C   0  0  0  0  0  0  0  0  0  0  0  0
   -3.1980    1.1198   -1.1099 C   0  0  2  0  0  0  0  0  0  0  0  0
   -4.5720    1.1809   -0.6321 N   0  3  0  0  0  0  0  0  0  0  0  0
   -2.3074    0.3807   -0.1140 C   0  0  1  0  0  0  0  0  0  0  0  0
   -2.7670   -0.9779    0.0246 O   0  0  0  0  0  0  0  0  0  0  0  0
   -0.8468    0.3798   -0.5860 C   0  0  2  0  0  0  0  0  0  0  0  0
   -0.0199   -0.2314    0.4227 O   0  0  0  0  0  0  0  0  0  0  0  0
   -0.3393    1.7980   -0.8349 C   0  0  1  0  0  0  0  0  0  0  0  0
    0.9695    1.7434   -1.3868 O   0  0  0  0  0  0  0  0  0  0  0  0
  1  2  1  0  0  0  0
  3  2  1  1  0  0  0
  3  5  1  0  0  0  0
  3  4  1  0  0  0  0
  4  9  1  0  0  0  0
  5  7  1  0  0  0  0
  5  6  1  6  0  0  0
  7  9  1  0  0  0  0
  7  8  1  6  0  0  0
  9 40  1  1  0  0  0
 10  6  1  6  0  0  0
 10 11  1  0  0  0  0
 10 18  1  0  0  0  0
 11 13  1  0  0  0  0
 11 12  1  1  0  0  0
 13 15  1  0  0  0  0
 13 14  1  6  0  0  0
 15 17  1  0  0  0  0
 15 16  1  6  0  0  0
 17 19  1  1  0  0  0
 17 18  1  0  0  0  0
 19 20  1  0  0  0  0
 21 29  1  0  0  0  0
 22 23  1  0  0  0  0
 22 31  1  0  0  0  0
 22 38  1  6  0  0  0
 23 25  1  0  0  0  0
 23 24  1  6  0  0  0
 25 27  1  0  0  0  0
 25 26  1  1  0  0  0
 27 30  1  0  0  0  0
 27 28  1  6  0  0  0
 30 21  1  1  0  0  0
 30 31  1  0  0  0  0
 32 34  1  0  0  0  0
 32 41  1  0  0  0  0
 32 33  1  1  0  0  0
 34 35  1  0  0  0  0
 35 37  1  0  0  0  0
 35 36  1  1  0  0  0
 37 39  1  0  0  0  0
 37 38  1  6  0  0  0
 39 41  1  0  0  0  0
 39 40  1  1  0  0  0
 41 42  1  6  0  0  0
M  CHG  6  12   1  20   1  24   1  29   1  33   1  36   1
M  END
>  <CHROM.1>
63.25176094,177.70212999,-138.26243147,-163.12796964,-178.64739354,-145.21092710
39.25798584,-44.27794423,167.50237961,72.77143764,89.93583665,62.23765735
-101.15503404,-158.22783644,-67.70034106,-53.29353772,-62.51770212,-169.70221514
26.00319552,-139.56760922,142.37194612,-64.47678579,0.33833236,-0.21516006
1.60439153,0.04307880,0.39291593,2.30599630

>  <Name>
1NEM.B

>  <RI>
0

>  <Rbt.Current_Directory>
/home/itssahil/PROJECTS/Mol_Feturizer/New_Systems/rnas/1nem

>  <Rbt.Executable>
rbdock ($Id: //depot/dev/client3/rdock/2013.1/src/exe/rbdock.cxx#4 $)

>  <Rbt.Library>
libRbt.so (2013.1, Build901 2013/11/27)

>  <Rbt.Parameter_File>
/export/apps/rDock/src/rDock_2013.1_src/data/scripts/dock_solv.prm

>  <Rbt.Receptor>
prm/pocket_docking_4.prm

>  <SCORE>
-37.6106

>  <SCORE.INTER>
-39.8106

>  <SCORE.INTER.CONST>
1

>  <SCORE.INTER.POLAR>
-4.82453

>  <SCORE.INTER.ROT>
9

>  <SCORE.INTER.SOLV>
34.3103

>  <SCORE.INTER.VDW>
-31.4954

>  <SCORE.INTER.norm>
-0.94787

>  <SCORE.INTRA>
2.19999

>  <SCORE.INTRA.DIHEDRAL>
12.9264

>  <SCORE.INTRA.DIHEDRAL.0>
22.4324

>  <SCORE.INTRA.POLAR>
-1.33577

>  <SCORE.INTRA.POLAR.0>
-1.83749

>  <SCORE.INTRA.REPUL>
0

>  <SCORE.INTRA.REPUL.0>
0

>  <SCORE.INTRA.SOLV>
-2.29945

>  <SCORE.INTRA.SOLV.lig_0>
-160.638

>  <SCORE.INTRA.VDW>
1.42813

>  <SCORE.INTRA.VDW.0>
-7.61953

>  <SCORE.INTRA.norm>
0.0523807

>  <SCORE.RESTR>
0

>  <SCORE.RESTR.CAVITY>
0

>  <SCORE.RESTR.norm>
0

>  <SCORE.SYSTEM>
0

>  <SCORE.SYSTEM.CONST>
0

>  <SCORE.SYSTEM.DIHEDRAL>
0

>  <SCORE.SYSTEM.SOLV>
0

>  <SCORE.SYSTEM.norm>
0

>  <SCORE.heavy>
42

>  <SCORE.norm>
-0.89549

>  <RMSD>
1.591

$$$$
1NEM.B
 OpenBabel11021811403D
libRbt.so/2013.1/901 2013/11/27
 42 45  0  0  0  0  0  0  0  0999 V2000
    1.5252   -3.8030    3.0715 O   0  0  0  0  0  0  0  0  0  0  0  0
    2.2377   -3.8326    1.8331 C   0  0  0  0  0  0  0  0  0  0  0  0
    2.0124   -2.5829    0.9832 C   0  0  1  0  0  0  0  0  0  0  0  0
    0.7714   -2.6637    0.2882 O   0  0  0  0  0  0  0  0  0  0  0  0
    1.8821   -1.2918    1.7754 C   0  0  1  0  0  0  0  0  0  0  0  0
    3.1827   -0.9633    2.2690 O   0  0  0  0  0  0  0  0  0  0  0  0
    1.3275   -0.3977    0.6823 C   0  0  1  0  0  0  0  0  0  0  0  0
    2.3027   -0.1069   -0.3245 O   0  0  0  0  0  0  0  0  0  0  0  0
    0.2567   -1.3421    0.1235 C   0  0  2  0  0  0  0  0  0  0  0  0
    3.3583    0.3478    2.7244 C   0  0  2  0  0  0  0  0  0  0  0  0
    4.8539    0.6922    2.7109 C   0  0  2  0  0  0  0  0  0  0  0  0
    5.6206   -0.3337    3.4658 N   0  3  0  0  0  0  0  0  0  0  0  0
    5.0943    2.1001    3.2654 C   0  0  1  0  0  0  0  0  0  0  0  0
    4.6121    3.0663    2.3410 O   0  0  0  0  0  0  0  0  0  0  0  0
    4.3973    2.2888    4.6163 C   0  0  2  0  0  0  0  0  0  0  0  0
    5.0241    1.4893    5.6114 O   0  0  0  0  0  0  0  0  0  0  0  0
    2.9252    1.9064    4.4922 C   0  0  1  0  0  0  0  0  0  0  0  0
    2.8143    0.5489    4.0224 O   0  0  0  0  0  0  0  0  0  0  0  0
    2.1662    2.0121    5.8032 C   0  0  0  0  0  0  0  0  0  0  0  0
    2.8137    1.2315    6.8809 N   0  3  0  0  0  0  0  0  0  0  0  0
   -5.6314   -2.1015    5.0458 C   0  0  0  0  0  0  0  0  0  0  0  0
   -2.9096   -2.9848    2.6924 C   0  0  2  0  0  0  0  0  0  0  0  0
   -2.8842   -4.5052    2.8296 C   0  0  2  0  0  0  0  0  0  0  0  0
   -2.2052   -5.1146    1.6612 N   0  3  0  0  0  0  0  0  0  0  0  0
   -4.3039   -5.0472    2.9270 C   0  0  1  0  0  0  0  0  0  0  0  0
   -4.2646   -6.4511    3.1320 O   0  0  0  0  0  0  0  0  0  0  0  0
   -5.0321   -4.3674    4.0845 C   0  0  2  0  0  0  0  0  0  0  0  0
   -6.3797   -4.8172    4.1391 O   0  0  0  0  0  0  0  0  0  0  0  0
   -4.8284   -2.2390    6.2824 N   0  3  0  0  0  0  0  0  0  0  0  0
   -5.0021   -2.8532    3.8859 C   0  0  2  0  0  0  0  0  0  0  0  0
   -3.6398   -2.3957    3.7652 O   0  0  0  0  0  0  0  0  0  0  0  0
   -3.3939    0.9147   -0.8936 C   0  0  2  0  0  0  0  0  0  0  0  0
   -3.3225    2.3493   -1.2543 N   0  3  0  0  0  0  0  0  0  0  0  0
   -4.5679    0.6721    0.0481 C   0  0  0  0  0  0  0  0  0  0  0  0
   -4.6524   -0.7993    0.4294 C   0  0  2  0  0  0  0  0  0  0  0  0
   -5.7894   -0.9635    1.3242 N   0  3  0  0  0  0  0  0  0  0  0  0
   -3.3564   -1.2324    1.1106 C   0  0  1  0  0  0  0  0  0  0  0  0
   -3.4334   -2.6324    1.4428 O   0  0  0  0  0  0  0  0  0  0  0  0
   -2.1511   -0.9916    0.1911 C   0  0  2  0  0  0  0  0  0  0  0  0
   -0.9388   -1.3116    0.9000 O   0  0  0  0  0  0  0  0  0  0  0  0
   -2.0772    0.4640   -0.2633 C   0  0  1  0  0  0  0  0  0  0  0  0
   -1.0249    0.6135   -1.2071 O   0  0  0  0  0  0  0  0  0  0  0  0
  1  2  1  0  0  0  0
  3  2  1  1  0  0  0
  3  5  1  0  0  0  0
  3  4  1  0  0  0  0
  4  9  1  0  0  0  0
  5  7  1  0  0  0  0
  5  6  1  6  0  0  0
  7  9  1  0  0  0  0
  7  8  1  6  0  0  0
  9 40  1  1  0  0  0
 10  6  1  1  0  0  0
 10 11  1  0  0  0  0
 10 18  1  0  0  0  0
 11 13  1  0  0  0  0
 11 12  1  1  0  0  0
 13 15  1  0  0  0  0
 13 14  1  6  0  0  0
 15 17  1  0  0  0  0
 15 16  1  1  0  0  0
 17 19  1  1  0  0  0
 17 18  1  0  0  0  0
 19 20  1  0  0  0  0
 21 29  1  0  0  0  0
 22 23  1  0  0  0  0
 22 31  1  0  0  0  0
 22 38  1  6  0  0  0
 23 25  1  0  0  0  0
 23 24  1  6  0  0  0
 25 27  1  0  0  0  0
 25 26  1  1  0  0  0
 27 30  1  0  0  0  0
 27 28  1  6  0  0  0
 30 21  1  1  0  0  0
 30 31  1  0  0  0  0
 32 34  1  0  0  0  0
 32 41  1  0  0  0  0
 32 33  1  1  0  0  0
 34 35  1  0  0  0  0
 35 37  1  0  0  0  0
 35 36  1  1  0  0  0
 37 39  1  0  0  0  0
 37 38  1  6  0  0  0
 39 41  1  0  0  0  0
 39 40  1  1  0  0  0
 41 42  1  6  0  0  0
M  CHG  6  12   1  20   1  24   1  29   1  33   1  36   1
M  END
>  <CHROM.1>
57.36429326,-80.04580851,164.01357603,-158.78874027,70.39248973,-121.38923317
-68.83544584,179.29689348,82.54753192,-54.38431507,-86.26828436,67.36139907
75.40187800,-172.35725069,-70.33944282,-177.54035285,-56.66911305,23.82106801
-55.60682877,-139.15080496,170.53769333,-53.12322169,-0.52821698,-1.14374968
2.38259379,-0.15797424,0.41980036,2.16212297

>  <Name>
1NEM.B

>  <RI>
0

>  <Rbt.Current_Directory>
/home/itssahil/PROJECTS/Mol_Feturizer/New_Systems/rnas/1nem

>  <Rbt.Executable>
rbdock ($Id: //depot/dev/client3/rdock/2013.1/src/exe/rbdock.cxx#4 $)

>  <Rbt.Library>
libRbt.so (2013.1, Build901 2013/11/27)

>  <Rbt.Parameter_File>
/export/apps/rDock/src/rDock_2013.1_src/data/scripts/dock_solv.prm

>  <Rbt.Receptor>
prm/pocket_docking_3.prm

>  <SCORE>
-48.8731

>  <SCORE.INTER>
-55.1583

>  <SCORE.INTER.CONST>
1

>  <SCORE.INTER.POLAR>
-6.71744

>  <SCORE.INTER.ROT>
9

>  <SCORE.INTER.SOLV>
37.2351

>  <SCORE.INTER.VDW>
-36.3924

>  <SCORE.INTER.norm>
-1.31329

>  <SCORE.INTRA>
6.27956

>  <SCORE.INTRA.DIHEDRAL>
4.37861

>  <SCORE.INTRA.DIHEDRAL.0>
22.4324

>  <SCORE.INTRA.POLAR>
0.172512

>  <SCORE.INTRA.POLAR.0>
-1.83749

>  <SCORE.INTRA.REPUL>
0.0924869

>  <SCORE.INTRA.REPUL.0>
0

>  <SCORE.INTRA.SOLV>
-0.91492

>  <SCORE.INTRA.SOLV.lig_0>
-160.638

>  <SCORE.INTRA.VDW>
3.49874

>  <SCORE.INTRA.VDW.0>
-7.61953

>  <SCORE.INTRA.norm>
0.149513

>  <SCORE.RESTR>
0.00565658

>  <SCORE.RESTR.CAVITY>
0.00565658

>  <SCORE.RESTR.norm>
0.00013468

>  <SCORE.SYSTEM>
0

>  <SCORE.SYSTEM.CONST>
0

>  <SCORE.SYSTEM.DIHEDRAL>
0

>  <SCORE.SYSTEM.SOLV>
0

>  <SCORE.SYSTEM.norm>
0

>  <SCORE.heavy>
42

>  <SCORE.norm>
-1.16364

>  <RMSD>
1.592

$$$$
1NEM.B
 OpenBabel11021811403D
libRbt.so/2013.1/901 2013/11/27
 42 45  0  0  0  0  0  0  0  0999 V2000
    4.9968   -0.5272   -1.5583 O   0  0  0  0  0  0  0  0  0  0  0  0
    3.9156   -1.0724   -0.7994 C   0  0  0  0  0  0  0  0  0  0  0  0
    3.0097   -0.0012   -0.1939 C   0  0  1  0  0  0  0  0  0  0  0  0
    1.9965    0.3829   -1.1186 O   0  0  0  0  0  0  0  0  0  0  0  0
    2.2159   -0.4544    1.0210 C   0  0  1  0  0  0  0  0  0  0  0  0
    3.1354   -0.5737    2.1089 O   0  0  0  0  0  0  0  0  0  0  0  0
    1.2235    0.6907    1.0965 C   0  0  1  0  0  0  0  0  0  0  0  0
    1.8417    1.9155    1.5052 O   0  0  0  0  0  0  0  0  0  0  0  0
    0.8330    0.7646   -0.3843 C   0  0  2  0  0  0  0  0  0  0  0  0
    3.6379    0.6243    2.6282 C   0  0  2  0  0  0  0  0  0  0  0  0
    5.1464    0.4779    2.8697 C   0  0  2  0  0  0  0  0  0  0  0  0
    5.4152   -0.7211    3.7067 N   0  3  0  0  0  0  0  0  0  0  0  0
    5.7237    1.7493    3.5002 C   0  0  1  0  0  0  0  0  0  0  0  0
    5.7299    2.7980    2.5406 O   0  0  0  0  0  0  0  0  0  0  0  0
    4.9092    2.1782    4.7246 C   0  0  2  0  0  0  0  0  0  0  0  0
    5.0790    1.2435    5.7828 O   0  0  0  0  0  0  0  0  0  0  0  0
    3.4333    2.2782    4.3500 C   0  0  1  0  0  0  0  0  0  0  0  0
    2.9790    1.0153    3.8257 O   0  0  0  0  0  0  0  0  0  0  0  0
    2.5413    2.6470    5.5223 C   0  0  0  0  0  0  0  0  0  0  0  0
    1.6976    1.5103    5.9535 N   0  3  0  0  0  0  0  0  0  0  0  0
   -4.2661   -3.1116    4.1368 C   0  0  0  0  0  0  0  0  0  0  0  0
   -1.6374   -1.6028    2.0059 C   0  0  2  0  0  0  0  0  0  0  0  0
   -0.7603   -2.8184    1.7159 C   0  0  2  0  0  0  0  0  0  0  0  0
    0.0835   -2.5694    0.5227 N   0  3  0  0  0  0  0  0  0  0  0  0
   -1.6283   -4.0457    1.4725 C   0  0  1  0  0  0  0  0  0  0  0  0
   -0.8014   -5.1833    1.2812 O   0  0  0  0  0  0  0  0  0  0  0  0
   -2.5526   -4.2632    2.6684 C   0  0  2  0  0  0  0  0  0  0  0  0
   -3.4146   -5.3661    2.4194 O   0  0  0  0  0  0  0  0  0  0  0  0
   -5.0685   -1.8836    4.3399 N   0  3  0  0  0  0  0  0  0  0  0  0
   -3.3835   -3.0035    2.9055 C   0  0  2  0  0  0  0  0  0  0  0  0
   -2.5171   -1.8665    3.0957 O   0  0  0  0  0  0  0  0  0  0  0  0
   -2.8439    2.3517   -1.3721 C   0  0  2  0  0  0  0  0  0  0  0  0
   -2.7564    3.7775   -1.7628 N   0  3  0  0  0  0  0  0  0  0  0  0
   -3.5342    2.2237   -0.0188 C   0  0  0  0  0  0  0  0  0  0  0  0
   -3.6293    0.7624    0.3970 C   0  0  2  0  0  0  0  0  0  0  0  0
   -4.2963    0.7092    1.6902 N   0  3  0  0  0  0  0  0  0  0  0  0
   -2.2304    0.1562    0.4805 C   0  0  1  0  0  0  0  0  0  0  0  0
   -2.3307   -1.2337    0.8469 O   0  0  0  0  0  0  0  0  0  0  0  0
   -1.5029    0.2779   -0.8657 C   0  0  2  0  0  0  0  0  0  0  0  0
   -0.1539   -0.2067   -0.7245 O   0  0  0  0  0  0  0  0  0  0  0  0
   -1.4499    1.7271   -1.3429 C   0  0  1  0  0  0  0  0  0  0  0  0
   -0.8813    1.7774   -2.6447 O   0  0  0  0  0  0  0  0  0  0  0  0
  1  2  1  0  0  0  0
  3  2  1  6  0  0  0
  3  5  1  0  0  0  0
  3  4  1  0  0  0  0
  4  9  1  0  0  0  0
  5  7  1  0  0  0  0
  5  6  1  1  0  0  0
  7  9  1  0  0  0  0
  7  8  1  6  0  0  0
  9 40  1  1  0  0  0
 10  6  1  1  0  0  0
 10 11  1  0  0  0  0
 10 18  1  0  0  0  0
 11 13  1  0  0  0  0
 11 12  1  1  0  0  0
 13 15  1  0  0  0  0
 13 14  1  6  0  0  0
 15 17  1  0  0  0  0
 15 16  1  1  0  0  0
 17 19  1  1  0  0  0
 17 18  1  0  0  0  0
 19 20  1  0  0  0  0
 21 29  1  0  0  0  0
 22 23  1  0  0  0  0
 22 31  1  0  0  0  0
 22 38  1  6  0  0  0
 23 25  1  0  0  0  0
 23 24  1  6  0  0  0
 25 27  1  0  0  0  0
 25 26  1  1  0  0  0
 27 30  1  0  0  0  0
 27 28  1  6  0  0  0
 30 21  1  1  0  0  0
 30 31  1  0  0  0  0
 32 34  1  0  0  0  0
 32 41  1  0  0  0  0
 32 33  1  1  0  0  0
 34 35  1  0  0  0  0
 35 37  1  0  0  0  0
 35 36  1  1  0  0  0
 37 39  1  0  0  0  0
 37 38  1  6  0  0  0
 39 41  1  0  0  0  0
 39 40  1  1  0  0  0
 41 42  1  6  0  0  0
M  CHG  6  12   1  20   1  24   1  29   1  33   1  36   1
M  END
>  <CHROM.1>
-73.29072623,86.81391471,71.09216990,-136.50227569,71.52556654,-142.59429928
89.87355292,71.09969759,-74.36506662,-109.33851493,100.85784853,-179.57599394
-169.12896315,-128.98597950,22.02195263,-100.98945901,101.25908620,-145.72243207
171.72212451,-122.73715339,-91.77867874,-64.78279601,0.43373599,-0.16420911
1.63588939,0.04848001,-0.40159817,-0.90767562

>  <Name>
1NEM.B

>  <RI>
0

>  <Rbt.Current_Directory>
/home/itssahil/PROJECTS/Mol_Feturizer/New_Systems/rnas/1nem

>  <Rbt.Executable>
rbdock ($Id: //depot/dev/client3/rdock/2013.1/src/exe/rbdock.cxx#4 $)

>  <Rbt.Library>
libRbt.so (2013.1, Build901 2013/11/27)

>  <Rbt.Parameter_File>
/export/apps/rDock/src/rDock_2013.1_src/data/scripts/dock_solv.prm

>  <Rbt.Receptor>
prm/pocket_docking_2.prm

>  <SCORE>
-17.3635

>  <SCORE.INTER>
-49.2959

>  <SCORE.INTER.CONST>
1

>  <SCORE.INTER.POLAR>
-7.44532

>  <SCORE.INTER.ROT>
9

>  <SCORE.INTER.SOLV>
42.0651

>  <SCORE.INTER.VDW>
-31.6679

>  <SCORE.INTER.norm>
-1.17371

>  <SCORE.INTRA>
30.537

>  <SCORE.INTRA.DIHEDRAL>
38.6445

>  <SCORE.INTRA.DIHEDRAL.0>
22.4324

>  <SCORE.INTRA.POLAR>
0.384695

>  <SCORE.INTRA.POLAR.0>
-1.83749

>  <SCORE.INTRA.REPUL>
0

>  <SCORE.INTRA.REPUL.0>
0

>  <SCORE.INTRA.SOLV>
2.9747

>  <SCORE.INTRA.SOLV.lig_0>
-160.638

>  <SCORE.INTRA.VDW>
8.41944

>  <SCORE.INTRA.VDW.0>
-7.61953

>  <SCORE.INTRA.norm>
0.727072

>  <SCORE.RESTR>
1.39537

>  <SCORE.RESTR.CAVITY>
1.39537

>  <SCORE.RESTR.norm>
0.033223

>  <SCORE.SYSTEM>
0

>  <SCORE.SYSTEM.CONST>
0

>  <SCORE.SYSTEM.DIHEDRAL>
0

>  <SCORE.SYSTEM.SOLV>
0

>  <SCORE.SYSTEM.norm>
0

>  <SCORE.heavy>
42

>  <SCORE.norm>
-0.413417

>  <RMSD>
1.603

$$$$
1NEM.B
 OpenBabel11021811403D
libRbt.so/2013.1/901 2013/11/27
 42 45  0  0  0  0  0  0  0  0999 V2000
    2.3931   -4.7247    1.8757 O   0  0  0  0  0  0  0  0  0  0  0  0
    1.6185   -3.5743    2.2200 C   0  0  0  0  0  0  0  0  0  0  0  0
    1.7147   -2.4560    1.1832 C   0  0  1  0  0  0  0  0  0  0  0  0
    0.4882   -2.3229    0.4709 O   0  0  0  0  0  0  0  0  0  0  0  0
    1.9293   -1.0679    1.7653 C   0  0  1  0  0  0  0  0  0  0  0  0
    3.2755   -1.0111    2.2428 O   0  0  0  0  0  0  0  0  0  0  0  0
    1.6135   -0.2423    0.5322 C   0  0  1  0  0  0  0  0  0  0  0  0
    2.6208   -0.3707   -0.4767 O   0  0  0  0  0  0  0  0  0  0  0  0
    0.3301   -0.9557    0.0911 C   0  0  2  0  0  0  0  0  0  0  0  0
    3.6956    0.2176    2.7633 C   0  0  2  0  0  0  0  0  0  0  0  0
    4.5654    0.9370    1.7234 C   0  0  2  0  0  0  0  0  0  0  0  0
    5.6669    0.0451    1.2746 N   0  3  0  0  0  0  0  0  0  0  0  0
    5.0999    2.2602    2.2810 C   0  0  1  0  0  0  0  0  0  0  0  0
    4.0349    3.1943    2.3979 O   0  0  0  0  0  0  0  0  0  0  0  0
    5.7584    2.0578    3.6492 C   0  0  2  0  0  0  0  0  0  0  0  0
    6.9601    1.3098    3.5132 O   0  0  0  0  0  0  0  0  0  0  0  0
    4.7938    1.3287    4.5802 C   0  0  1  0  0  0  0  0  0  0  0  0
    4.4027    0.0747    3.9884 O   0  0  0  0  0  0  0  0  0  0  0  0
    5.3864    1.0370    5.9476 C   0  0  0  0  0  0  0  0  0  0  0  0
    5.6365    2.2761    6.7171 N   0  3  0  0  0  0  0  0  0  0  0  0
   -3.8420   -2.8353    5.3978 C   0  0  0  0  0  0  0  0  0  0  0  0
   -2.1418   -2.4342    2.1304 C   0  0  2  0  0  0  0  0  0  0  0  0
   -1.7208   -3.8726    1.8394 C   0  0  2  0  0  0  0  0  0  0  0  0
   -1.4371   -4.0419    0.3943 N   0  3  0  0  0  0  0  0  0  0  0  0
   -2.8249   -4.8364    2.2530 C   0  0  1  0  0  0  0  0  0  0  0  0
   -2.3912   -6.1725    2.0498 O   0  0  0  0  0  0  0  0  0  0  0  0
   -3.1726   -4.6147    3.7233 C   0  0  2  0  0  0  0  0  0  0  0  0
   -4.2502   -5.4628    4.0988 O   0  0  0  0  0  0  0  0  0  0  0  0
   -4.9884   -3.6150    5.9183 N   0  3  0  0  0  0  0  0  0  0  0  0
   -3.5670   -3.1548    3.9387 C   0  0  2  0  0  0  0  0  0  0  0  0
   -2.5041   -2.2841    3.5006 O   0  0  0  0  0  0  0  0  0  0  0  0
   -3.3965    1.4557   -1.1027 C   0  0  2  0  0  0  0  0  0  0  0  0
   -3.4542    2.8879   -1.4753 N   0  3  0  0  0  0  0  0  0  0  0  0
   -4.5797    1.1017   -0.2090 C   0  0  0  0  0  0  0  0  0  0  0  0
   -4.5321   -0.3682    0.1840 C   0  0  2  0  0  0  0  0  0  0  0  0
   -5.6843   -0.6408    1.0315 N   0  3  0  0  0  0  0  0  0  0  0  0
   -3.2297   -0.6640    0.9240 C   0  0  1  0  0  0  0  0  0  0  0  0
   -3.1797   -2.0625    1.2675 O   0  0  0  0  0  0  0  0  0  0  0  0
   -2.0162   -0.3085    0.0538 C   0  0  2  0  0  0  0  0  0  0  0  0
   -0.8096   -0.4999    0.8168 O   0  0  0  0  0  0  0  0  0  0  0  0
   -2.0696    1.1442   -0.4124 C   0  0  1  0  0  0  0  0  0  0  0  0
   -0.9978    1.3933   -1.3124 O   0  0  0  0  0  0  0  0  0  0  0  0
  1  2  1  0  0  0  0
  3  2  1  1  0  0  0
  3  5  1  0  0  0  0
  3  4  1  0  0  0  0
  4  9  1  0  0  0  0
  5  7  1  0  0  0  0
  5  6  1  6  0  0  0
  7  9  1  0  0  0  0
  7  8  1  6  0  0  0
  9 40  1  1  0  0  0
 10  6  1  6  0  0  0
 10 11  1  0  0  0  0
 10 18  1  0  0  0  0
 11 13  1  0  0  0  0
 11 12  1  1  0  0  0
 13 15  1  0  0  0  0
 13 14  1  1  0  0  0
 15 17  1  0  0  0  0
 15 16  1  6  0  0  0
 17 19  1  1  0  0  0
 17 18  1  0  0  0  0
 19 20  1  0  0  0  0
 21 29  1  0  0  0  0
 22 23  1  0  0  0  0
 22 31  1  0  0  0  0
 22 38  1  6  0  0  0
 23 25  1  0  0  0  0
 23 24  1  6  0  0  0
 25 27  1  0  0  0  0
 25 26  1  1  0  0  0
 27 30  1  0  0  0  0
 27 28  1  6  0  0  0
 30 21  1  1  0  0  0
 30 31  1  0  0  0  0
 32 34  1  0  0  0  0
 32 41  1  0  0  0  0
 32 33  1  1  0  0  0
 34 35  1  0  0  0  0
 35 37  1  0  0  0  0
 35 36  1  1  0  0  0
 37 39  1  0  0  0  0
 37 38  1  6  0  0  0
 39 41  1  0  0  0  0
 39 40  1  1  0  0  0
 41 42  1  6  0  0  0
M  CHG  6  12   1  20   1  24   1  29   1  33   1  36   1
M  END
>  <CHROM.1>
-68.18128284,109.19445019,177.02906745,-102.28755114,173.93252626,-106.51801403
156.78270706,-59.33272696,101.61117055,66.72549838,-101.14394726,-62.67530800
40.37120722,-149.66259071,177.31988936,-57.58935831,-44.76544201,93.84963349
67.85266109,-170.38795421,145.79672136,63.69246671,0.13893717,-1.01045804
1.99795539,-0.22032358,0.35843808,2.47264501

>  <Name>
1NEM.B

>  <RI>
0

>  <Rbt.Current_Directory>
/home/itssahil/PROJECTS/Mol_Feturizer/New_Systems/rnas/1nem

>  <Rbt.Executable>
rbdock ($Id: //depot/dev/client3/rdock/2013.1/src/exe/rbdock.cxx#4 $)

>  <Rbt.Library>
libRbt.so (2013.1, Build901 2013/11/27)

>  <Rbt.Parameter_File>
/export/apps/rDock/src/rDock_2013.1_src/data/scripts/dock_solv.prm

>  <Rbt.Receptor>
prm/pocket_docking_3.prm

>  <SCORE>
-48.444

>  <SCORE.INTER>
-55.4782

>  <SCORE.INTER.CONST>
1

>  <SCORE.INTER.POLAR>
-7.4119

>  <SCORE.INTER.ROT>
9

>  <SCORE.INTER.SOLV>
33.5988

>  <SCORE.INTER.VDW>
-33.0787

>  <SCORE.INTER.norm>
-1.32091

>  <SCORE.INTRA>
6.97165

>  <SCORE.INTRA.DIHEDRAL>
18.409

>  <SCORE.INTRA.DIHEDRAL.0>
22.4324

>  <SCORE.INTRA.POLAR>
-1.04215

>  <SCORE.INTRA.POLAR.0>
-1.83749

>  <SCORE.INTRA.REPUL>
0

>  <SCORE.INTRA.REPUL.0>
0

>  <SCORE.INTRA.SOLV>
-1.60393

>  <SCORE.INTRA.SOLV.lig_0>
-160.638

>  <SCORE.INTRA.VDW>
2.11241

>  <SCORE.INTRA.VDW.0>
-7.61953

>  <SCORE.INTRA.norm>
0.165992

>  <SCORE.RESTR>
0.0624872

>  <SCORE.RESTR.CAVITY>
0.0624872

>  <SCORE.RESTR.norm>
0.00148779

>  <SCORE.SYSTEM>
0

>  <SCORE.SYSTEM.CONST>
0

>  <SCORE.SYSTEM.DIHEDRAL>
0

>  <SCORE.SYSTEM.SOLV>
0

>  <SCORE.SYSTEM.norm>
0

>  <SCORE.heavy>
42

>  <SCORE.norm>
-1.15343

>  <RMSD>
1.639

$$$$
1NEM.B
 OpenBabel11021811403D
libRbt.so/2013.1/901 2013/11/27
 42 45  0  0  0  0  0  0  0  0999 V2000
    2.4162   -5.2279    2.0265 O   0  0  0  0  0  0  0  0  0  0  0  0
    1.9097   -3.9447    2.3990 C   0  0  0  0  0  0  0  0  0  0  0  0
    2.0887   -2.8908    1.3072 C   0  0  1  0  0  0  0  0  0  0  0  0
    0.8939   -2.7479    0.5446 O   0  0  0  0  0  0  0  0  0  0  0  0
    2.3423   -1.4823    1.8205 C   0  0  1  0  0  0  0  0  0  0  0  0
    3.6726   -1.4538    2.3428 O   0  0  0  0  0  0  0  0  0  0  0  0
    2.1041   -0.7145    0.5338 C   0  0  1  0  0  0  0  0  0  0  0  0
    3.1388   -0.9398   -0.4294 O   0  0  0  0  0  0  0  0  0  0  0  0
    0.8072   -1.3986    0.0857 C   0  0  2  0  0  0  0  0  0  0  0  0
    4.1552   -0.2014    2.7377 C   0  0  2  0  0  0  0  0  0  0  0  0
    4.3007   -0.1738    4.2652 C   0  0  2  0  0  0  0  0  0  0  0  0
    3.0212   -0.5752    4.9071 N   0  3  0  0  0  0  0  0  0  0  0  0
    4.7659    1.2053    4.7439 C   0  0  1  0  0  0  0  0  0  0  0  0
    6.1205    1.4105    4.3650 O   0  0  0  0  0  0  0  0  0  0  0  0
    3.8935    2.3182    4.1551 C   0  0  2  0  0  0  0  0  0  0  0  0
    2.5835    2.2622    4.7055 O   0  0  0  0  0  0  0  0  0  0  0  0
    3.8275    2.1702    2.6377 C   0  0  1  0  0  0  0  0  0  0  0  0
    3.3224    0.8640    2.2990 O   0  0  0  0  0  0  0  0  0  0  0  0
    2.9358    3.2043    1.9731 C   0  0  0  0  0  0  0  0  0  0  0  0
    1.5154    3.0339    2.3516 N   0  3  0  0  0  0  0  0  0  0  0  0
   -5.5972   -1.7554    4.4081 C   0  0  0  0  0  0  0  0  0  0  0  0
   -2.5680   -2.2882    2.3424 C   0  0  2  0  0  0  0  0  0  0  0  0
   -2.4159   -3.8049    2.4292 C   0  0  2  0  0  0  0  0  0  0  0  0
   -1.5616   -4.2991    1.3231 N   0  3  0  0  0  0  0  0  0  0  0  0
   -3.7813   -4.4746    2.3497 C   0  0  1  0  0  0  0  0  0  0  0  0
   -3.6335   -5.8772    2.5094 O   0  0  0  0  0  0  0  0  0  0  0  0
   -4.6896   -3.9143    3.4419 C   0  0  2  0  0  0  0  0  0  0  0  0
   -5.9876   -4.4840    3.3311 O   0  0  0  0  0  0  0  0  0  0  0  0
   -4.9915   -1.9942    5.7382 N   0  3  0  0  0  0  0  0  0  0  0  0
   -4.7797   -2.3961    3.3000 C   0  0  2  0  0  0  0  0  0  0  0  0
   -3.4609   -1.8145    3.3471 O   0  0  0  0  0  0  0  0  0  0  0  0
   -2.3723    1.4961   -1.3817 C   0  0  2  0  0  0  0  0  0  0  0  0
   -2.1313    2.9018   -1.7808 N   0  3  0  0  0  0  0  0  0  0  0  0
   -3.6566    1.3988   -0.5661 C   0  0  0  0  0  0  0  0  0  0  0  0
   -3.9161   -0.0413   -0.1467 C   0  0  2  0  0  0  0  0  0  0  0  0
   -5.1515   -0.0658    0.6236 N   0  3  0  0  0  0  0  0  0  0  0  0
   -2.7447   -0.5566    0.6862 C   0  0  1  0  0  0  0  0  0  0  0  0
   -2.9851   -1.9286    1.0552 O   0  0  0  0  0  0  0  0  0  0  0  0
   -1.4320   -0.4630   -0.1038 C   0  0  2  0  0  0  0  0  0  0  0  0
   -0.3361   -0.8572    0.7437 O   0  0  0  0  0  0  0  0  0  0  0  0
   -1.1767    0.9592   -0.5964 C   0  0  1  0  0  0  0  0  0  0  0  0
   -0.0212    0.9743   -1.4241 O   0  0  0  0  0  0  0  0  0  0  0  0
  1  2  1  0  0  0  0
  3  2  1  1  0  0  0
  3  5  1  0  0  0  0
  3  4  1  0  0  0  0
  4  9  1  0  0  0  0
  5  7  1  0  0  0  0
  5  6  1  6  0  0  0
  7  9  1  0  0  0  0
  7  8  1  6  0  0  0
  9 40  1  1  0  0  0
 10  6  1  1  0  0  0
 10 11  1  0  0  0  0
 10 18  1  0  0  0  0
 11 13  1  0  0  0  0
 11 12  1  1  0  0  0
 13 15  1  0  0  0  0
 13 14  1  6  0  0  0
 15 17  1  0  0  0  0
 15 16  1  1  0  0  0
 17 19  1  1  0  0  0
 17 18  1  0  0  0  0
 19 20  1  0  0  0  0
 21 29  1  0  0  0  0
 22 23  1  0  0  0  0
 22 31  1  0  0  0  0
 22 38  1  6  0  0  0
 23 25  1  0  0  0  0
 23 24  1  6  0  0  0
 25 27  1  0  0  0  0
 25 26  1  1  0  0  0
 27 30  1  0  0  0  0
 27 28  1  6  0  0  0
 30 21  1  1  0  0  0
 30 31  1  0  0  0  0
 32 34  1  0  0  0  0
 32 41  1  0  0  0  0
 32 33  1  1  0  0  0
 34 35  1  0  0  0  0
 35 37  1  0  0  0  0
 35 36  1  1  0  0  0
 37 39  1  0  0  0  0
 37 38  1  6  0  0  0
 39 41  1  0  0  0  0
 39 40  1  1  0  0  0
 41 42  1  6  0  0  0
M  CHG  6  12   1  20   1  24   1  29   1  33   1  36   1
M  END
>  <CHROM.1>
-55.51083868,97.30443818,173.38168106,111.22199074,-148.42277246,-115.96502169
89.28660261,-56.49090849,73.45845318,-65.83890822,-84.35829244,61.61078895
-46.07304721,-160.03360395,-65.36093606,53.46162271,-59.11691761,56.77420536
112.54794271,-142.29752593,152.93405188,62.99225733,-0.23462269,-0.92984503
1.95346110,-0.30249355,0.28577528,2.58860413

>  <Name>
1NEM.B

>  <RI>
0

>  <Rbt.Current_Directory>
/home/itssahil/PROJECTS/Mol_Feturizer/New_Systems/rnas/1nem

>  <Rbt.Executable>
rbdock ($Id: //depot/dev/client3/rdock/2013.1/src/exe/rbdock.cxx#4 $)

>  <Rbt.Library>
libRbt.so (2013.1, Build901 2013/11/27)

>  <Rbt.Parameter_File>
/export/apps/rDock/src/rDock_2013.1_src/data/scripts/dock_solv.prm

>  <Rbt.Receptor>
prm/pocket_docking_2.prm

>  <SCORE>
-36.57

>  <SCORE.INTER>
-53.0811

>  <SCORE.INTER.CONST>
1

>  <SCORE.INTER.POLAR>
-7.96935

>  <SCORE.INTER.ROT>
9

>  <SCORE.INTER.SOLV>
41.0401

>  <SCORE.INTER.VDW>
-32.103

>  <SCORE.INTER.norm>
-1.26384

>  <SCORE.INTRA>
12.6416

>  <SCORE.INTRA.DIHEDRAL>
17.8033

>  <SCORE.INTRA.DIHEDRAL.0>
22.4324

>  <SCORE.INTRA.POLAR>
-0.244971

>  <SCORE.INTRA.POLAR.0>
-1.83749

>  <SCORE.INTRA.REPUL>
0

>  <SCORE.INTRA.REPUL.0>
0

>  <SCORE.INTRA.SOLV>
2.455

>  <SCORE.INTRA.SOLV.lig_0>
-160.638

>  <SCORE.INTRA.VDW>
3.34533

>  <SCORE.INTRA.VDW.0>
-7.61953

>  <SCORE.INTRA.norm>
0.30099

>  <SCORE.RESTR>
3.86954

>  <SCORE.RESTR.CAVITY>
3.86954

>  <SCORE.RESTR.norm>
0.0921319

>  <SCORE.SYSTEM>
0

>  <SCORE.SYSTEM.CONST>
0

>  <SCORE.SYSTEM.DIHEDRAL>
0

>  <SCORE.SYSTEM.SOLV>
0

>  <SCORE.SYSTEM.norm>
0

>  <SCORE.heavy>
42

>  <SCORE.norm>
-0.870714

>  <RMSD>
1.648

$$$$
1NEM.B
 OpenBabel11021811403D
libRbt.so/2013.1/901 2013/11/27
 42 45  0  0  0  0  0  0  0  0999 V2000
    2.8537   -4.2657    2.9762 O   0  0  0  0  0  0  0  0  0  0  0  0
    1.7838   -4.0672    2.0498 C   0  0  0  0  0  0  0  0  0  0  0  0
    1.9294   -2.7837    1.2336 C   0  0  1  0  0  0  0  0  0  0  0  0
    0.7898   -2.5835    0.4025 O   0  0  0  0  0  0  0  0  0  0  0  0
    1.9832   -1.5088    2.0603 C   0  0  1  0  0  0  0  0  0  0  0  0
    3.2568   -1.4764    2.7085 O   0  0  0  0  0  0  0  0  0  0  0  0
    1.7627   -0.4975    0.9511 C   0  0  1  0  0  0  0  0  0  0  0  0
    2.8886   -0.4057    0.0718 O   0  0  0  0  0  0  0  0  0  0  0  0
    0.5895   -1.1795    0.2376 C   0  0  2  0  0  0  0  0  0  0  0  0
    3.5210   -0.3512    3.4968 C   0  0  2  0  0  0  0  0  0  0  0  0
    4.1205    0.7539    2.6166 C   0  0  2  0  0  0  0  0  0  0  0  0
    5.2950    0.2308    1.8701 N   0  3  0  0  0  0  0  0  0  0  0  0
    4.4850    1.9825    3.4563 C   0  0  1  0  0  0  0  0  0  0  0  0
    3.2982    2.6327    3.8915 O   0  0  0  0  0  0  0  0  0  0  0  0
    5.3311    1.5904    4.6715 C   0  0  2  0  0  0  0  0  0  0  0  0
    6.6173    1.1484    4.2560 O   0  0  0  0  0  0  0  0  0  0  0  0
    4.6272    0.4836    5.4516 C   0  0  1  0  0  0  0  0  0  0  0  0
    4.3869   -0.6428    4.5859 O   0  0  0  0  0  0  0  0  0  0  0  0
    5.4242   -0.0062    6.6478 C   0  0  0  0  0  0  0  0  0  0  0  0
    4.8399    0.4545    7.9269 N   0  3  0  0  0  0  0  0  0  0  0  0
   -5.5826   -2.0991    4.7813 C   0  0  0  0  0  0  0  0  0  0  0  0
   -2.7479   -2.3516    2.4089 C   0  0  2  0  0  0  0  0  0  0  0  0
   -2.5014   -3.8583    2.4046 C   0  0  2  0  0  0  0  0  0  0  0  0
   -1.7343   -4.2493    1.1979 N   0  3  0  0  0  0  0  0  0  0  0  0
   -3.8274   -4.6071    2.4237 C   0  0  1  0  0  0  0  0  0  0  0  0
   -3.5845   -6.0035    2.4979 O   0  0  0  0  0  0  0  0  0  0  0  0
   -4.6534   -4.1529    3.6251 C   0  0  2  0  0  0  0  0  0  0  0  0
   -5.9212   -4.7963    3.6116 O   0  0  0  0  0  0  0  0  0  0  0  0
   -4.7242   -2.1052    5.9880 N   0  3  0  0  0  0  0  0  0  0  0  0
   -4.8438   -2.6384    3.5688 C   0  0  2  0  0  0  0  0  0  0  0  0
   -3.5623   -1.9789    3.5175 O   0  0  0  0  0  0  0  0  0  0  0  0
   -2.6670    1.4198   -1.3008 C   0  0  2  0  0  0  0  0  0  0  0  0
   -2.4175    2.8178   -1.7212 N   0  3  0  0  0  0  0  0  0  0  0  0
   -3.9574    1.3411   -0.4928 C   0  0  0  0  0  0  0  0  0  0  0  0
   -4.2256   -0.0910   -0.0517 C   0  0  2  0  0  0  0  0  0  0  0  0
   -5.4664   -0.0979    0.7101 N   0  3  0  0  0  0  0  0  0  0  0  0
   -3.0622   -0.5971    0.7979 C   0  0  1  0  0  0  0  0  0  0  0  0
   -3.3106   -1.9619    1.1876 O   0  0  0  0  0  0  0  0  0  0  0  0
   -1.7436   -0.5217    0.0157 C   0  0  2  0  0  0  0  0  0  0  0  0
   -0.6552   -0.9061    0.8772 O   0  0  0  0  0  0  0  0  0  0  0  0
   -1.4791    0.8913   -0.4984 C   0  0  1  0  0  0  0  0  0  0  0  0
   -0.3178    0.8883   -1.3181 O   0  0  0  0  0  0  0  0  0  0  0  0
  1  2  1  0  0  0  0
  3  2  1  1  0  0  0
  3  5  1  0  0  0  0
  3  4  1  0  0  0  0
  4  9  1  0  0  0  0
  5  7  1  0  0  0  0
  5  6  1  6  0  0  0
  7  9  1  0  0  0  0
  7  8  1  6  0  0  0
  9 40  1  1  0  0  0
 10  6  1  6  0  0  0
 10 11  1  0  0  0  0
 10 18  1  0  0  0  0
 11 13  1  0  0  0  0
 11 12  1  1  0  0  0
 13 15  1  0  0  0  0
 13 14  1  1  0  0  0
 15 17  1  0  0  0  0
 15 16  1  6  0  0  0
 17 19  1  1  0  0  0
 17 18  1  0  0  0  0
 19 20  1  0  0  0  0
 21 29  1  0  0  0  0
 22 23  1  0  0  0  0
 22 31  1  0  0  0  0
 22 38  1  6  0  0  0
 23 25  1  0  0  0  0
 23 24  1  6  0  0  0
 25 27  1  0  0  0  0
 25 26  1  1  0  0  0
 27 30  1  0  0  0  0
 27 28  1  6  0  0  0
 30 21  1  1  0  0  0
 30 31  1  0  0  0  0
 32 34  1  0  0  0  0
 32 41  1  0  0  0  0
 32 33  1  1  0  0  0
 34 35  1  0  0  0  0
 35 37  1  0  0  0  0
 35 36  1  1  0  0  0
 37 39  1  0  0  0  0
 37 38  1  6  0  0  0
 39 41  1  0  0  0  0
 39 40  1  1  0  0  0
 41 42  1  6  0  0  0
M  CHG  6  12   1  20   1  24   1  29   1  33   1  36   1
M  END
>  <CHROM.1>
-36.51882120,-175.57011174,178.28046326,-87.19494279,-169.46053597,-111.88719736
33.53692224,66.88197417,175.93124031,107.11940315,-50.16137647,73.28792818
-167.71797361,-153.57691956,-65.27970379,62.25058960,50.01462955,160.15084207
-138.67350037,-150.46297828,166.41145997,-60.42668727,-0.05296770,-1.11141116
2.30161425,-0.00921925,0.36142047,2.26059580

>  <Name>
1NEM.B

>  <RI>
0

>  <Rbt.Current_Directory>
/home/itssahil/PROJECTS/Mol_Feturizer/New_Systems/rnas/1nem

>  <Rbt.Executable>
rbdock ($Id: //depot/dev/client3/rdock/2013.1/src/exe/rbdock.cxx#4 $)

>  <Rbt.Library>
libRbt.so (2013.1, Build901 2013/11/27)

>  <Rbt.Parameter_File>
/export/apps/rDock/src/rDock_2013.1_src/data/scripts/dock_solv.prm

>  <Rbt.Receptor>
prm/pocket_docking_6.prm

>  <SCORE>
-55.7289

>  <SCORE.INTER>
-61.6547

>  <SCORE.INTER.CONST>
1

>  <SCORE.INTER.POLAR>
-8.45284

>  <SCORE.INTER.ROT>
9

>  <SCORE.INTER.SOLV>
36.0181

>  <SCORE.INTER.VDW>
-34.533

>  <SCORE.INTER.norm>
-1.46797

>  <SCORE.INTRA>
5.92578

>  <SCORE.INTRA.DIHEDRAL>
10.4901

>  <SCORE.INTRA.DIHEDRAL.0>
22.4324

>  <SCORE.INTRA.POLAR>
-0.309738

>  <SCORE.INTRA.POLAR.0>
-1.83749

>  <SCORE.INTRA.REPUL>
0

>  <SCORE.INTRA.REPUL.0>
0

>  <SCORE.INTRA.SOLV>
-2.50752

>  <SCORE.INTRA.SOLV.lig_0>
-160.638

>  <SCORE.INTRA.VDW>
2.98762

>  <SCORE.INTRA.VDW.0>
-7.61953

>  <SCORE.INTRA.norm>
0.14109

>  <SCORE.RESTR>
0

>  <SCORE.RESTR.CAVITY>
0

>  <SCORE.RESTR.norm>
0

>  <SCORE.SYSTEM>
0

>  <SCORE.SYSTEM.CONST>
0

>  <SCORE.SYSTEM.DIHEDRAL>
0

>  <SCORE.SYSTEM.SOLV>
0

>  <SCORE.SYSTEM.norm>
0

>  <SCORE.heavy>
42

>  <SCORE.norm>
-1.32688

>  <RMSD>
1.694

$$$$
1NEM.B
 OpenBabel11021811403D
libRbt.so/2013.1/901 2013/11/27
 42 45  0  0  0  0  0  0  0  0999 V2000
    5.1266   -0.7252   -0.4513 O   0  0  0  0  0  0  0  0  0  0  0  0
    3.9402   -0.5316   -1.2240 C   0  0  0  0  0  0  0  0  0  0  0  0
    2.9068    0.3491   -0.5231 C   0  0  1  0  0  0  0  0  0  0  0  0
    1.8568    0.7031   -1.4183 O   0  0  0  0  0  0  0  0  0  0  0  0
    2.1713   -0.3260    0.6236 C   0  0  1  0  0  0  0  0  0  0  0  0
    3.0950   -0.4477    1.7076 O   0  0  0  0  0  0  0  0  0  0  0  0
    1.0446    0.6740    0.8040 C   0  0  1  0  0  0  0  0  0  0  0  0
    1.5051    1.9142    1.3506 O   0  0  0  0  0  0  0  0  0  0  0  0
    0.6527    0.8580   -0.6669 C   0  0  2  0  0  0  0  0  0  0  0  0
    3.4630    0.7430    2.3433 C   0  0  2  0  0  0  0  0  0  0  0  0
    4.8967    0.6109    2.8745 C   0  0  2  0  0  0  0  0  0  0  0  0
    5.0175   -0.6058    3.7203 N   0  3  0  0  0  0  0  0  0  0  0  0
    5.3147    1.8732    3.6357 C   0  0  1  0  0  0  0  0  0  0  0  0
    5.4905    2.9466    2.7206 O   0  0  0  0  0  0  0  0  0  0  0  0
    4.2672    2.2586    4.6847 C   0  0  2  0  0  0  0  0  0  0  0  0
    4.2423    1.2989    5.7338 O   0  0  0  0  0  0  0  0  0  0  0  0
    2.8924    2.3482    4.0284 C   0  0  1  0  0  0  0  0  0  0  0  0
    2.5739    1.0934    3.3958 O   0  0  0  0  0  0  0  0  0  0  0  0
    1.7801    2.6739    5.0096 C   0  0  0  0  0  0  0  0  0  0  0  0
    1.6292    1.6243    6.0418 N   0  3  0  0  0  0  0  0  0  0  0  0
   -3.9477   -3.1673    4.0750 C   0  0  0  0  0  0  0  0  0  0  0  0
   -1.2798   -1.8945    1.8413 C   0  0  2  0  0  0  0  0  0  0  0  0
   -0.4284   -3.1482    1.6561 C   0  0  2  0  0  0  0  0  0  0  0  0
    0.4246   -3.0159    0.4509 N   0  3  0  0  0  0  0  0  0  0  0  0
   -1.3221   -4.3726    1.5095 C   0  0  1  0  0  0  0  0  0  0  0  0
   -0.5194   -5.5394    1.4161 O   0  0  0  0  0  0  0  0  0  0  0  0
   -2.2548   -4.4716    2.7144 C   0  0  2  0  0  0  0  0  0  0  0  0
   -3.1397   -5.5726    2.5521 O   0  0  0  0  0  0  0  0  0  0  0  0
   -4.2345   -1.7859    4.5250 N   0  3  0  0  0  0  0  0  0  0  0  0
   -3.0589   -3.1793    2.8435 C   0  0  2  0  0  0  0  0  0  0  0  0
   -2.1687   -2.0493    2.9445 O   0  0  0  0  0  0  0  0  0  0  0  0
   -3.3229    1.9272   -1.2706 C   0  0  2  0  0  0  0  0  0  0  0  0
   -3.5120    3.3618   -1.5862 N   0  3  0  0  0  0  0  0  0  0  0  0
   -3.7936    1.6400    0.1507 C   0  0  0  0  0  0  0  0  0  0  0  0
   -3.6029    0.1683    0.4901 C   0  0  2  0  0  0  0  0  0  0  0  0
   -4.0708   -0.0393    1.8532 N   0  3  0  0  0  0  0  0  0  0  0  0
   -2.1288   -0.2065    0.3572 C   0  0  1  0  0  0  0  0  0  0  0  0
   -1.9611   -1.6069    0.6525 O   0  0  0  0  0  0  0  0  0  0  0  0
   -1.6198    0.0803   -1.0622 C   0  0  2  0  0  0  0  0  0  0  0  0
   -0.2054   -0.1848   -1.1245 O   0  0  0  0  0  0  0  0  0  0  0  0
   -1.8581    1.5355   -1.4577 C   0  0  1  0  0  0  0  0  0  0  0  0
   -1.4873    1.7245   -2.8168 O   0  0  0  0  0  0  0  0  0  0  0  0
  1  2  1  0  0  0  0
  3  2  1  6  0  0  0
  3  5  1  0  0  0  0
  3  4  1  0  0  0  0
  4  9  1  0  0  0  0
  5  7  1  0  0  0  0
  5  6  1  1  0  0  0
  7  9  1  0  0  0  0
  7  8  1  6  0  0  0
  9 40  1  6  0  0  0
 10  6  1  1  0  0  0
 10 11  1  0  0  0  0
 10 18  1  0  0  0  0
 11 13  1  0  0  0  0
 11 12  1  1  0  0  0
 13 15  1  0  0  0  0
 13 14  1  6  0  0  0
 15 17  1  0  0  0  0
 15 16  1  1  0  0  0
 17 19  1  1  0  0  0
 17 18  1  0  0  0  0
 19 20  1  0  0  0  0
 21 29  1  0  0  0  0
 22 23  1  0  0  0  0
 22 31  1  0  0  0  0
 22 38  1  6  0  0  0
 23 25  1  0  0  0  0
 23 24  1  6  0  0  0
 25 27  1  0  0  0  0
 25 26  1  1  0  0  0
 27 30  1  0  0  0  0
 27 28  1  6  0  0  0
 30 21  1  1  0  0  0
 30 31  1  0  0  0  0
 32 34  1  0  0  0  0
 32 41  1  0  0  0  0
 32 33  1  1  0  0  0
 34 35  1  0  0  0  0
 35 37  1  0  0  0  0
 35 36  1  1  0  0  0
 37 39  1  0  0  0  0
 37 38  1  6  0  0  0
 39 41  1  0  0  0  0
 39 40  1  1  0  0  0
 41 42  1  6  0  0  0
M  CHG  6  12   1  20   1  24   1  29   1  33   1  36   1
M  END
>  <CHROM.1>
61.34847471,169.75380363,69.93871987,-149.25612246,-179.65159403,-150.80963925
64.85917891,-175.91158521,63.99205186,-62.24480423,171.27981517,154.59933153
3.83640052,-144.63347200,-148.75496649,65.75955342,91.15151355,58.76073689
56.16771450,-110.85749845,-82.72849431,66.69511685,0.35651131,-0.25673022
1.57972668,0.09378233,-0.45331379,-0.83604993

>  <Name>
1NEM.B

>  <RI>
0

>  <Rbt.Current_Directory>
/home/itssahil/PROJECTS/Mol_Feturizer/New_Systems/rnas/1nem

>  <Rbt.Executable>
rbdock ($Id: //depot/dev/client3/rdock/2013.1/src/exe/rbdock.cxx#4 $)

>  <Rbt.Library>
libRbt.so (2013.1, Build901 2013/11/27)

>  <Rbt.Parameter_File>
/export/apps/rDock/src/rDock_2013.1_src/data/scripts/dock_solv.prm

>  <Rbt.Receptor>
prm/pocket_docking_2.prm

>  <SCORE>
-42.9214

>  <SCORE.INTER>
-61.1688

>  <SCORE.INTER.CONST>
1

>  <SCORE.INTER.POLAR>
-9.3293

>  <SCORE.INTER.ROT>
9

>  <SCORE.INTER.SOLV>
46.5851

>  <SCORE.INTER.VDW>
-34.8099

>  <SCORE.INTER.norm>
-1.4564

>  <SCORE.INTRA>
16.7407

>  <SCORE.INTRA.DIHEDRAL>
12.1693

>  <SCORE.INTRA.DIHEDRAL.0>
22.4324

>  <SCORE.INTRA.POLAR>
0.117681

>  <SCORE.INTRA.POLAR.0>
-1.83749

>  <SCORE.INTRA.REPUL>
0

>  <SCORE.INTRA.REPUL.0>
0

>  <SCORE.INTRA.SOLV>
7.85165

>  <SCORE.INTRA.SOLV.lig_0>
-160.638

>  <SCORE.INTRA.VDW>
6.33013

>  <SCORE.INTRA.VDW.0>
-7.61953

>  <SCORE.INTRA.norm>
0.398588

>  <SCORE.RESTR>
1.50666

>  <SCORE.RESTR.CAVITY>
1.50666

>  <SCORE.RESTR.norm>
0.0358728

>  <SCORE.SYSTEM>
0

>  <SCORE.SYSTEM.CONST>
0

>  <SCORE.SYSTEM.DIHEDRAL>
0

>  <SCORE.SYSTEM.SOLV>
0

>  <SCORE.SYSTEM.norm>
0

>  <SCORE.heavy>
42

>  <SCORE.norm>
-1.02194

>  <RMSD>
1.712

$$$$
1NEM.B
 OpenBabel11021811403D
libRbt.so/2013.1/901 2013/11/27
 42 45  0  0  0  0  0  0  0  0999 V2000
    3.1194   -3.8848    3.4936 O   0  0  0  0  0  0  0  0  0  0  0  0
    2.1585   -4.1383    2.4667 C   0  0  0  0  0  0  0  0  0  0  0  0
    2.1102   -3.0379    1.4077 C   0  0  1  0  0  0  0  0  0  0  0  0
    0.8814   -3.0849    0.6884 O   0  0  0  0  0  0  0  0  0  0  0  0
    2.1328   -1.6224    1.9622 C   0  0  1  0  0  0  0  0  0  0  0  0
    3.4561   -1.3758    2.4432 O   0  0  0  0  0  0  0  0  0  0  0  0
    1.7167   -0.8711    0.7115 C   0  0  1  0  0  0  0  0  0  0  0  0
    2.7384   -0.8828   -0.2910 O   0  0  0  0  0  0  0  0  0  0  0  0
    0.5435   -1.7590    0.2804 C   0  0  2  0  0  0  0  0  0  0  0  0
    3.7626   -0.0472    2.7568 C   0  0  2  0  0  0  0  0  0  0  0  0
    5.2863    0.1357    2.7502 C   0  0  2  0  0  0  0  0  0  0  0  0
    5.9252   -0.8731    3.6359 N   0  3  0  0  0  0  0  0  0  0  0  0
    5.6658    1.5643    3.1534 C   0  0  1  0  0  0  0  0  0  0  0  0
    5.3065    2.4653    2.1144 O   0  0  0  0  0  0  0  0  0  0  0  0
    4.9687    1.9754    4.4539 C   0  0  2  0  0  0  0  0  0  0  0  0
    5.4882    1.2320    5.5492 O   0  0  0  0  0  0  0  0  0  0  0  0
    3.4666    1.7369    4.3286 C   0  0  1  0  0  0  0  0  0  0  0  0
    3.2198    0.3541    4.0079 O   0  0  0  0  0  0  0  0  0  0  0  0
    2.6996    2.0680    5.5968 C   0  0  0  0  0  0  0  0  0  0  0  0
    3.2039    1.3075    6.7618 N   0  3  0  0  0  0  0  0  0  0  0  0
   -3.8114   -4.2407    4.7697 C   0  0  0  0  0  0  0  0  0  0  0  0
   -2.7061   -2.5897    1.6425 C   0  0  2  0  0  0  0  0  0  0  0  0
   -3.2379   -3.5623    0.5926 C   0  0  2  0  0  0  0  0  0  0  0  0
   -3.3250   -2.8947   -0.7281 N   0  3  0  0  0  0  0  0  0  0  0  0
   -4.6175   -4.0661    0.9950 C   0  0  1  0  0  0  0  0  0  0  0  0
   -5.0671   -5.0270    0.0522 O   0  0  0  0  0  0  0  0  0  0  0  0
   -4.5480   -4.6888    2.3876 C   0  0  2  0  0  0  0  0  0  0  0  0
   -5.8455   -5.0993    2.7993 O   0  0  0  0  0  0  0  0  0  0  0  0
   -5.1117   -4.5764    5.3937 N   0  3  0  0  0  0  0  0  0  0  0  0
   -3.9939   -3.6648    3.3763 C   0  0  2  0  0  0  0  0  0  0  0  0
   -2.7047   -3.1946    2.9329 O   0  0  0  0  0  0  0  0  0  0  0  0
   -1.7728    1.7274   -0.7017 C   0  0  2  0  0  0  0  0  0  0  0  0
   -1.0266    2.9564   -1.0569 N   0  3  0  0  0  0  0  0  0  0  0  0
   -2.8908    2.0619    0.2792 C   0  0  0  0  0  0  0  0  0  0  0  0
   -3.6657    0.8067    0.6553 C   0  0  2  0  0  0  0  0  0  0  0  0
   -4.7146    1.1930    1.5884 N   0  3  0  0  0  0  0  0  0  0  0  0
   -2.7223   -0.2134    1.2883 C   0  0  1  0  0  0  0  0  0  0  0  0
   -3.4575   -1.4088    1.6153 O   0  0  0  0  0  0  0  0  0  0  0  0
   -1.5773   -0.5651    0.3283 C   0  0  2  0  0  0  0  0  0  0  0  0
   -0.6516   -1.4464    0.9926 O   0  0  0  0  0  0  0  0  0  0  0  0
   -0.8213    0.6830   -0.1204 C   0  0  1  0  0  0  0  0  0  0  0  0
    0.1451    0.3258   -1.0997 O   0  0  0  0  0  0  0  0  0  0  0  0
  1  2  1  0  0  0  0
  3  2  1  1  0  0  0
  3  5  1  0  0  0  0
  3  4  1  0  0  0  0
  4  9  1  0  0  0  0
  5  7  1  0  0  0  0
  5  6  1  6  0  0  0
  7  9  1  0  0  0  0
  7  8  1  6  0  0  0
  9 40  1  1  0  0  0
 10  6  1  1  0  0  0
 10 11  1  0  0  0  0
 10 18  1  0  0  0  0
 11 13  1  0  0  0  0
 11 12  1  1  0  0  0
 13 15  1  0  0  0  0
 13 14  1  6  0  0  0
 15 17  1  0  0  0  0
 15 16  1  1  0  0  0
 17 19  1  1  0  0  0
 17 18  1  0  0  0  0
 19 20  1  0  0  0  0
 21 29  1  0  0  0  0
 22 23  1  0  0  0  0
 22 31  1  0  0  0  0
 22 38  1  1  0  0  0
 23 25  1  0  0  0  0
 23 24  1  6  0  0  0
 25 27  1  0  0  0  0
 25 26  1  6  0  0  0
 27 30  1  0  0  0  0
 27 28  1  1  0  0  0
 30 21  1  1  0  0  0
 30 31  1  0  0  0  0
 32 34  1  0  0  0  0
 32 41  1  0  0  0  0
 32 33  1  1  0  0  0
 34 35  1  0  0  0  0
 35 37  1  0  0  0  0
 35 36  1  1  0  0  0
 37 39  1  0  0  0  0
 37 38  1  6  0  0  0
 39 41  1  0  0  0  0
 39 40  1  1  0  0  0
 41 42  1  6  0  0  0
M  CHG  6  12   1  20   1  24   1  29   1  33   1  36   1
M  END
>  <CHROM.1>
51.50317858,-160.27694270,167.99839884,-159.36600668,-58.76762481,-148.35404985
-80.65575389,63.09250063,73.61103878,-56.77510510,-84.42483577,-66.79569569
61.54402315,-118.46633266,-53.78348149,-174.45057989,-49.09824825,-57.05283501
72.40502353,153.23094038,-173.80835906,-55.17675166,-0.00287093,-1.11058701
2.07547879,-0.18881230,0.41488065,2.47641322

>  <Name>
1NEM.B

>  <RI>
0

>  <Rbt.Current_Directory>
/home/itssahil/PROJECTS/Mol_Feturizer/New_Systems/rnas/1nem

>  <Rbt.Executable>
rbdock ($Id: //depot/dev/client3/rdock/2013.1/src/exe/rbdock.cxx#4 $)

>  <Rbt.Library>
libRbt.so (2013.1, Build901 2013/11/27)

>  <Rbt.Parameter_File>
/export/apps/rDock/src/rDock_2013.1_src/data/scripts/dock_solv.prm

>  <Rbt.Receptor>
prm/pocket_docking_5.prm

>  <SCORE>
-34.1607

>  <SCORE.INTER>
-43.871

>  <SCORE.INTER.CONST>
1

>  <SCORE.INTER.POLAR>
-5.45632

>  <SCORE.INTER.ROT>
9

>  <SCORE.INTER.SOLV>
34.7342

>  <SCORE.INTER.VDW>
-32.2377

>  <SCORE.INTER.norm>
-1.04455

>  <SCORE.INTRA>
9.69096

>  <SCORE.INTRA.DIHEDRAL>
1.51269

>  <SCORE.INTRA.DIHEDRAL.0>
22.4324

>  <SCORE.INTRA.POLAR>
-0.536996

>  <SCORE.INTRA.POLAR.0>
-1.83749

>  <SCORE.INTRA.REPUL>
0

>  <SCORE.INTRA.REPUL.0>
0

>  <SCORE.INTRA.SOLV>
-0.562476

>  <SCORE.INTRA.SOLV.lig_0>
-160.638

>  <SCORE.INTRA.VDW>
11.0416

>  <SCORE.INTRA.VDW.0>
-7.61953

>  <SCORE.INTRA.norm>
0.230737

>  <SCORE.RESTR>
0.0193937

>  <SCORE.RESTR.CAVITY>
0.0193937

>  <SCORE.RESTR.norm>
0.000461756

>  <SCORE.SYSTEM>
0

>  <SCORE.SYSTEM.CONST>
0

>  <SCORE.SYSTEM.DIHEDRAL>
0

>  <SCORE.SYSTEM.SOLV>
0

>  <SCORE.SYSTEM.norm>
0

>  <SCORE.heavy>
42

>  <SCORE.norm>
-0.813349

>  <RMSD>
1.740

$$$$
1NEM.B
 OpenBabel11021811403D
libRbt.so/2013.1/901 2013/11/27
 42 45  0  0  0  0  0  0  0  0999 V2000
    3.4573   -1.7539   -1.9557 O   0  0  0  0  0  0  0  0  0  0  0  0
    3.6296   -1.2927   -0.6141 C   0  0  0  0  0  0  0  0  0  0  0  0
    3.1500    0.1434   -0.4089 C   0  0  1  0  0  0  0  0  0  0  0  0
    1.8210    0.3050   -0.8960 O   0  0  0  0  0  0  0  0  0  0  0  0
    3.0406    0.5741    1.0450 C   0  0  1  0  0  0  0  0  0  0  0  0
    4.3713    0.7374    1.5410 O   0  0  0  0  0  0  0  0  0  0  0  0
    2.2287    1.8419    0.8564 C   0  0  1  0  0  0  0  0  0  0  0  0
    2.9870    2.8807    0.2280 O   0  0  0  0  0  0  0  0  0  0  0  0
    1.1682    1.3029   -0.1109 C   0  0  2  0  0  0  0  0  0  0  0  0
    4.4886    1.1835    2.8617 C   0  0  2  0  0  0  0  0  0  0  0  0
    5.8110    0.6753    3.4519 C   0  0  2  0  0  0  0  0  0  0  0  0
    5.9115   -0.7986    3.2847 N   0  3  0  0  0  0  0  0  0  0  0  0
    5.9473    1.0888    4.9209 C   0  0  1  0  0  0  0  0  0  0  0  0
    6.1647    2.4911    5.0042 O   0  0  0  0  0  0  0  0  0  0  0  0
    4.6945    0.7148    5.7190 C   0  0  2  0  0  0  0  0  0  0  0  0
    4.5885   -0.6982    5.8385 O   0  0  0  0  0  0  0  0  0  0  0  0
    3.4566    1.2728    5.0225 C   0  0  1  0  0  0  0  0  0  0  0  0
    3.3940    0.7751    3.6718 O   0  0  0  0  0  0  0  0  0  0  0  0
    2.1591    0.9022    5.7190 C   0  0  0  0  0  0  0  0  0  0  0  0
    1.8990    1.7611    6.8957 N   0  3  0  0  0  0  0  0  0  0  0  0
   -3.4462   -3.8882    3.7692 C   0  0  0  0  0  0  0  0  0  0  0  0
   -0.7746   -2.1501    1.8801 C   0  0  2  0  0  0  0  0  0  0  0  0
    0.2212   -3.2873    1.6654 C   0  0  2  0  0  0  0  0  0  0  0  0
    1.1425   -2.9592    0.5513 N   0  3  0  0  0  0  0  0  0  0  0  0
   -0.5186   -4.5790    1.3442 C   0  0  1  0  0  0  0  0  0  0  0  0
    0.4124   -5.6435    1.2236 O   0  0  0  0  0  0  0  0  0  0  0  0
   -1.5226   -4.8823    2.4540 C   0  0  2  0  0  0  0  0  0  0  0  0
   -2.2662   -6.0496    2.1281 O   0  0  0  0  0  0  0  0  0  0  0  0
   -2.7422   -3.9904    5.0680 N   0  3  0  0  0  0  0  0  0  0  0  0
   -2.4715   -3.6970    2.6202 C   0  0  2  0  0  0  0  0  0  0  0  0
   -1.7213   -2.4949    2.8881 O   0  0  0  0  0  0  0  0  0  0  0  0
   -3.1531    1.6868   -0.9432 C   0  0  2  0  0  0  0  0  0  0  0  0
   -3.8005    3.0167   -1.0178 N   0  3  0  0  0  0  0  0  0  0  0  0
   -4.0328    0.7225   -0.1555 C   0  0  0  0  0  0  0  0  0  0  0  0
   -3.3783   -0.6491   -0.0687 C   0  0  2  0  0  0  0  0  0  0  0  0
   -4.2652   -1.5192    0.6906 N   0  3  0  0  0  0  0  0  0  0  0  0
   -2.0171   -0.5306    0.6128 C   0  0  1  0  0  0  0  0  0  0  0  0
   -1.3922   -1.8279    0.6657 O   0  0  0  0  0  0  0  0  0  0  0  0
   -1.1086    0.4427   -0.1511 C   0  0  2  0  0  0  0  0  0  0  0  0
    0.1251    0.6116    0.5728 O   0  0  0  0  0  0  0  0  0  0  0  0
   -1.7667    1.8106   -0.3132 C   0  0  1  0  0  0  0  0  0  0  0  0
   -0.9478    2.6372   -1.1297 O   0  0  0  0  0  0  0  0  0  0  0  0
  1  2  1  0  0  0  0
  3  2  1  1  0  0  0
  3  5  1  0  0  0  0
  3  4  1  0  0  0  0
  4  9  1  0  0  0  0
  5  7  1  0  0  0  0
  5  6  1  6  0  0  0
  7  9  1  0  0  0  0
  7  8  1  6  0  0  0
  9 40  1  1  0  0  0
 10  6  1  6  0  0  0
 10 11  1  0  0  0  0
 10 18  1  0  0  0  0
 11 13  1  0  0  0  0
 11 12  1  1  0  0  0
 13 15  1  0  0  0  0
 13 14  1  6  0  0  0
 15 17  1  0  0  0  0
 15 16  1  6  0  0  0
 17 19  1  1  0  0  0
 17 18  1  0  0  0  0
 19 20  1  0  0  0  0
 21 29  1  0  0  0  0
 22 23  1  0  0  0  0
 22 31  1  0  0  0  0
 22 38  1  6  0  0  0
 23 25  1  0  0  0  0
 23 24  1  6  0  0  0
 25 27  1  0  0  0  0
 25 26  1  1  0  0  0
 27 30  1  0  0  0  0
 27 28  1  6  0  0  0
 30 21  1  1  0  0  0
 30 31  1  0  0  0  0
 32 34  1  0  0  0  0
 32 41  1  0  0  0  0
 32 33  1  1  0  0  0
 34 35  1  0  0  0  0
 35 37  1  0  0  0  0
 35 36  1  1  0  0  0
 37 39  1  0  0  0  0
 37 38  1  6  0  0  0
 39 41  1  0  0  0  0
 39 40  1  1  0  0  0
 41 42  1  6  0  0  0
M  CHG  6  12   1  20   1  24   1  29   1  33   1  36   1
M  END
>  <CHROM.1>
66.00615857,51.55185636,177.70986802,152.62261544,-41.98050696,-84.60964870
38.74887581,-53.55546557,62.67977486,79.49524451,147.20752554,62.69176350
-60.77006480,-160.93676877,78.26853503,-67.64478854,-50.53243674,71.96556809
69.46298556,-136.68120954,169.65100197,78.98767281,0.84710765,-0.56547714
1.82980217,0.07589978,-0.50838313,-0.66495076

>  <Name>
1NEM.B

>  <RI>
0

>  <Rbt.Current_Directory>
/home/itssahil/PROJECTS/Mol_Feturizer/New_Systems/rnas/1nem

>  <Rbt.Executable>
rbdock ($Id: //depot/dev/client3/rdock/2013.1/src/exe/rbdock.cxx#4 $)

>  <Rbt.Library>
libRbt.so (2013.1, Build901 2013/11/27)

>  <Rbt.Parameter_File>
/export/apps/rDock/src/rDock_2013.1_src/data/scripts/dock_solv.prm

>  <Rbt.Receptor>
prm/pocket_docking_5.prm

>  <SCORE>
-55.483

>  <SCORE.INTER>
-63.0832

>  <SCORE.INTER.CONST>
1

>  <SCORE.INTER.POLAR>
-9.49499

>  <SCORE.INTER.ROT>
9

>  <SCORE.INTER.SOLV>
45.4603

>  <SCORE.INTER.VDW>
-35.1589

>  <SCORE.INTER.norm>
-1.50198

>  <SCORE.INTRA>
7.60025

>  <SCORE.INTRA.DIHEDRAL>
2.24918

>  <SCORE.INTRA.DIHEDRAL.0>
22.4324

>  <SCORE.INTRA.POLAR>
1.20423

>  <SCORE.INTRA.POLAR.0>
-1.83749

>  <SCORE.INTRA.REPUL>
0

>  <SCORE.INTRA.REPUL.0>
0

>  <SCORE.INTRA.SOLV>
-1.17855

>  <SCORE.INTRA.SOLV.lig_0>
-160.638

>  <SCORE.INTRA.VDW>
2.97056

>  <SCORE.INTRA.VDW.0>
-7.61953

>  <SCORE.INTRA.norm>
0.180958

>  <SCORE.RESTR>
0

>  <SCORE.RESTR.CAVITY>
0

>  <SCORE.RESTR.norm>
0

>  <SCORE.SYSTEM>
0

>  <SCORE.SYSTEM.CONST>
0

>  <SCORE.SYSTEM.DIHEDRAL>
0

>  <SCORE.SYSTEM.SOLV>
0

>  <SCORE.SYSTEM.norm>
0

>  <SCORE.heavy>
42

>  <SCORE.norm>
-1.32102

>  <RMSD>
1.755

$$$$
1NEM.B
 OpenBabel11021811403D
libRbt.so/2013.1/901 2013/11/27
 42 45  0  0  0  0  0  0  0  0999 V2000
    1.3931   -4.4055    3.0843 O   0  0  0  0  0  0  0  0  0  0  0  0
    2.1153   -4.4165    1.8512 C   0  0  0  0  0  0  0  0  0  0  0  0
    2.2414   -3.0309    1.2194 C   0  0  1  0  0  0  0  0  0  0  0  0
    1.1178   -2.7519    0.3892 O   0  0  0  0  0  0  0  0  0  0  0  0
    2.2339   -1.8784    2.2109 C   0  0  1  0  0  0  0  0  0  0  0  0
    3.4888   -1.8986    2.8951 O   0  0  0  0  0  0  0  0  0  0  0  0
    2.0103   -0.7330    1.2415 C   0  0  1  0  0  0  0  0  0  0  0  0
    3.1549   -0.4921    0.4163 O   0  0  0  0  0  0  0  0  0  0  0  0
    0.8778   -1.3446    0.4084 C   0  0  2  0  0  0  0  0  0  0  0  0
    4.3040   -0.7744    2.7251 C   0  0  2  0  0  0  0  0  0  0  0  0
    5.4129   -0.7883    3.7860 C   0  0  2  0  0  0  0  0  0  0  0  0
    4.8198   -0.9240    5.1425 N   0  3  0  0  0  0  0  0  0  0  0  0
    6.2902    0.4629    3.6744 C   0  0  1  0  0  0  0  0  0  0  0  0
    7.0792    0.3893    2.4943 O   0  0  0  0  0  0  0  0  0  0  0  0
    5.4375    1.7350    3.6439 C   0  0  2  0  0  0  0  0  0  0  0  0
    4.8172    1.9443    4.9063 O   0  0  0  0  0  0  0  0  0  0  0  0
    4.3749    1.6147    2.5552 C   0  0  1  0  0  0  0  0  0  0  0  0
    3.5711    0.4421    2.7891 O   0  0  0  0  0  0  0  0  0  0  0  0
    3.4459    2.8142    2.4896 C   0  0  0  0  0  0  0  0  0  0  0  0
    3.9867    3.8849    1.6230 N   0  3  0  0  0  0  0  0  0  0  0  0
   -5.7021   -3.1785    4.2781 C   0  0  0  0  0  0  0  0  0  0  0  0
   -2.7402   -2.4783    2.1653 C   0  0  2  0  0  0  0  0  0  0  0  0
   -2.4973   -3.8481    1.5362 C   0  0  2  0  0  0  0  0  0  0  0  0
   -1.6650   -3.7125    0.3170 N   0  3  0  0  0  0  0  0  0  0  0  0
   -3.8240   -4.5006    1.1711 C   0  0  1  0  0  0  0  0  0  0  0  0
   -3.5889   -5.8035    0.6595 O   0  0  0  0  0  0  0  0  0  0  0  0
   -4.7146   -4.5751    2.4093 C   0  0  2  0  0  0  0  0  0  0  0  0
   -5.9812   -5.1199    2.0622 O   0  0  0  0  0  0  0  0  0  0  0  0
   -6.3953   -1.8873    4.4907 N   0  3  0  0  0  0  0  0  0  0  0  0
   -4.8981   -3.1741    2.9896 C   0  0  2  0  0  0  0  0  0  0  0  0
   -3.6142   -2.5878    3.2856 O   0  0  0  0  0  0  0  0  0  0  0  0
   -1.7025    2.0846   -0.2723 C   0  0  2  0  0  0  0  0  0  0  0  0
   -1.0958    3.4355   -0.2962 N   0  3  0  0  0  0  0  0  0  0  0  0
   -2.9829    2.1031    0.5549 C   0  0  0  0  0  0  0  0  0  0  0  0
   -3.6168    0.7195    0.5902 C   0  0  2  0  0  0  0  0  0  0  0  0
   -4.8303    0.8052    1.3904 N   0  3  0  0  0  0  0  0  0  0  0  0
   -2.6363   -0.2835    1.1934 C   0  0  1  0  0  0  0  0  0  0  0  0
   -3.2330   -1.5951    1.1972 O   0  0  0  0  0  0  0  0  0  0  0  0
   -1.3299   -0.3195    0.3884 C   0  0  2  0  0  0  0  0  0  0  0  0
   -0.3909   -1.1947    1.0418 O   0  0  0  0  0  0  0  0  0  0  0  0
   -0.7034    1.0683    0.2781 C   0  0  1  0  0  0  0  0  0  0  0  0
    0.4316    1.0099   -0.5757 O   0  0  0  0  0  0  0  0  0  0  0  0
  1  2  1  0  0  0  0
  3  2  1  1  0  0  0
  3  5  1  0  0  0  0
  3  4  1  0  0  0  0
  4  9  1  0  0  0  0
  5  7  1  0  0  0  0
  5  6  1  6  0  0  0
  7  9  1  0  0  0  0
  7  8  1  6  0  0  0
  9 40  1  1  0  0  0
 10  6  1  1  0  0  0
 10 11  1  0  0  0  0
 10 18  1  0  0  0  0
 11 13  1  0  0  0  0
 11 12  1  1  0  0  0
 13 15  1  0  0  0  0
 13 14  1  6  0  0  0
 15 17  1  0  0  0  0
 15 16  1  1  0  0  0
 17 19  1  1  0  0  0
 17 18  1  0  0  0  0
 19 20  1  0  0  0  0
 21 29  1  0  0  0  0
 22 23  1  0  0  0  0
 22 31  1  0  0  0  0
 22 38  1  6  0  0  0
 23 25  1  0  0  0  0
 23 24  1  6  0  0  0
 25 27  1  0  0  0  0
 25 26  1  1  0  0  0
 27 30  1  0  0  0  0
 27 28  1  6  0  0  0
 30 21  1  1  0  0  0
 30 31  1  0  0  0  0
 32 34  1  0  0  0  0
 32 41  1  0  0  0  0
 32 33  1  1  0  0  0
 34 35  1  0  0  0  0
 35 37  1  0  0  0  0
 35 36  1  1  0  0  0
 37 39  1  0  0  0  0
 37 38  1  6  0  0  0
 39 41  1  0  0  0  0
 39 40  1  1  0  0  0
 41 42  1  6  0  0  0
M  CHG  6  12   1  20   1  24   1  29   1  33   1  36   1
M  END
>  <CHROM.1>
176.55949878,-87.62324144,117.51463921,165.42107205,-179.17112302,-132.73081149
-71.36116852,-44.72012166,173.76019169,87.24349044,-25.79295249,-153.63814013
42.55135528,-135.35217460,-61.50352478,25.88878141,-52.31630072,-141.10262763
-61.73758306,-154.83153534,179.56059454,70.67106559,0.10691141,-1.02050254
1.92190216,-0.34212224,0.18553151,2.89196850

>  <Name>
1NEM.B

>  <RI>
0

>  <Rbt.Current_Directory>
/home/itssahil/PROJECTS/Mol_Feturizer/New_Systems/rnas/1nem

>  <Rbt.Executable>
rbdock ($Id: //depot/dev/client3/rdock/2013.1/src/exe/rbdock.cxx#4 $)

>  <Rbt.Library>
libRbt.so (2013.1, Build901 2013/11/27)

>  <Rbt.Parameter_File>
/export/apps/rDock/src/rDock_2013.1_src/data/scripts/dock_solv.prm

>  <Rbt.Receptor>
prm/pocket_docking_3.prm

>  <SCORE>
-30.5099

>  <SCORE.INTER>
-46.6408

>  <SCORE.INTER.CONST>
1

>  <SCORE.INTER.POLAR>
-7.52774

>  <SCORE.INTER.ROT>
9

>  <SCORE.INTER.SOLV>
40.5486

>  <SCORE.INTER.VDW>
-29.1176

>  <SCORE.INTER.norm>
-1.11049

>  <SCORE.INTRA>
15.6043

>  <SCORE.INTRA.DIHEDRAL>
20.0458

>  <SCORE.INTRA.DIHEDRAL.0>
22.4324

>  <SCORE.INTRA.POLAR>
-0.523363

>  <SCORE.INTRA.POLAR.0>
-1.83749

>  <SCORE.INTRA.REPUL>
0

>  <SCORE.INTRA.REPUL.0>
0

>  <SCORE.INTRA.SOLV>
-2.99867

>  <SCORE.INTRA.SOLV.lig_0>
-160.638

>  <SCORE.INTRA.VDW>
8.86016

>  <SCORE.INTRA.VDW.0>
-7.61953

>  <SCORE.INTRA.norm>
0.371531

>  <SCORE.RESTR>
0.526562

>  <SCORE.RESTR.CAVITY>
0.526562

>  <SCORE.RESTR.norm>
0.0125372

>  <SCORE.SYSTEM>
0

>  <SCORE.SYSTEM.CONST>
0

>  <SCORE.SYSTEM.DIHEDRAL>
0

>  <SCORE.SYSTEM.SOLV>
0

>  <SCORE.SYSTEM.norm>
0

>  <SCORE.heavy>
42

>  <SCORE.norm>
-0.726427

>  <RMSD>
1.834

$$$$
1NEM.B
 OpenBabel11021811403D
libRbt.so/2013.1/901 2013/11/27
 42 45  0  0  0  0  0  0  0  0999 V2000
    2.4470   -5.5943    1.9321 O   0  0  0  0  0  0  0  0  0  0  0  0
    2.0805   -4.3496    2.5310 C   0  0  0  0  0  0  0  0  0  0  0  0
    1.9714   -3.2087    1.5205 C   0  0  1  0  0  0  0  0  0  0  0  0
    0.7304   -3.2701    0.8237 O   0  0  0  0  0  0  0  0  0  0  0  0
    1.9555   -1.8175    2.1337 C   0  0  1  0  0  0  0  0  0  0  0  0
    3.2790   -1.5434    2.5991 O   0  0  0  0  0  0  0  0  0  0  0  0
    1.4873   -1.0305    0.9241 C   0  0  1  0  0  0  0  0  0  0  0  0
    2.4878   -0.9636   -0.0975 O   0  0  0  0  0  0  0  0  0  0  0  0
    0.3374   -1.9416    0.4785 C   0  0  2  0  0  0  0  0  0  0  0  0
    3.4504   -0.3494    3.3078 C   0  0  2  0  0  0  0  0  0  0  0  0
    4.9390   -0.1617    3.6306 C   0  0  2  0  0  0  0  0  0  0  0  0
    5.4689   -1.3702    4.3156 N   0  3  0  0  0  0  0  0  0  0  0  0
    5.1609    1.1044    4.4643 C   0  0  1  0  0  0  0  0  0  0  0  0
    4.9387    2.2530    3.6568 O   0  0  0  0  0  0  0  0  0  0  0  0
    4.2248    1.1395    5.6762 C   0  0  2  0  0  0  0  0  0  0  0  0
    4.5857    0.1283    6.6085 O   0  0  0  0  0  0  0  0  0  0  0  0
    2.7837    0.9348    5.2178 C   0  0  1  0  0  0  0  0  0  0  0  0
    2.6752   -0.3091    4.4988 O   0  0  0  0  0  0  0  0  0  0  0  0
    1.7891    0.9012    6.3649 C   0  0  0  0  0  0  0  0  0  0  0  0
    1.8356    2.1403    7.1726 N   0  3  0  0  0  0  0  0  0  0  0  0
   -3.8888   -4.7806    4.9157 C   0  0  0  0  0  0  0  0  0  0  0  0
   -2.8528   -2.9418    1.8706 C   0  0  2  0  0  0  0  0  0  0  0  0
   -3.3537   -3.8805    0.7756 C   0  0  2  0  0  0  0  0  0  0  0  0
   -3.4687   -3.1530   -0.5110 N   0  3  0  0  0  0  0  0  0  0  0  0
   -4.7134   -4.4515    1.1553 C   0  0  1  0  0  0  0  0  0  0  0  0
   -5.1322   -5.3808    0.1677 O   0  0  0  0  0  0  0  0  0  0  0  0
   -4.6173   -5.1383    2.5158 C   0  0  2  0  0  0  0  0  0  0  0  0
   -5.8982   -5.6137    2.9093 O   0  0  0  0  0  0  0  0  0  0  0  0
   -2.7597   -4.1548    5.6414 N   0  3  0  0  0  0  0  0  0  0  0  0
   -4.0961   -4.1446    3.5522 C   0  0  2  0  0  0  0  0  0  0  0  0
   -2.8257   -3.6083    3.1300 O   0  0  0  0  0  0  0  0  0  0  0  0
   -2.1130    1.5038   -0.3018 C   0  0  2  0  0  0  0  0  0  0  0  0
   -1.4153    2.7721   -0.6149 N   0  3  0  0  0  0  0  0  0  0  0  0
   -3.2215    1.7559    0.7140 C   0  0  0  0  0  0  0  0  0  0  0  0
   -3.9464    0.4595    1.0473 C   0  0  2  0  0  0  0  0  0  0  0  0
   -4.9886    0.7677    2.0163 N   0  3  0  0  0  0  0  0  0  0  0  0
   -2.9571   -0.5550    1.6158 C   0  0  1  0  0  0  0  0  0  0  0  0
   -3.6454   -1.7882    1.9021 O   0  0  0  0  0  0  0  0  0  0  0  0
   -1.8205   -0.8243    0.6198 C   0  0  2  0  0  0  0  0  0  0  0  0
   -0.8529   -1.7022    1.2262 O   0  0  0  0  0  0  0  0  0  0  0  0
   -1.1157    0.4676    0.2139 C   0  0  1  0  0  0  0  0  0  0  0  0
   -0.1579    0.1876   -0.7983 O   0  0  0  0  0  0  0  0  0  0  0  0
  1  2  1  0  0  0  0
  3  2  1  1  0  0  0
  3  5  1  0  0  0  0
  3  4  1  0  0  0  0
  4  9  1  0  0  0  0
  5  7  1  0  0  0  0
  5  6  1  6  0  0  0
  7  9  1  0  0  0  0
  7  8  1  6  0  0  0
  9 40  1  1  0  0  0
 10  6  1  1  0  0  0
 10 11  1  0  0  0  0
 10 18  1  0  0  0  0
 11 13  1  0  0  0  0
 11 12  1  1  0  0  0
 13 15  1  0  0  0  0
 13 14  1  6  0  0  0
 15 17  1  0  0  0  0
 15 16  1  1  0  0  0
 17 19  1  1  0  0  0
 17 18  1  0  0  0  0
 19 20  1  0  0  0  0
 21 29  1  0  0  0  0
 22 23  1  0  0  0  0
 22 31  1  0  0  0  0
 22 38  1  1  0  0  0
 23 25  1  0  0  0  0
 23 24  1  6  0  0  0
 25 27  1  0  0  0  0
 25 26  1  6  0  0  0
 27 30  1  0  0  0  0
 27 28  1  1  0  0  0
 30 21  1  1  0  0  0
 30 31  1  0  0  0  0
 32 34  1  0  0  0  0
 32 41  1  0  0  0  0
 32 33  1  1  0  0  0
 34 35  1  0  0  0  0
 35 37  1  0  0  0  0
 35 36  1  1  0  0  0
 37 39  1  0  0  0  0
 37 38  1  6  0  0  0
 39 41  1  0  0  0  0
 39 40  1  1  0  0  0
 41 42  1  6  0  0  0
M  CHG  6  12   1  20   1  24   1  29   1  33   1  36   1
M  END
>  <CHROM.1>
-40.83353827,79.45333941,-174.53973941,-175.49486472,-57.14567069,-148.57023539
-70.39278163,54.84892554,177.74627277,57.88360221,138.99760741,147.78272629
106.38517101,-117.71834498,-174.20187161,-171.73027307,67.34753049,-41.32565833
178.53022488,153.63521010,-173.79670986,65.34628036,-0.25846592,-1.47158335
2.43058127,-0.21552597,0.47241321,2.67318408

>  <Name>
1NEM.B

>  <RI>
0

>  <Rbt.Current_Directory>
/home/itssahil/PROJECTS/Mol_Feturizer/New_Systems/rnas/1nem

>  <Rbt.Executable>
rbdock ($Id: //depot/dev/client3/rdock/2013.1/src/exe/rbdock.cxx#4 $)

>  <Rbt.Library>
libRbt.so (2013.1, Build901 2013/11/27)

>  <Rbt.Parameter_File>
/export/apps/rDock/src/rDock_2013.1_src/data/scripts/dock_solv.prm

>  <Rbt.Receptor>
prm/blind_docking_80.prm

>  <SCORE>
-40.0195

>  <SCORE.INTER>
-61.8471

>  <SCORE.INTER.CONST>
1

>  <SCORE.INTER.POLAR>
-8.76427

>  <SCORE.INTER.ROT>
9

>  <SCORE.INTER.SOLV>
48.6795

>  <SCORE.INTER.VDW>
-37.8437

>  <SCORE.INTER.norm>
-1.47255

>  <SCORE.INTRA>
14.4114

>  <SCORE.INTRA.DIHEDRAL>
6.6608

>  <SCORE.INTRA.DIHEDRAL.0>
22.4324

>  <SCORE.INTRA.POLAR>
0.7245

>  <SCORE.INTRA.POLAR.0>
-1.83749

>  <SCORE.INTRA.REPUL>
0

>  <SCORE.INTRA.REPUL.0>
0

>  <SCORE.INTRA.SOLV>
-5.28857

>  <SCORE.INTRA.SOLV.lig_0>
-160.638

>  <SCORE.INTRA.VDW>
11.262

>  <SCORE.INTRA.VDW.0>
-7.61953

>  <SCORE.INTRA.norm>
0.343128

>  <SCORE.RESTR>
7.41624

>  <SCORE.RESTR.CAVITY>
7.41624

>  <SCORE.RESTR.norm>
0.176577

>  <SCORE.SYSTEM>
0

>  <SCORE.SYSTEM.CONST>
0

>  <SCORE.SYSTEM.DIHEDRAL>
0

>  <SCORE.SYSTEM.SOLV>
0

>  <SCORE.SYSTEM.norm>
0

>  <SCORE.heavy>
42

>  <SCORE.norm>
-0.952846

>  <RMSD>
1.860

$$$$
1NEM.B
 OpenBabel11021811403D
libRbt.so/2013.1/901 2013/11/27
 42 45  0  0  0  0  0  0  0  0999 V2000
    2.4068   -4.8262    2.6665 O   0  0  0  0  0  0  0  0  0  0  0  0
    1.3153   -3.9476    2.3858 C   0  0  0  0  0  0  0  0  0  0  0  0
    1.6886   -2.8164    1.4288 C   0  0  1  0  0  0  0  0  0  0  0  0
    0.6057   -2.5210    0.5515 O   0  0  0  0  0  0  0  0  0  0  0  0
    1.9633   -1.4809    2.1016 C   0  0  1  0  0  0  0  0  0  0  0  0
    3.2199   -1.5942    2.7734 O   0  0  0  0  0  0  0  0  0  0  0  0
    1.9294   -0.5867    0.8764 C   0  0  1  0  0  0  0  0  0  0  0  0
    3.0574   -0.7991    0.0210 O   0  0  0  0  0  0  0  0  0  0  0  0
    0.6571   -1.1336    0.2183 C   0  0  2  0  0  0  0  0  0  0  0  0
    3.6716   -0.4487    3.4375 C   0  0  2  0  0  0  0  0  0  0  0  0
    4.1760    0.5689    2.4054 C   0  0  2  0  0  0  0  0  0  0  0  0
    5.1805   -0.0657    1.5118 N   0  3  0  0  0  0  0  0  0  0  0  0
    4.7405    1.8137    3.0976 C   0  0  1  0  0  0  0  0  0  0  0  0
    3.6792    2.5597    3.6787 O   0  0  0  0  0  0  0  0  0  0  0  0
    5.7538    1.4321    4.1811 C   0  0  2  0  0  0  0  0  0  0  0  0
    6.9274    0.8885    3.5904 O   0  0  0  0  0  0  0  0  0  0  0  0
    5.1299    0.4143    5.1317 C   0  0  1  0  0  0  0  0  0  0  0  0
    4.6889   -0.7380    4.3876 O   0  0  0  0  0  0  0  0  0  0  0  0
    6.0863   -0.0625    6.2106 C   0  0  0  0  0  0  0  0  0  0  0  0
    7.2287   -0.8131    5.6437 N   0  3  0  0  0  0  0  0  0  0  0  0
   -4.5318   -2.0833    4.5192 C   0  0  0  0  0  0  0  0  0  0  0  0
   -2.4819   -2.2648    1.4383 C   0  0  2  0  0  0  0  0  0  0  0  0
   -2.5844   -3.7510    1.1040 C   0  0  2  0  0  0  0  0  0  0  0  0
   -2.2374   -3.9822   -0.3185 N   0  3  0  0  0  0  0  0  0  0  0  0
   -3.9986   -4.2514    1.3659 C   0  0  1  0  0  0  0  0  0  0  0  0
   -4.0612   -5.6489    1.1259 O   0  0  0  0  0  0  0  0  0  0  0  0
   -4.3885   -3.9486    2.8109 C   0  0  2  0  0  0  0  0  0  0  0  0
   -5.7323   -4.3503    3.0439 O   0  0  0  0  0  0  0  0  0  0  0  0
   -5.9371   -1.6542    4.7034 N   0  3  0  0  0  0  0  0  0  0  0  0
   -4.2459   -2.4506    3.0735 C   0  0  2  0  0  0  0  0  0  0  0  0
   -2.9012   -2.0212    2.7784 O   0  0  0  0  0  0  0  0  0  0  0  0
   -2.1180    2.2168   -1.1787 C   0  0  2  0  0  0  0  0  0  0  0  0
   -1.7703    3.6522   -1.2888 N   0  3  0  0  0  0  0  0  0  0  0  0
   -3.5175    2.0630   -0.5940 C   0  0  0  0  0  0  0  0  0  0  0  0
   -3.8877    0.5915   -0.4729 C   0  0  2  0  0  0  0  0  0  0  0  0
   -5.2294    0.5138    0.0876 N   0  3  0  0  0  0  0  0  0  0  0  0
   -2.8804   -0.1232    0.4248 C   0  0  1  0  0  0  0  0  0  0  0  0
   -3.2215   -1.5205    0.5115 O   0  0  0  0  0  0  0  0  0  0  0  0
   -1.4570    0.0211   -0.1314 C   0  0  2  0  0  0  0  0  0  0  0  0
   -0.5224   -0.5722    0.7900 O   0  0  0  0  0  0  0  0  0  0  0  0
   -1.0800    1.4874   -0.3275 C   0  0  1  0  0  0  0  0  0  0  0  0
    0.1916    1.5700   -0.9575 O   0  0  0  0  0  0  0  0  0  0  0  0
  1  2  1  0  0  0  0
  3  2  1  1  0  0  0
  3  5  1  0  0  0  0
  3  4  1  0  0  0  0
  4  9  1  0  0  0  0
  5  7  1  0  0  0  0
  5  6  1  6  0  0  0
  7  9  1  0  0  0  0
  7  8  1  6  0  0  0
  9 40  1  1  0  0  0
 10  6  1  6  0  0  0
 10 11  1  0  0  0  0
 10 18  1  0  0  0  0
 11 13  1  0  0  0  0
 11 12  1  1  0  0  0
 13 15  1  0  0  0  0
 13 14  1  1  0  0  0
 15 17  1  0  0  0  0
 15 16  1  6  0  0  0
 17 19  1  1  0  0  0
 17 18  1  0  0  0  0
 19 20  1  0  0  0  0
 21 29  1  0  0  0  0
 22 23  1  0  0  0  0
 22 31  1  0  0  0  0
 22 38  1  6  0  0  0
 23 25  1  0  0  0  0
 23 24  1  6  0  0  0
 25 27  1  0  0  0  0
 25 26  1  1  0  0  0
 27 30  1  0  0  0  0
 27 28  1  6  0  0  0
 30 21  1  1  0  0  0
 30 31  1  0  0  0  0
 32 34  1  0  0  0  0
 32 41  1  0  0  0  0
 32 33  1  1  0  0  0
 34 35  1  0  0  0  0
 35 37  1  0  0  0  0
 35 36  1  1  0  0  0
 37 39  1  0  0  0  0
 37 38  1  6  0  0  0
 39 41  1  0  0  0  0
 39 40  1  1  0  0  0
 41 42  1  6  0  0  0
M  CHG  6  12   1  20   1  24   1  29   1  33   1  36   1
M  END
>  <CHROM.1>
-167.67458093,143.35393367,178.64746068,-74.55692018,-173.81800084,-118.36606639
-72.47436033,-150.69117276,69.67542023,-64.78137490,152.66357526,-95.09234400
-117.78160611,-160.60317582,138.56026917,177.73693398,179.47277306,44.50706259
116.57778100,-172.20372992,149.45794496,72.05815010,0.14667911,-0.98197017
1.87966430,-0.06481548,0.31798725,2.58650194

>  <Name>
1NEM.B

>  <RI>
0

>  <Rbt.Current_Directory>
/home/itssahil/PROJECTS/Mol_Feturizer/New_Systems/rnas/1nem

>  <Rbt.Executable>
rbdock ($Id: //depot/dev/client3/rdock/2013.1/src/exe/rbdock.cxx#4 $)

>  <Rbt.Library>
libRbt.so (2013.1, Build901 2013/11/27)

>  <Rbt.Parameter_File>
/export/apps/rDock/src/rDock_2013.1_src/data/scripts/dock_solv.prm

>  <Rbt.Receptor>
prm/pocket_docking_3.prm

>  <SCORE>
-46.32

>  <SCORE.INTER>
-59.3467

>  <SCORE.INTER.CONST>
1

>  <SCORE.INTER.POLAR>
-8.58964

>  <SCORE.INTER.ROT>
9

>  <SCORE.INTER.SOLV>
40.8848

>  <SCORE.INTER.VDW>
-34.1606

>  <SCORE.INTER.norm>
-1.41302

>  <SCORE.INTRA>
13.0247

>  <SCORE.INTRA.DIHEDRAL>
17.0875

>  <SCORE.INTRA.DIHEDRAL.0>
22.4324

>  <SCORE.INTRA.POLAR>
0.0473739

>  <SCORE.INTRA.POLAR.0>
-1.83749

>  <SCORE.INTRA.REPUL>
0

>  <SCORE.INTRA.REPUL.0>
0

>  <SCORE.INTRA.SOLV>
-0.23135

>  <SCORE.INTRA.SOLV.lig_0>
-160.638

>  <SCORE.INTRA.VDW>
4.43552

>  <SCORE.INTRA.VDW.0>
-7.61953

>  <SCORE.INTRA.norm>
0.310111

>  <SCORE.RESTR>
0.00205388

>  <SCORE.RESTR.CAVITY>
0.00205388

>  <SCORE.RESTR.norm>
4.89019e-05

>  <SCORE.SYSTEM>
0

>  <SCORE.SYSTEM.CONST>
0

>  <SCORE.SYSTEM.DIHEDRAL>
0

>  <SCORE.SYSTEM.SOLV>
0

>  <SCORE.SYSTEM.norm>
0

>  <SCORE.heavy>
42

>  <SCORE.norm>
-1.10286

>  <RMSD>
1.872

$$$$
1NEM.B
 OpenBabel11021811403D
libRbt.so/2013.1/901 2013/11/27
 42 45  0  0  0  0  0  0  0  0999 V2000
    1.0200   -3.9898    2.6590 O   0  0  0  0  0  0  0  0  0  0  0  0
    2.1176   -3.8102    1.7617 C   0  0  0  0  0  0  0  0  0  0  0  0
    2.1078   -2.4481    1.0694 C   0  0  1  0  0  0  0  0  0  0  0  0
    0.9703   -2.3226    0.2211 O   0  0  0  0  0  0  0  0  0  0  0  0
    1.9721   -1.2601    2.0085 C   0  0  1  0  0  0  0  0  0  0  0  0
    3.2153   -1.1213    2.7002 O   0  0  0  0  0  0  0  0  0  0  0  0
    1.6426   -0.1872    0.9876 C   0  0  1  0  0  0  0  0  0  0  0  0
    2.7651    0.1335    0.1592 O   0  0  0  0  0  0  0  0  0  0  0  0
    0.5873   -0.9479    0.1760 C   0  0  2  0  0  0  0  0  0  0  0  0
    3.1989   -0.3200    3.8469 C   0  0  2  0  0  0  0  0  0  0  0  0
    2.9362    1.1370    3.4424 C   0  0  2  0  0  0  0  0  0  0  0  0
    3.9112    1.5619    2.4036 N   0  3  0  0  0  0  0  0  0  0  0  0
    2.9753    2.0582    4.6660 C   0  0  1  0  0  0  0  0  0  0  0  0
    1.8342    1.8203    5.4796 O   0  0  0  0  0  0  0  0  0  0  0  0
    4.2482    1.8325    5.4876 C   0  0  2  0  0  0  0  0  0  0  0  0
    5.3880    2.2828    4.7662 O   0  0  0  0  0  0  0  0  0  0  0  0
    4.3918    0.3488    5.8145 C   0  0  1  0  0  0  0  0  0  0  0  0
    4.4040   -0.4180    4.5947 O   0  0  0  0  0  0  0  0  0  0  0  0
    5.6601    0.0249    6.5843 C   0  0  0  0  0  0  0  0  0  0  0  0
    5.6764    0.6673    7.9173 N   0  3  0  0  0  0  0  0  0  0  0  0
   -5.6697   -2.8241    4.6045 C   0  0  0  0  0  0  0  0  0  0  0  0
   -2.7749   -2.3214    2.3474 C   0  0  2  0  0  0  0  0  0  0  0  0
   -2.2640   -3.7527    2.2013 C   0  0  2  0  0  0  0  0  0  0  0  0
   -1.4084   -3.8717    0.9966 N   0  3  0  0  0  0  0  0  0  0  0  0
   -3.4354   -4.7189    2.0854 C   0  0  1  0  0  0  0  0  0  0  0  0
   -2.9497   -6.0513    2.0283 O   0  0  0  0  0  0  0  0  0  0  0  0
   -4.3599   -4.5477    3.2886 C   0  0  2  0  0  0  0  0  0  0  0  0
   -5.4921   -5.3971    3.1535 O   0  0  0  0  0  0  0  0  0  0  0  0
   -4.9293   -2.0438    5.6224 N   0  3  0  0  0  0  0  0  0  0  0  0
   -4.8156   -3.0925    3.3778 C   0  0  2  0  0  0  0  0  0  0  0  0
   -3.6711   -2.2181    3.4507 O   0  0  0  0  0  0  0  0  0  0  0  0
   -2.7024    1.4801   -1.3282 C   0  0  2  0  0  0  0  0  0  0  0  0
   -2.4331    2.8760   -1.7434 N   0  3  0  0  0  0  0  0  0  0  0  0
   -3.9786    1.4209   -0.4964 C   0  0  0  0  0  0  0  0  0  0  0  0
   -4.2669   -0.0088   -0.0603 C   0  0  2  0  0  0  0  0  0  0  0  0
   -5.4930    0.0032    0.7249 N   0  3  0  0  0  0  0  0  0  0  0  0
   -3.0980   -0.5442    0.7633 C   0  0  1  0  0  0  0  0  0  0  0  0
   -3.3662   -1.9067    1.1481 O   0  0  0  0  0  0  0  0  0  0  0  0
   -1.7932   -0.4891   -0.0433 C   0  0  2  0  0  0  0  0  0  0  0  0
   -0.6966   -0.9014    0.7946 O   0  0  0  0  0  0  0  0  0  0  0  0
   -1.5103    0.9222   -0.5523 C   0  0  1  0  0  0  0  0  0  0  0  0
   -0.3650    0.9022   -1.3940 O   0  0  0  0  0  0  0  0  0  0  0  0
  1  2  1  0  0  0  0
  3  2  1  1  0  0  0
  3  5  1  0  0  0  0
  3  4  1  0  0  0  0
  4  9  1  0  0  0  0
  5  7  1  0  0  0  0
  5  6  1  6  0  0  0
  7  9  1  0  0  0  0
  7  8  1  6  0  0  0
  9 40  1  1  0  0  0
 10  6  1  6  0  0  0
 10 11  1  0  0  0  0
 10 18  1  0  0  0  0
 11 13  1  0  0  0  0
 11 12  1  6  0  0  0
 13 15  1  0  0  0  0
 13 14  1  1  0  0  0
 15 17  1  0  0  0  0
 15 16  1  6  0  0  0
 17 19  1  6  0  0  0
 17 18  1  0  0  0  0
 19 20  1  0  0  0  0
 21 29  1  0  0  0  0
 22 23  1  0  0  0  0
 22 31  1  0  0  0  0
 22 38  1  6  0  0  0
 23 25  1  0  0  0  0
 23 24  1  6  0  0  0
 25 27  1  0  0  0  0
 25 26  1  1  0  0  0
 27 30  1  0  0  0  0
 27 28  1  6  0  0  0
 30 21  1  1  0  0  0
 30 31  1  0  0  0  0
 32 34  1  0  0  0  0
 32 41  1  0  0  0  0
 32 33  1  1  0  0  0
 34 35  1  0  0  0  0
 35 37  1  0  0  0  0
 35 36  1  1  0  0  0
 37 39  1  0  0  0  0
 37 38  1  6  0  0  0
 39 41  1  0  0  0  0
 39 40  1  1  0  0  0
 41 42  1  6  0  0  0
M  CHG  6  12   1  20   1  24   1  29   1  33   1  36   1
M  END
>  <CHROM.1>
177.48433528,-64.77809690,-164.04649860,-67.06454519,68.14219115,-116.28050265
175.51875688,-168.12749513,80.68388288,63.88059142,55.92943420,107.07577290
-134.96485313,-140.26250881,47.60770752,65.38501627,-53.68235716,40.33972614
-136.70868809,-151.21346149,177.97078248,134.93546439,-0.23080464,-1.00037534
2.34516505,0.01442832,0.47496966,2.28776876

>  <Name>
1NEM.B

>  <RI>
0

>  <Rbt.Current_Directory>
/home/itssahil/PROJECTS/Mol_Feturizer/New_Systems/rnas/1nem

>  <Rbt.Executable>
rbdock ($Id: //depot/dev/client3/rdock/2013.1/src/exe/rbdock.cxx#4 $)

>  <Rbt.Library>
libRbt.so (2013.1, Build901 2013/11/27)

>  <Rbt.Parameter_File>
/export/apps/rDock/src/rDock_2013.1_src/data/scripts/dock_solv.prm

>  <Rbt.Receptor>
prm/pocket_docking_2.prm

>  <SCORE>
-47.4982

>  <SCORE.INTER>
-57.7694

>  <SCORE.INTER.CONST>
1

>  <SCORE.INTER.POLAR>
-7.10806

>  <SCORE.INTER.ROT>
9

>  <SCORE.INTER.SOLV>
32.6051

>  <SCORE.INTER.VDW>
-35.2878

>  <SCORE.INTER.norm>
-1.37546

>  <SCORE.INTRA>
8.30051

>  <SCORE.INTRA.DIHEDRAL>
17.0713

>  <SCORE.INTRA.DIHEDRAL.0>
22.4324

>  <SCORE.INTRA.POLAR>
-1.68411

>  <SCORE.INTRA.POLAR.0>
-1.83749

>  <SCORE.INTRA.REPUL>
0.0106288

>  <SCORE.INTRA.REPUL.0>
0

>  <SCORE.INTRA.SOLV>
2.63356

>  <SCORE.INTRA.SOLV.lig_0>
-160.638

>  <SCORE.INTRA.VDW>
4.12093

>  <SCORE.INTRA.VDW.0>
-7.61953

>  <SCORE.INTRA.norm>
0.197631

>  <SCORE.RESTR>
1.97072

>  <SCORE.RESTR.CAVITY>
1.97072

>  <SCORE.RESTR.norm>
0.046922

>  <SCORE.SYSTEM>
0

>  <SCORE.SYSTEM.CONST>
0

>  <SCORE.SYSTEM.DIHEDRAL>
0

>  <SCORE.SYSTEM.SOLV>
0

>  <SCORE.SYSTEM.norm>
0

>  <SCORE.heavy>
42

>  <SCORE.norm>
-1.13091

>  <RMSD>
1.874

$$$$
1NEM.B
 OpenBabel11021811403D
libRbt.so/2013.1/901 2013/11/27
 42 45  0  0  0  0  0  0  0  0999 V2000
    3.2100   -3.8979    3.0779 O   0  0  0  0  0  0  0  0  0  0  0  0
    2.1145   -3.7320    2.1754 C   0  0  0  0  0  0  0  0  0  0  0  0
    2.1937   -2.4358    1.3702 C   0  0  1  0  0  0  0  0  0  0  0  0
    1.0632   -2.3054    0.5133 O   0  0  0  0  0  0  0  0  0  0  0  0
    2.1433   -1.1662    2.2052 C   0  0  1  0  0  0  0  0  0  0  0  0
    3.3964   -1.0542    2.8838 O   0  0  0  0  0  0  0  0  0  0  0  0
    1.8823   -0.1636    1.0968 C   0  0  1  0  0  0  0  0  0  0  0  0
    3.0199    0.0090    0.2453 O   0  0  0  0  0  0  0  0  0  0  0  0
    0.7740   -0.9166    0.3516 C   0  0  2  0  0  0  0  0  0  0  0  0
    3.4055   -0.2657    4.0395 C   0  0  2  0  0  0  0  0  0  0  0  0
    3.0052    1.1705    3.6754 C   0  0  2  0  0  0  0  0  0  0  0  0
    3.8657    1.6763    2.5736 N   0  3  0  0  0  0  0  0  0  0  0  0
    3.0663    2.0821    4.9054 C   0  0  1  0  0  0  0  0  0  0  0  0
    2.0100    1.7520    5.7974 O   0  0  0  0  0  0  0  0  0  0  0  0
    4.4102    1.9465    5.6278 C   0  0  2  0  0  0  0  0  0  0  0  0
    5.4562    2.4875    4.8308 O   0  0  0  0  0  0  0  0  0  0  0  0
    4.6882    0.4753    5.9229 C   0  0  1  0  0  0  0  0  0  0  0  0
    4.6669   -0.2784    4.6952 O   0  0  0  0  0  0  0  0  0  0  0  0
    6.0309    0.2420    6.5928 C   0  0  0  0  0  0  0  0  0  0  0  0
    5.9191   -0.6729    7.7506 N   0  3  0  0  0  0  0  0  0  0  0  0
   -4.2602   -3.0920    5.1886 C   0  0  0  0  0  0  0  0  0  0  0  0
   -2.1761   -2.3821    2.2087 C   0  0  2  0  0  0  0  0  0  0  0  0
   -1.7197   -3.7882    1.8273 C   0  0  2  0  0  0  0  0  0  0  0  0
   -1.2619   -3.8145    0.4176 N   0  3  0  0  0  0  0  0  0  0  0  0
   -2.8638   -4.7775    2.0045 C   0  0  1  0  0  0  0  0  0  0  0  0
   -2.4058   -6.0907    1.7217 O   0  0  0  0  0  0  0  0  0  0  0  0
   -3.3882   -4.7009    3.4367 C   0  0  2  0  0  0  0  0  0  0  0  0
   -4.5017   -5.5715    3.5913 O   0  0  0  0  0  0  0  0  0  0  0  0
   -5.5445   -2.3594    5.2710 N   0  3  0  0  0  0  0  0  0  0  0  0
   -3.8091   -3.2661    3.7488 C   0  0  2  0  0  0  0  0  0  0  0  0
   -2.7027   -2.3667    3.5329 O   0  0  0  0  0  0  0  0  0  0  0  0
   -2.5981    1.4242   -1.3080 C   0  0  2  0  0  0  0  0  0  0  0  0
   -2.4154    2.8210   -1.7653 N   0  3  0  0  0  0  0  0  0  0  0  0
   -3.8945    1.3008   -0.5154 C   0  0  0  0  0  0  0  0  0  0  0  0
   -4.0945   -0.1303   -0.0367 C   0  0  2  0  0  0  0  0  0  0  0  0
   -5.3445   -0.1807    0.7084 N   0  3  0  0  0  0  0  0  0  0  0  0
   -2.9191   -0.5507    0.8426 C   0  0  1  0  0  0  0  0  0  0  0  0
   -3.1021   -1.9151    1.2683 O   0  0  0  0  0  0  0  0  0  0  0  0
   -1.5948   -0.4284    0.0762 C   0  0  2  0  0  0  0  0  0  0  0  0
   -0.5008   -0.7309    0.9629 O   0  0  0  0  0  0  0  0  0  0  0  0
   -1.3965    0.9814   -0.4749 C   0  0  1  0  0  0  0  0  0  0  0  0
   -0.2246    1.0161   -1.2786 O   0  0  0  0  0  0  0  0  0  0  0  0
  1  2  1  0  0  0  0
  3  2  1  1  0  0  0
  3  5  1  0  0  0  0
  3  4  1  0  0  0  0
  4  9  1  0  0  0  0
  5  7  1  0  0  0  0
  5  6  1  6  0  0  0
  7  9  1  0  0  0  0
  7  8  1  6  0  0  0
  9 40  1  1  0  0  0
 10  6  1  6  0  0  0
 10 11  1  0  0  0  0
 10 18  1  0  0  0  0
 11 13  1  0  0  0  0
 11 12  1  6  0  0  0
 13 15  1  0  0  0  0
 13 14  1  1  0  0  0
 15 17  1  0  0  0  0
 15 16  1  6  0  0  0
 17 19  1  6  0  0  0
 17 18  1  0  0  0  0
 19 20  1  0  0  0  0
 21 29  1  0  0  0  0
 22 23  1  0  0  0  0
 22 31  1  0  0  0  0
 22 38  1  6  0  0  0
 23 25  1  0  0  0  0
 23 24  1  6  0  0  0
 25 27  1  0  0  0  0
 25 26  1  1  0  0  0
 27 30  1  0  0  0  0
 27 28  1  6  0  0  0
 30 21  1  1  0  0  0
 30 31  1  0  0  0  0
 32 34  1  0  0  0  0
 32 41  1  0  0  0  0
 32 33  1  1  0  0  0
 34 35  1  0  0  0  0
 35 37  1  0  0  0  0
 35 36  1  1  0  0  0
 37 39  1  0  0  0  0
 37 38  1  6  0  0  0
 39 41  1  0  0  0  0
 39 40  1  1  0  0  0
 41 42  1  6  0  0  0
M  CHG  6  12   1  20   1  24   1  29   1  33   1  36   1
M  END
>  <CHROM.1>
90.36237379,-178.55062457,-157.74791192,-60.75803990,69.89461362,-111.19409241
170.56428170,63.70085708,178.54064510,133.45074222,-165.47699189,-131.94902855
-90.05556045,-136.38378170,77.98336173,-66.34798573,-51.29248683,158.99087522
101.19604317,-172.84185445,168.25210472,75.95835866,0.10029020,-1.04693864
2.43288927,0.02528844,0.48551984,2.38345547

>  <Name>
1NEM.B

>  <RI>
0

>  <Rbt.Current_Directory>
/home/itssahil/PROJECTS/Mol_Feturizer/New_Systems/rnas/1nem

>  <Rbt.Executable>
rbdock ($Id: //depot/dev/client3/rdock/2013.1/src/exe/rbdock.cxx#4 $)

>  <Rbt.Library>
libRbt.so (2013.1, Build901 2013/11/27)

>  <Rbt.Parameter_File>
/export/apps/rDock/src/rDock_2013.1_src/data/scripts/dock_solv.prm

>  <Rbt.Receptor>
prm/pocket_docking_3.prm

>  <SCORE>
-51.8805

>  <SCORE.INTER>
-60.8979

>  <SCORE.INTER.CONST>
1

>  <SCORE.INTER.POLAR>
-7.56932

>  <SCORE.INTER.ROT>
9

>  <SCORE.INTER.SOLV>
38.3541

>  <SCORE.INTER.VDW>
-37.7522

>  <SCORE.INTER.norm>
-1.44995

>  <SCORE.INTRA>
9.00326

>  <SCORE.INTRA.DIHEDRAL>
16.3801

>  <SCORE.INTRA.DIHEDRAL.0>
22.4324

>  <SCORE.INTRA.POLAR>
-1.14977

>  <SCORE.INTRA.POLAR.0>
-1.83749

>  <SCORE.INTRA.REPUL>
0

>  <SCORE.INTRA.REPUL.0>
0

>  <SCORE.INTRA.SOLV>
-2.42597

>  <SCORE.INTRA.SOLV.lig_0>
-160.638

>  <SCORE.INTRA.VDW>
5.93543

>  <SCORE.INTRA.VDW.0>
-7.61953

>  <SCORE.INTRA.norm>
0.214363

>  <SCORE.RESTR>
0.0141276

>  <SCORE.RESTR.CAVITY>
0.0141276

>  <SCORE.RESTR.norm>
0.000336372

>  <SCORE.SYSTEM>
0

>  <SCORE.SYSTEM.CONST>
0

>  <SCORE.SYSTEM.DIHEDRAL>
0

>  <SCORE.SYSTEM.SOLV>
0

>  <SCORE.SYSTEM.norm>
0

>  <SCORE.heavy>
42

>  <SCORE.norm>
-1.23525

>  <RMSD>
1.879

$$$$
1NEM.B
 OpenBabel11021811403D
libRbt.so/2013.1/901 2013/11/27
 42 45  0  0  0  0  0  0  0  0999 V2000
    2.5588   -0.3322    4.4868 O   0  0  0  0  0  0  0  0  0  0  0  0
    3.2245   -1.4594    3.9138 C   0  0  0  0  0  0  0  0  0  0  0  0
    3.0654   -1.5405    2.3963 C   0  0  1  0  0  0  0  0  0  0  0  0
    1.7410   -1.9342    2.0492 O   0  0  0  0  0  0  0  0  0  0  0  0
    3.2346   -0.2162    1.6689 C   0  0  1  0  0  0  0  0  0  0  0  0
    4.6251    0.1132    1.7045 O   0  0  0  0  0  0  0  0  0  0  0  0
    2.6677   -0.6130    0.3187 C   0  0  1  0  0  0  0  0  0  0  0  0
    3.5244   -1.5216   -0.3811 O   0  0  0  0  0  0  0  0  0  0  0  0
    1.4044   -1.3392    0.7957 C   0  0  2  0  0  0  0  0  0  0  0  0
    4.9845    1.1915    2.5203 C   0  0  2  0  0  0  0  0  0  0  0  0
    6.4335    1.5954    2.2159 C   0  0  2  0  0  0  0  0  0  0  0  0
    7.3267    0.4119    2.3242 N   0  3  0  0  0  0  0  0  0  0  0  0
    6.8873    2.7332    3.1362 C   0  0  1  0  0  0  0  0  0  0  0  0
    6.2175    3.9343    2.7767 O   0  0  0  0  0  0  0  0  0  0  0  0
    6.6003    2.4045    4.6045 C   0  0  2  0  0  0  0  0  0  0  0  0
    7.4366    1.3423    5.0455 O   0  0  0  0  0  0  0  0  0  0  0  0
    5.1339    2.0140    4.7659 C   0  0  1  0  0  0  0  0  0  0  0  0
    4.8304    0.9006    3.9033 O   0  0  0  0  0  0  0  0  0  0  0  0
    4.7722    1.6183    6.1867 C   0  0  0  0  0  0  0  0  0  0  0  0
    4.9986    2.7248    7.1429 N   0  3  0  0  0  0  0  0  0  0  0  0
   -5.0501   -1.0483    3.4661 C   0  0  0  0  0  0  0  0  0  0  0  0
   -2.0344   -1.9834    1.5275 C   0  0  2  0  0  0  0  0  0  0  0  0
   -2.2227   -3.4932    1.4008 C   0  0  2  0  0  0  0  0  0  0  0  0
   -1.3994   -4.0213    0.2869 N   0  3  0  0  0  0  0  0  0  0  0  0
   -3.6878   -3.8196    1.1438 C   0  0  1  0  0  0  0  0  0  0  0  0
   -3.8622   -5.2276    1.1055 O   0  0  0  0  0  0  0  0  0  0  0  0
   -4.5480   -3.2136    2.2505 C   0  0  2  0  0  0  0  0  0  0  0  0
   -5.9231   -3.4546    1.9812 O   0  0  0  0  0  0  0  0  0  0  0  0
   -4.6334   -1.5885    4.7805 N   0  3  0  0  0  0  0  0  0  0  0  0
   -4.2942   -1.7093    2.3267 C   0  0  2  0  0  0  0  0  0  0  0  0
   -2.8905   -1.4532    2.5360 O   0  0  0  0  0  0  0  0  0  0  0  0
   -0.7370    2.2568   -1.3196 C   0  0  2  0  0  0  0  0  0  0  0  0
   -0.3481    3.6819   -1.4264 N   0  3  0  0  0  0  0  0  0  0  0  0
   -2.2322    2.1440   -1.0443 C   0  0  0  0  0  0  0  0  0  0  0  0
   -2.6462    0.6836   -0.9297 C   0  0  2  0  0  0  0  0  0  0  0  0
   -4.0783    0.6452   -0.6695 N   0  3  0  0  0  0  0  0  0  0  0  0
   -1.8692    0.0128    0.2007 C   0  0  1  0  0  0  0  0  0  0  0  0
   -2.2460   -1.3755    0.2842 O   0  0  0  0  0  0  0  0  0  0  0  0
   -0.3570    0.1176   -0.0411 C   0  0  2  0  0  0  0  0  0  0  0  0
    0.3461   -0.4302    1.0904 O   0  0  0  0  0  0  0  0  0  0  0  0
    0.0797    1.5686   -0.2271 C   0  0  1  0  0  0  0  0  0  0  0  0
    1.4585    1.6087   -0.5705 O   0  0  0  0  0  0  0  0  0  0  0  0
  1  2  1  0  0  0  0
  3  2  1  1  0  0  0
  3  5  1  0  0  0  0
  3  4  1  0  0  0  0
  4  9  1  0  0  0  0
  5  7  1  0  0  0  0
  5  6  1  6  0  0  0
  7  9  1  0  0  0  0
  7  8  1  1  0  0  0
  9 40  1  1  0  0  0
 10  6  1  6  0  0  0
 10 11  1  0  0  0  0
 10 18  1  0  0  0  0
 11 13  1  0  0  0  0
 11 12  1  1  0  0  0
 13 15  1  0  0  0  0
 13 14  1  6  0  0  0
 15 17  1  0  0  0  0
 15 16  1  6  0  0  0
 17 19  1  1  0  0  0
 17 18  1  0  0  0  0
 19 20  1  0  0  0  0
 21 29  1  0  0  0  0
 22 23  1  0  0  0  0
 22 31  1  0  0  0  0
 22 38  1  6  0  0  0
 23 25  1  0  0  0  0
 23 24  1  6  0  0  0
 25 27  1  0  0  0  0
 25 26  1  1  0  0  0
 27 30  1  0  0  0  0
 27 28  1  6  0  0  0
 30 21  1  1  0  0  0
 30 31  1  0  0  0  0
 32 34  1  0  0  0  0
 32 41  1  0  0  0  0
 32 33  1  1  0  0  0
 34 35  1  0  0  0  0
 35 37  1  0  0  0  0
 35 36  1  1  0  0  0
 37 39  1  0  0  0  0
 37 38  1  6  0  0  0
 39 41  1  0  0  0  0
 39 40  1  1  0  0  0
 41 42  1  6  0  0  0
M  CHG  6  12   1  20   1  24   1  29   1  33   1  36   1
M  END
>  <CHROM.1>
-67.61637947,-72.71008486,-109.76596658,-168.01731518,39.75661855,-168.42181236
161.69192686,-176.98672141,175.05744221,60.69757590,160.17117383,61.58299792
169.18670772,-169.32826436,-169.53514684,177.58705640,-56.30734697,69.48223548
-113.13962538,-156.70199737,132.68872986,70.16754897,0.92635437,-0.19558529
1.92439082,-0.00468997,0.43283416,2.18509768

>  <Name>
1NEM.B

>  <RI>
0

>  <Rbt.Current_Directory>
/home/itssahil/PROJECTS/Mol_Feturizer/New_Systems/rnas/1nem

>  <Rbt.Executable>
rbdock ($Id: //depot/dev/client3/rdock/2013.1/src/exe/rbdock.cxx#4 $)

>  <Rbt.Library>
libRbt.so (2013.1, Build901 2013/11/27)

>  <Rbt.Parameter_File>
/export/apps/rDock/src/rDock_2013.1_src/data/scripts/dock_solv.prm

>  <Rbt.Receptor>
prm/pocket_docking_3.prm

>  <SCORE>
-31.006

>  <SCORE.INTER>
-35.3537

>  <SCORE.INTER.CONST>
1

>  <SCORE.INTER.POLAR>
-5.19281

>  <SCORE.INTER.ROT>
9

>  <SCORE.INTER.SOLV>
33.8177

>  <SCORE.INTER.VDW>
-27.1324

>  <SCORE.INTER.norm>
-0.841756

>  <SCORE.INTRA>
4.34778

>  <SCORE.INTRA.DIHEDRAL>
4.39842

>  <SCORE.INTRA.DIHEDRAL.0>
22.4324

>  <SCORE.INTRA.POLAR>
0.218571

>  <SCORE.INTRA.POLAR.0>
-1.83749

>  <SCORE.INTRA.REPUL>
0

>  <SCORE.INTRA.REPUL.0>
0

>  <SCORE.INTRA.SOLV>
-4.47754

>  <SCORE.INTRA.SOLV.lig_0>
-160.638

>  <SCORE.INTRA.VDW>
3.64419

>  <SCORE.INTRA.VDW.0>
-7.61953

>  <SCORE.INTRA.norm>
0.103518

>  <SCORE.RESTR>
0

>  <SCORE.RESTR.CAVITY>
0

>  <SCORE.RESTR.norm>
0

>  <SCORE.SYSTEM>
0

>  <SCORE.SYSTEM.CONST>
0

>  <SCORE.SYSTEM.DIHEDRAL>
0

>  <SCORE.SYSTEM.SOLV>
0

>  <SCORE.SYSTEM.norm>
0

>  <SCORE.heavy>
42

>  <SCORE.norm>
-0.738237

>  <RMSD>
1.888

$$$$
1NEM.B
 OpenBabel11021811403D
libRbt.so/2013.1/901 2013/11/27
 42 45  0  0  0  0  0  0  0  0999 V2000
    3.4500   -3.0236    3.3910 O   0  0  0  0  0  0  0  0  0  0  0  0
    2.3999   -3.1664    2.4324 C   0  0  0  0  0  0  0  0  0  0  0  0
    2.3244   -1.9993    1.4491 C   0  0  1  0  0  0  0  0  0  0  0  0
    1.1939   -2.1346    0.5928 O   0  0  0  0  0  0  0  0  0  0  0  0
    2.1094   -0.6393    2.0940 C   0  0  1  0  0  0  0  0  0  0  0  0
    3.3329   -0.2765    2.7380 O   0  0  0  0  0  0  0  0  0  0  0  0
    1.7355    0.1538    0.8559 C   0  0  1  0  0  0  0  0  0  0  0  0
    2.8502    0.3425   -0.0221 O   0  0  0  0  0  0  0  0  0  0  0  0
    0.7359   -0.8301    0.2365 C   0  0  2  0  0  0  0  0  0  0  0  0
    3.2248    0.1934    4.0513 C   0  0  2  0  0  0  0  0  0  0  0  0
    2.8652    1.6852    4.0270 C   0  0  2  0  0  0  0  0  0  0  0  0
    3.8341    2.4300    3.1803 N   0  3  0  0  0  0  0  0  0  0  0  0
    2.8014    2.2540    5.4482 C   0  0  1  0  0  0  0  0  0  0  0  0
    1.6592    1.7376    6.1185 O   0  0  0  0  0  0  0  0  0  0  0  0
    4.0644    1.9040    6.2410 C   0  0  2  0  0  0  0  0  0  0  0  0
    5.1868    2.6008    5.7148 O   0  0  0  0  0  0  0  0  0  0  0  0
    4.3094    0.3991    6.1780 C   0  0  1  0  0  0  0  0  0  0  0  0
    4.4127   -0.0187    4.8030 O   0  0  0  0  0  0  0  0  0  0  0  0
    5.5765   -0.0321    6.8953 C   0  0  0  0  0  0  0  0  0  0  0  0
    5.3480   -0.2420    8.3422 N   0  3  0  0  0  0  0  0  0  0  0  0
   -4.6799   -2.9985    4.8768 C   0  0  0  0  0  0  0  0  0  0  0  0
   -2.3316   -2.3729    2.0801 C   0  0  2  0  0  0  0  0  0  0  0  0
   -1.8673   -3.7924    1.7629 C   0  0  2  0  0  0  0  0  0  0  0  0
   -1.2886   -3.8503    0.3994 N   0  3  0  0  0  0  0  0  0  0  0  0
   -3.0390   -4.7607    1.8551 C   0  0  1  0  0  0  0  0  0  0  0  0
   -2.5801   -6.0856    1.6348 O   0  0  0  0  0  0  0  0  0  0  0  0
   -3.6853   -4.6511    3.2343 C   0  0  2  0  0  0  0  0  0  0  0  0
   -4.8224   -5.5017    3.3047 O   0  0  0  0  0  0  0  0  0  0  0  0
   -4.6870   -1.5668    5.2550 N   0  3  0  0  0  0  0  0  0  0  0  0
   -4.1077   -3.2048    3.4851 C   0  0  2  0  0  0  0  0  0  0  0  0
   -2.9717   -2.3263    3.3526 O   0  0  0  0  0  0  0  0  0  0  0  0
   -2.6197    1.5147   -1.4007 C   0  0  2  0  0  0  0  0  0  0  0  0
   -2.4291    2.9257   -1.8081 N   0  3  0  0  0  0  0  0  0  0  0  0
   -3.9275    1.3666   -0.6314 C   0  0  0  0  0  0  0  0  0  0  0  0
   -4.1357   -0.0795   -0.2038 C   0  0  2  0  0  0  0  0  0  0  0  0
   -5.3964   -0.1530    0.5211 N   0  3  0  0  0  0  0  0  0  0  0  0
   -2.9735   -0.5308    0.6776 C   0  0  1  0  0  0  0  0  0  0  0  0
   -3.1639   -1.9085    1.0546 O   0  0  0  0  0  0  0  0  0  0  0  0
   -1.6382   -0.3848   -0.0651 C   0  0  2  0  0  0  0  0  0  0  0  0
   -0.5574   -0.7184    0.8267 O   0  0  0  0  0  0  0  0  0  0  0  0
   -1.4306    1.0424   -0.5656 C   0  0  1  0  0  0  0  0  0  0  0  0
   -0.2472    1.1024   -1.3508 O   0  0  0  0  0  0  0  0  0  0  0  0
  1  2  1  0  0  0  0
  3  2  1  1  0  0  0
  3  5  1  0  0  0  0
  3  4  1  0  0  0  0
  4  9  1  0  0  0  0
  5  7  1  0  0  0  0
  5  6  1  6  0  0  0
  7  9  1  0  0  0  0
  7  8  1  6  0  0  0
  9 40  1  1  0  0  0
 10  6  1  6  0  0  0
 10 11  1  0  0  0  0
 10 18  1  0  0  0  0
 11 13  1  0  0  0  0
 11 12  1  6  0  0  0
 13 15  1  0  0  0  0
 13 14  1  1  0  0  0
 15 17  1  0  0  0  0
 15 16  1  6  0  0  0
 17 19  1  1  0  0  0
 17 18  1  0  0  0  0
 19 20  1  0  0  0  0
 21 29  1  0  0  0  0
 22 23  1  0  0  0  0
 22 31  1  0  0  0  0
 22 38  1  6  0  0  0
 23 25  1  0  0  0  0
 23 24  1  6  0  0  0
 25 27  1  0  0  0  0
 25 26  1  1  0  0  0
 27 30  1  0  0  0  0
 27 28  1  6  0  0  0
 30 21  1  1  0  0  0
 30 31  1  0  0  0  0
 32 34  1  0  0  0  0
 32 41  1  0  0  0  0
 32 33  1  1  0  0  0
 34 35  1  0  0  0  0
 35 37  1  0  0  0  0
 35 36  1  1  0  0  0
 37 39  1  0  0  0  0
 37 38  1  6  0  0  0
 39 41  1  0  0  0  0
 39 40  1  1  0  0  0
 41 42  1  6  0  0  0
M  CHG  6  12   1  20   1  24   1  29   1  33   1  36   1
M  END
>  <CHROM.1>
167.80597863,-174.96791371,-132.46000681,-82.76177921,-97.65764682,-124.62776166
-68.42145985,-92.14317369,177.79266127,85.11942308,-75.78939831,162.20106428
14.82967851,-139.81745870,-165.76197255,75.78675172,59.78229547,40.84036645
-144.13906212,-167.23042893,170.79923938,-66.01049276,-0.00736681,-0.84803951
2.47322241,0.10137746,0.55279259,2.30512184

>  <Name>
1NEM.B

>  <RI>
0

>  <Rbt.Current_Directory>
/home/itssahil/PROJECTS/Mol_Feturizer/New_Systems/rnas/1nem

>  <Rbt.Executable>
rbdock ($Id: //depot/dev/client3/rdock/2013.1/src/exe/rbdock.cxx#4 $)

>  <Rbt.Library>
libRbt.so (2013.1, Build901 2013/11/27)

>  <Rbt.Parameter_File>
/export/apps/rDock/src/rDock_2013.1_src/data/scripts/dock_solv.prm

>  <Rbt.Receptor>
prm/pocket_docking_3.prm

>  <SCORE>
-51.1458

>  <SCORE.INTER>
-62.8674

>  <SCORE.INTER.CONST>
1

>  <SCORE.INTER.POLAR>
-9.30189

>  <SCORE.INTER.ROT>
9

>  <SCORE.INTER.SOLV>
44.9534

>  <SCORE.INTER.VDW>
-35.4898

>  <SCORE.INTER.norm>
-1.49684

>  <SCORE.INTRA>
11.7063

>  <SCORE.INTRA.DIHEDRAL>
21.2851

>  <SCORE.INTRA.DIHEDRAL.0>
22.4324

>  <SCORE.INTRA.POLAR>
-0.100635

>  <SCORE.INTRA.POLAR.0>
-1.83749

>  <SCORE.INTRA.REPUL>
0.0480764

>  <SCORE.INTRA.REPUL.0>
0

>  <SCORE.INTRA.SOLV>
-3.89496

>  <SCORE.INTRA.SOLV.lig_0>
-160.638

>  <SCORE.INTRA.VDW>
3.11301

>  <SCORE.INTRA.VDW.0>
-7.61953

>  <SCORE.INTRA.norm>
0.278721

>  <SCORE.RESTR>
0.0153016

>  <SCORE.RESTR.CAVITY>
0.0153016

>  <SCORE.RESTR.norm>
0.000364323

>  <SCORE.SYSTEM>
0

>  <SCORE.SYSTEM.CONST>
0

>  <SCORE.SYSTEM.DIHEDRAL>
0

>  <SCORE.SYSTEM.SOLV>
0

>  <SCORE.SYSTEM.norm>
0

>  <SCORE.heavy>
42

>  <SCORE.norm>
-1.21776

>  <RMSD>
1.889

$$$$
1NEM.B
 OpenBabel11021811403D
libRbt.so/2013.1/901 2013/11/27
 42 45  0  0  0  0  0  0  0  0999 V2000
    2.5244   -2.0189    1.4569 O   0  0  0  0  0  0  0  0  0  0  0  0
    3.0867   -1.9726    0.1439 C   0  0  0  0  0  0  0  0  0  0  0  0
    2.4532   -0.8998   -0.7407 C   0  0  1  0  0  0  0  0  0  0  0  0
    1.1032   -1.2342   -1.0493 O   0  0  0  0  0  0  0  0  0  0  0  0
    2.3306    0.4685   -0.0894 C   0  0  1  0  0  0  0  0  0  0  0  0
    3.6459    1.0237   -0.0166 O   0  0  0  0  0  0  0  0  0  0  0  0
    1.3767    1.1160   -1.0756 C   0  0  1  0  0  0  0  0  0  0  0  0
    1.9977    1.3720   -2.3397 O   0  0  0  0  0  0  0  0  0  0  0  0
    0.3609   -0.0249   -1.2075 C   0  0  2  0  0  0  0  0  0  0  0  0
    4.1626    1.2233    1.2680 C   0  0  2  0  0  0  0  0  0  0  0  0
    5.6952    1.2611    1.1967 C   0  0  2  0  0  0  0  0  0  0  0  0
    6.2041    0.0469    0.5061 N   0  3  0  0  0  0  0  0  0  0  0  0
    6.3026    1.4133    2.5951 C   0  0  1  0  0  0  0  0  0  0  0  0
    6.0479    2.7226    3.0866 O   0  0  0  0  0  0  0  0  0  0  0  0
    5.7237    0.3787    3.5650 C   0  0  2  0  0  0  0  0  0  0  0  0
    6.1627   -0.9275    3.2138 O   0  0  0  0  0  0  0  0  0  0  0  0
    4.1992    0.4418    3.5329 C   0  0  1  0  0  0  0  0  0  0  0  0
    3.7328    0.2271    2.1867 O   0  0  0  0  0  0  0  0  0  0  0  0
    3.5379   -0.5911    4.4283 C   0  0  0  0  0  0  0  0  0  0  0  0
    3.7357   -1.9679    3.9230 N   0  3  0  0  0  0  0  0  0  0  0  0
   -5.3968   -3.4740    3.7051 C   0  0  0  0  0  0  0  0  0  0  0  0
   -2.3626   -1.8628    2.3177 C   0  0  2  0  0  0  0  0  0  0  0  0
   -1.3787   -3.0302    2.3284 C   0  0  2  0  0  0  0  0  0  0  0  0
   -0.2523   -2.7604    1.4033 N   0  3  0  0  0  0  0  0  0  0  0  0
   -2.0821   -4.3132    1.9059 C   0  0  1  0  0  0  0  0  0  0  0  0
   -1.1776   -5.4033    1.9946 O   0  0  0  0  0  0  0  0  0  0  0  0
   -3.2882   -4.5563    2.8103 C   0  0  2  0  0  0  0  0  0  0  0  0
   -3.9905   -5.7149    2.3791 O   0  0  0  0  0  0  0  0  0  0  0  0
   -6.6135   -3.9305    2.9949 N   0  3  0  0  0  0  0  0  0  0  0  0
   -4.2154   -3.3434    2.7597 C   0  0  2  0  0  0  0  0  0  0  0  0
   -3.4943   -2.1520    3.1343 O   0  0  0  0  0  0  0  0  0  0  0  0
   -3.5978    1.9776   -1.1770 C   0  0  2  0  0  0  0  0  0  0  0  0
   -3.7448    3.4138   -1.5073 N   0  3  0  0  0  0  0  0  0  0  0  0
   -4.4616    1.6296    0.0300 C   0  0  0  0  0  0  0  0  0  0  0  0
   -4.3187    0.1556    0.3827 C   0  0  2  0  0  0  0  0  0  0  0  0
   -5.1657   -0.1109    1.5367 N   0  3  0  0  0  0  0  0  0  0  0  0
   -2.8582   -0.1626    0.6941 C   0  0  1  0  0  0  0  0  0  0  0  0
   -2.7270   -1.5647    0.9992 O   0  0  0  0  0  0  0  0  0  0  0  0
   -1.9584    0.1863   -0.4996 C   0  0  2  0  0  0  0  0  0  0  0  0
   -0.5809   -0.0266   -0.1368 O   0  0  0  0  0  0  0  0  0  0  0  0
   -2.1291    1.6439   -0.9204 C   0  0  1  0  0  0  0  0  0  0  0  0
   -1.3750    1.8884   -2.1003 O   0  0  0  0  0  0  0  0  0  0  0  0
  1  2  1  0  0  0  0
  3  2  1  1  0  0  0
  3  5  1  0  0  0  0
  3  4  1  0  0  0  0
  4  9  1  0  0  0  0
  5  7  1  0  0  0  0
  5  6  1  6  0  0  0
  7  9  1  0  0  0  0
  7  8  1  6  0  0  0
  9 40  1  1  0  0  0
 10  6  1  6  0  0  0
 10 11  1  0  0  0  0
 10 18  1  0  0  0  0
 11 13  1  0  0  0  0
 11 12  1  1  0  0  0
 13 15  1  0  0  0  0
 13 14  1  1  0  0  0
 15 17  1  0  0  0  0
 15 16  1  6  0  0  0
 17 19  1  1  0  0  0
 17 18  1  0  0  0  0
 19 20  1  0  0  0  0
 21 29  1  0  0  0  0
 22 23  1  0  0  0  0
 22 31  1  0  0  0  0
 22 38  1  6  0  0  0
 23 25  1  0  0  0  0
 23 24  1  6  0  0  0
 25 27  1  0  0  0  0
 25 26  1  1  0  0  0
 27 30  1  0  0  0  0
 27 28  1  6  0  0  0
 30 21  1  1  0  0  0
 30 31  1  0  0  0  0
 32 34  1  0  0  0  0
 32 41  1  0  0  0  0
 32 33  1  1  0  0  0
 34 35  1  0  0  0  0
 35 37  1  0  0  0  0
 35 36  1  1  0  0  0
 37 39  1  0  0  0  0
 37 38  1  6  0  0  0
 39 41  1  0  0  0  0
 39 40  1  1  0  0  0
 41 42  1  6  0  0  0
M  CHG  6  12   1  20   1  24   1  29   1  33   1  36   1
M  END
>  <CHROM.1>
-56.43949350,-68.18865418,-114.90329177,157.13369488,-72.93499563,-128.20544473
64.49843079,-63.30543423,50.71554990,-68.52903730,-81.31062524,-98.64353266
-42.44434857,-140.86128035,116.01506606,-66.38521486,179.80605619,71.16929890
130.62583375,-113.69558018,167.08687293,57.78195233,0.18460102,-0.72573625
1.18242772,-0.21063635,0.18765345,2.48140729

>  <Name>
1NEM.B

>  <RI>
0

>  <Rbt.Current_Directory>
/home/itssahil/PROJECTS/Mol_Feturizer/New_Systems/rnas/1nem

>  <Rbt.Executable>
rbdock ($Id: //depot/dev/client3/rdock/2013.1/src/exe/rbdock.cxx#4 $)

>  <Rbt.Library>
libRbt.so (2013.1, Build901 2013/11/27)

>  <Rbt.Parameter_File>
/export/apps/rDock/src/rDock_2013.1_src/data/scripts/dock_solv.prm

>  <Rbt.Receptor>
prm/pocket_docking_3.prm

>  <SCORE>
-36.1819

>  <SCORE.INTER>
-43.9233

>  <SCORE.INTER.CONST>
1

>  <SCORE.INTER.POLAR>
-5.75731

>  <SCORE.INTER.ROT>
9

>  <SCORE.INTER.SOLV>
39.7713

>  <SCORE.INTER.VDW>
-32.9483

>  <SCORE.INTER.norm>
-1.04579

>  <SCORE.INTRA>
7.74139

>  <SCORE.INTRA.DIHEDRAL>
21.6236

>  <SCORE.INTRA.DIHEDRAL.0>
22.4324

>  <SCORE.INTRA.POLAR>
-3.4842

>  <SCORE.INTRA.POLAR.0>
-1.83749

>  <SCORE.INTRA.REPUL>
0

>  <SCORE.INTRA.REPUL.0>
0

>  <SCORE.INTRA.SOLV>
10.4516

>  <SCORE.INTRA.SOLV.lig_0>
-160.638

>  <SCORE.INTRA.VDW>
3.55006

>  <SCORE.INTRA.VDW.0>
-7.61953

>  <SCORE.INTRA.norm>
0.184319

>  <SCORE.RESTR>
0

>  <SCORE.RESTR.CAVITY>
0

>  <SCORE.RESTR.norm>
0

>  <SCORE.SYSTEM>
0

>  <SCORE.SYSTEM.CONST>
0

>  <SCORE.SYSTEM.DIHEDRAL>
0

>  <SCORE.SYSTEM.SOLV>
0

>  <SCORE.SYSTEM.norm>
0

>  <SCORE.heavy>
42

>  <SCORE.norm>
-0.861475

>  <RMSD>
1.925

$$$$
1NEM.B
 OpenBabel11021811403D
libRbt.so/2013.1/901 2013/11/27
 42 45  0  0  0  0  0  0  0  0999 V2000
    3.0727   -3.3713    3.4879 O   0  0  0  0  0  0  0  0  0  0  0  0
    2.1585   -3.5638    2.4066 C   0  0  0  0  0  0  0  0  0  0  0  0
    2.1221   -2.3837    1.4366 C   0  0  1  0  0  0  0  0  0  0  0  0
    0.9620   -2.4451    0.6121 O   0  0  0  0  0  0  0  0  0  0  0  0
    2.0037   -1.0208    2.0999 C   0  0  1  0  0  0  0  0  0  0  0  0
    3.2637   -0.7351    2.7115 O   0  0  0  0  0  0  0  0  0  0  0  0
    1.6408   -0.1943    0.8804 C   0  0  1  0  0  0  0  0  0  0  0  0
    2.7392   -0.0599   -0.0277 O   0  0  0  0  0  0  0  0  0  0  0  0
    0.5694   -1.1129    0.2812 C   0  0  2  0  0  0  0  0  0  0  0  0
    3.4338    0.5652    3.1990 C   0  0  2  0  0  0  0  0  0  0  0  0
    4.5556    0.5702    4.2464 C   0  0  2  0  0  0  0  0  0  0  0  0
    4.2832   -0.4522    5.2908 N   0  3  0  0  0  0  0  0  0  0  0  0
    4.7292    1.9664    4.8528 C   0  0  1  0  0  0  0  0  0  0  0  0
    5.2941    2.8408    3.8847 O   0  0  0  0  0  0  0  0  0  0  0  0
    3.3891    2.5305    5.3347 C   0  0  2  0  0  0  0  0  0  0  0  0
    2.9204    1.7972    6.4594 O   0  0  0  0  0  0  0  0  0  0  0  0
    2.3663    2.4602    4.2043 C   0  0  1  0  0  0  0  0  0  0  0  0
    2.2372    1.0988    3.7506 O   0  0  0  0  0  0  0  0  0  0  0  0
    0.9883    2.9511    4.6119 C   0  0  0  0  0  0  0  0  0  0  0  0
    0.4858    4.0046    3.7023 N   0  3  0  0  0  0  0  0  0  0  0  0
   -7.5329   -2.5329    1.8252 C   0  0  0  0  0  0  0  0  0  0  0  0
   -3.9118   -2.1407    2.5045 C   0  0  2  0  0  0  0  0  0  0  0  0
   -3.5618   -3.5260    3.0425 C   0  0  2  0  0  0  0  0  0  0  0  0
   -2.1008   -3.7587    2.9493 N   0  3  0  0  0  0  0  0  0  0  0  0
   -4.2949   -4.5983    2.2476 C   0  0  1  0  0  0  0  0  0  0  0  0
   -4.0226   -5.8745    2.8059 O   0  0  0  0  0  0  0  0  0  0  0  0
   -5.7962   -4.3207    2.2787 C   0  0  2  0  0  0  0  0  0  0  0  0
   -6.4818   -5.2778    1.4815 O   0  0  0  0  0  0  0  0  0  0  0  0
   -8.3959   -3.5415    1.1688 N   0  3  0  0  0  0  0  0  0  0  0  0
   -6.0655   -2.9160    1.7425 C   0  0  2  0  0  0  0  0  0  0  0  0
   -5.3232   -1.9432    2.5055 O   0  0  0  0  0  0  0  0  0  0  0  0
   -2.7036    1.3956   -1.2702 C   0  0  2  0  0  0  0  0  0  0  0  0
   -2.4483    2.7911   -1.6952 N   0  3  0  0  0  0  0  0  0  0  0  0
   -3.9924    1.3255   -0.4589 C   0  0  0  0  0  0  0  0  0  0  0  0
   -4.2666   -0.1040   -0.0131 C   0  0  2  0  0  0  0  0  0  0  0  0
   -5.5057   -0.1026    0.7518 N   0  3  0  0  0  0  0  0  0  0  0  0
   -3.1037   -0.6135    0.8351 C   0  0  1  0  0  0  0  0  0  0  0  0
   -3.3579   -1.9759    1.2293 O   0  0  0  0  0  0  0  0  0  0  0  0
   -1.7867   -0.5468    0.0494 C   0  0  2  0  0  0  0  0  0  0  0  0
   -0.6981   -0.9342    0.9094 O   0  0  0  0  0  0  0  0  0  0  0  0
   -1.5165    0.8634   -0.4692 C   0  0  1  0  0  0  0  0  0  0  0  0
   -0.3572    0.8523   -1.2917 O   0  0  0  0  0  0  0  0  0  0  0  0
  1  2  1  0  0  0  0
  3  2  1  1  0  0  0
  3  5  1  0  0  0  0
  3  4  1  0  0  0  0
  4  9  1  0  0  0  0
  5  7  1  0  0  0  0
  5  6  1  6  0  0  0
  7  9  1  0  0  0  0
  7  8  1  6  0  0  0
  9 40  1  1  0  0  0
 10  6  1  1  0  0  0
 10 11  1  0  0  0  0
 10 18  1  0  0  0  0
 11 13  1  0  0  0  0
 11 12  1  1  0  0  0
 13 15  1  0  0  0  0
 13 14  1  6  0  0  0
 15 17  1  0  0  0  0
 15 16  1  1  0  0  0
 17 19  1  1  0  0  0
 17 18  1  0  0  0  0
 19 20  1  0  0  0  0
 21 29  1  0  0  0  0
 22 23  1  0  0  0  0
 22 31  1  0  0  0  0
 22 38  1  6  0  0  0
 23 25  1  0  0  0  0
 23 24  1  6  0  0  0
 25 27  1  0  0  0  0
 25 26  1  1  0  0  0
 27 30  1  0  0  0  0
 27 28  1  6  0  0  0
 30 21  1  1  0  0  0
 30 31  1  0  0  0  0
 32 34  1  0  0  0  0
 32 41  1  0  0  0  0
 32 33  1  1  0  0  0
 34 35  1  0  0  0  0
 35 37  1  0  0  0  0
 35 36  1  1  0  0  0
 37 39  1  0  0  0  0
 37 38  1  6  0  0  0
 39 41  1  0  0  0  0
 39 40  1  1  0  0  0
 41 42  1  6  0  0  0
M  CHG  6  12   1  20   1  24   1  29   1  33   1  36   1
M  END
>  <CHROM.1>
-53.84498977,-163.73776700,170.34167613,159.11472597,-52.01689112,-123.85027932
47.72576695,58.41459473,179.96870875,126.14784043,-162.49821341,-53.69723317
44.27824640,-154.77813195,177.41956067,-45.54238733,57.02659353,-82.94297402
-8.79634969,-96.78506551,171.19646448,76.21712155,-0.80752698,-0.77180648
2.07171385,-0.26340962,0.40735087,2.71444792

>  <Name>
1NEM.B

>  <RI>
0

>  <Rbt.Current_Directory>
/home/itssahil/PROJECTS/Mol_Feturizer/New_Systems/rnas/1nem

>  <Rbt.Executable>
rbdock ($Id: //depot/dev/client3/rdock/2013.1/src/exe/rbdock.cxx#4 $)

>  <Rbt.Library>
libRbt.so (2013.1, Build901 2013/11/27)

>  <Rbt.Parameter_File>
/export/apps/rDock/src/rDock_2013.1_src/data/scripts/dock_solv.prm

>  <Rbt.Receptor>
prm/blind_docking_20.prm

>  <SCORE>
-39.8074

>  <SCORE.INTER>
-56.5659

>  <SCORE.INTER.CONST>
1

>  <SCORE.INTER.POLAR>
-7.75138

>  <SCORE.INTER.ROT>
9

>  <SCORE.INTER.SOLV>
46.8613

>  <SCORE.INTER.VDW>
-37.0931

>  <SCORE.INTER.norm>
-1.34681

>  <SCORE.INTRA>
11.1833

>  <SCORE.INTRA.DIHEDRAL>
10.8689

>  <SCORE.INTRA.DIHEDRAL.0>
22.4324

>  <SCORE.INTRA.POLAR>
-0.595799

>  <SCORE.INTRA.POLAR.0>
-1.83749

>  <SCORE.INTRA.REPUL>
0

>  <SCORE.INTRA.REPUL.0>
0

>  <SCORE.INTRA.SOLV>
-0.249704

>  <SCORE.INTRA.SOLV.lig_0>
-160.638

>  <SCORE.INTRA.VDW>
7.89939

>  <SCORE.INTRA.VDW.0>
-7.61953

>  <SCORE.INTRA.norm>
0.266268

>  <SCORE.RESTR>
5.57524

>  <SCORE.RESTR.CAVITY>
5.57524

>  <SCORE.RESTR.norm>
0.132744

>  <SCORE.SYSTEM>
0

>  <SCORE.SYSTEM.CONST>
0

>  <SCORE.SYSTEM.DIHEDRAL>
0

>  <SCORE.SYSTEM.SOLV>
0

>  <SCORE.SYSTEM.norm>
0

>  <SCORE.heavy>
42

>  <SCORE.norm>
-0.947796

>  <RMSD>
1.955

$$$$
1NEM.B
 OpenBabel11021811403D
libRbt.so/2013.1/901 2013/11/27
 42 45  0  0  0  0  0  0  0  0999 V2000
    1.5419   -2.8965    2.4918 O   0  0  0  0  0  0  0  0  0  0  0  0
    2.3198   -2.9629    1.2949 C   0  0  0  0  0  0  0  0  0  0  0  0
    2.1883   -1.7130    0.4258 C   0  0  1  0  0  0  0  0  0  0  0  0
    0.9233   -1.6857   -0.2289 O   0  0  0  0  0  0  0  0  0  0  0  0
    2.2090   -0.4011    1.1939 C   0  0  1  0  0  0  0  0  0  0  0  0
    3.5507   -0.1913    1.6402 O   0  0  0  0  0  0  0  0  0  0  0  0
    1.7079    0.5225    0.0995 C   0  0  1  0  0  0  0  0  0  0  0  0
    2.6731    0.6988   -0.9428 O   0  0  0  0  0  0  0  0  0  0  0  0
    0.5334   -0.3237   -0.4059 C   0  0  2  0  0  0  0  0  0  0  0  0
    3.7370   -0.1137    3.0246 C   0  0  2  0  0  0  0  0  0  0  0  0
    3.2134    1.2372    3.5307 C   0  0  2  0  0  0  0  0  0  0  0  0
    3.8335    2.3464    2.7591 N   0  3  0  0  0  0  0  0  0  0  0  0
    3.4589    1.3881    5.0355 C   0  0  1  0  0  0  0  0  0  0  0  0
    2.6001    0.5092    5.7501 O   0  0  0  0  0  0  0  0  0  0  0  0
    4.9173    1.0831    5.3911 C   0  0  2  0  0  0  0  0  0  0  0  0
    5.7741    2.0908    4.8690 O   0  0  0  0  0  0  0  0  0  0  0  0
    5.3097   -0.2786    4.8249 C   0  0  1  0  0  0  0  0  0  0  0  0
    5.0966   -0.2914    3.4000 O   0  0  0  0  0  0  0  0  0  0  0  0
    6.7616   -0.6397    5.0849 C   0  0  0  0  0  0  0  0  0  0  0  0
    7.6396   -0.2407    3.9625 N   0  3  0  0  0  0  0  0  0  0  0  0
   -3.9277   -2.6065    4.8692 C   0  0  0  0  0  0  0  0  0  0  0  0
   -1.8408   -2.3405    1.8194 C   0  0  2  0  0  0  0  0  0  0  0  0
   -1.3659   -3.7829    1.6613 C   0  0  2  0  0  0  0  0  0  0  0  0
   -0.9025   -4.0213    0.2736 N   0  3  0  0  0  0  0  0  0  0  0  0
   -2.4987   -4.7470    1.9874 C   0  0  1  0  0  0  0  0  0  0  0  0
   -2.0237   -6.0824    1.9124 O   0  0  0  0  0  0  0  0  0  0  0  0
   -3.0296   -4.4562    3.3894 C   0  0  2  0  0  0  0  0  0  0  0  0
   -4.1329   -5.3063    3.6749 O   0  0  0  0  0  0  0  0  0  0  0  0
   -4.6975   -1.3415    4.8549 N   0  3  0  0  0  0  0  0  0  0  0  0
   -3.4690   -2.9958    3.4747 C   0  0  2  0  0  0  0  0  0  0  0  0
   -2.3727   -2.1268    3.1242 O   0  0  0  0  0  0  0  0  0  0  0  0
   -3.5203    1.6022   -1.2424 C   0  0  2  0  0  0  0  0  0  0  0  0
   -3.7673    3.0410   -1.4918 N   0  3  0  0  0  0  0  0  0  0  0  0
   -4.6078    1.0362   -0.3363 C   0  0  0  0  0  0  0  0  0  0  0  0
   -4.3654   -0.4427   -0.0693 C   0  0  2  0  0  0  0  0  0  0  0  0
   -5.4342   -0.9206    0.7964 N   0  3  0  0  0  0  0  0  0  0  0  0
   -3.0026   -0.6323    0.5927 C   0  0  1  0  0  0  0  0  0  0  0  0
   -2.7688   -2.0365    0.8162 O   0  0  0  0  0  0  0  0  0  0  0  0
   -1.8841   -0.0630   -0.2911 C   0  0  2  0  0  0  0  0  0  0  0  0
   -0.6277   -0.1631    0.4061 O   0  0  0  0  0  0  0  0  0  0  0  0
   -2.1337    1.4039   -0.6322 C   0  0  1  0  0  0  0  0  0  0  0  0
   -1.1445    1.8527   -1.5490 O   0  0  0  0  0  0  0  0  0  0  0  0
  1  2  1  0  0  0  0
  3  2  1  1  0  0  0
  3  5  1  0  0  0  0
  3  4  1  0  0  0  0
  4  9  1  0  0  0  0
  5  7  1  0  0  0  0
  5  6  1  6  0  0  0
  7  9  1  0  0  0  0
  7  8  1  6  0  0  0
  9 40  1  1  0  0  0
 10  6  1  6  0  0  0
 10 11  1  0  0  0  0
 10 18  1  0  0  0  0
 11 13  1  0  0  0  0
 11 12  1  6  0  0  0
 13 15  1  0  0  0  0
 13 14  1  1  0  0  0
 15 17  1  0  0  0  0
 15 16  1  6  0  0  0
 17 19  1  6  0  0  0
 17 18  1  0  0  0  0
 19 20  1  0  0  0  0
 21 29  1  0  0  0  0
 22 23  1  0  0  0  0
 22 31  1  0  0  0  0
 22 38  1  6  0  0  0
 23 25  1  0  0  0  0
 23 24  1  6  0  0  0
 25 27  1  0  0  0  0
 25 26  1  1  0  0  0
 27 30  1  0  0  0  0
 27 28  1  6  0  0  0
 30 21  1  1  0  0  0
 30 31  1  0  0  0  0
 32 34  1  0  0  0  0
 32 41  1  0  0  0  0
 32 33  1  1  0  0  0
 34 35  1  0  0  0  0
 35 37  1  0  0  0  0
 35 36  1  1  0  0  0
 37 39  1  0  0  0  0
 37 38  1  6  0  0  0
 39 41  1  0  0  0  0
 39 40  1  1  0  0  0
 41 42  1  6  0  0  0
M  CHG  6  12   1  20   1  24   1  29   1  33   1  36   1
M  END
>  <CHROM.1>
179.09529147,-73.96560927,-119.23013247,-73.97254597,56.74297605,-106.76560436
-179.45405079,59.63378836,66.68424570,-93.09730197,-81.45371823,-163.79587861
91.36268536,-162.37986296,70.94046453,133.25870950,177.30611801,-151.15653442
179.74046429,-157.42158543,150.01212313,-59.50170893,0.16667764,-0.88186381
1.94091017,-0.00762123,0.37101002,2.44577347

>  <Name>
1NEM.B

>  <RI>
0

>  <Rbt.Current_Directory>
/home/itssahil/PROJECTS/Mol_Feturizer/New_Systems/rnas/1nem

>  <Rbt.Executable>
rbdock ($Id: //depot/dev/client3/rdock/2013.1/src/exe/rbdock.cxx#4 $)

>  <Rbt.Library>
libRbt.so (2013.1, Build901 2013/11/27)

>  <Rbt.Parameter_File>
/export/apps/rDock/src/rDock_2013.1_src/data/scripts/dock_solv.prm

>  <Rbt.Receptor>
prm/pocket_docking_2.prm

>  <SCORE>
-47.2703

>  <SCORE.INTER>
-58.5542

>  <SCORE.INTER.CONST>
1

>  <SCORE.INTER.POLAR>
-7.7822

>  <SCORE.INTER.ROT>
9

>  <SCORE.INTER.SOLV>
43.1128

>  <SCORE.INTER.VDW>
-37.0664

>  <SCORE.INTER.norm>
-1.39415

>  <SCORE.INTRA>
10.2932

>  <SCORE.INTRA.DIHEDRAL>
15.6592

>  <SCORE.INTRA.DIHEDRAL.0>
22.4324

>  <SCORE.INTRA.POLAR>
0.342473

>  <SCORE.INTRA.POLAR.0>
-1.83749

>  <SCORE.INTRA.REPUL>
0.0127668

>  <SCORE.INTRA.REPUL.0>
0

>  <SCORE.INTRA.SOLV>
-0.635949

>  <SCORE.INTRA.SOLV.lig_0>
-160.638

>  <SCORE.INTRA.VDW>
1.5533

>  <SCORE.INTRA.VDW.0>
-7.61953

>  <SCORE.INTRA.norm>
0.245075

>  <SCORE.RESTR>
0.990714

>  <SCORE.RESTR.CAVITY>
0.990714

>  <SCORE.RESTR.norm>
0.0235884

>  <SCORE.SYSTEM>
0

>  <SCORE.SYSTEM.CONST>
0

>  <SCORE.SYSTEM.DIHEDRAL>
0

>  <SCORE.SYSTEM.SOLV>
0

>  <SCORE.SYSTEM.norm>
0

>  <SCORE.heavy>
42

>  <SCORE.norm>
-1.12548

>  <RMSD>
1.955

$$$$
1NEM.B
 OpenBabel11021811403D
libRbt.so/2013.1/901 2013/11/27
 42 45  0  0  0  0  0  0  0  0999 V2000
    1.7462   -3.9721    1.7650 O   0  0  0  0  0  0  0  0  0  0  0  0
    2.4160   -2.7406    2.0420 C   0  0  0  0  0  0  0  0  0  0  0  0
    2.2141   -1.6909    0.9501 C   0  0  1  0  0  0  0  0  0  0  0  0
    0.9662   -1.8840    0.2906 O   0  0  0  0  0  0  0  0  0  0  0  0
    2.1210   -0.2599    1.4552 C   0  0  1  0  0  0  0  0  0  0  0  0
    3.4329    0.1318    1.8657 O   0  0  0  0  0  0  0  0  0  0  0  0
    1.5795    0.3996    0.2007 C   0  0  1  0  0  0  0  0  0  0  0  0
    2.5535    0.4491   -0.8472 O   0  0  0  0  0  0  0  0  0  0  0  0
    0.4821   -0.6135   -0.1455 C   0  0  2  0  0  0  0  0  0  0  0  0
    3.6549    0.1991    3.2454 C   0  0  2  0  0  0  0  0  0  0  0  0
    3.0709    1.5103    3.7886 C   0  0  2  0  0  0  0  0  0  0  0  0
    3.6045    2.6644    3.0183 N   0  3  0  0  0  0  0  0  0  0  0  0
    3.3513    1.6523    5.2881 C   0  0  1  0  0  0  0  0  0  0  0  0
    2.5648    0.7153    6.0120 O   0  0  0  0  0  0  0  0  0  0  0  0
    4.8344    1.4256    5.5971 C   0  0  2  0  0  0  0  0  0  0  0  0
    5.6173    2.4882    5.0679 O   0  0  0  0  0  0  0  0  0  0  0  0
    5.2864    0.0970    4.9975 C   0  0  1  0  0  0  0  0  0  0  0  0
    5.0328    0.0935    3.5791 O   0  0  0  0  0  0  0  0  0  0  0  0
    6.7634   -0.1846    5.2102 C   0  0  0  0  0  0  0  0  0  0  0  0
    7.1593   -1.5008    4.6616 N   0  3  0  0  0  0  0  0  0  0  0  0
   -4.4698   -2.9827    4.8813 C   0  0  0  0  0  0  0  0  0  0  0  0
   -2.1255   -2.4353    2.0650 C   0  0  2  0  0  0  0  0  0  0  0  0
   -1.5599   -3.8408    1.8758 C   0  0  2  0  0  0  0  0  0  0  0  0
   -0.9568   -3.9742    0.5282 N   0  3  0  0  0  0  0  0  0  0  0  0
   -2.6637   -4.8771    2.0392 C   0  0  1  0  0  0  0  0  0  0  0  0
   -2.1115   -6.1807    1.9384 O   0  0  0  0  0  0  0  0  0  0  0  0
   -3.3380   -4.6957    3.3972 C   0  0  2  0  0  0  0  0  0  0  0  0
   -4.4150   -5.6144    3.5292 O   0  0  0  0  0  0  0  0  0  0  0  0
   -5.4140   -1.8429    4.8293 N   0  3  0  0  0  0  0  0  0  0  0  0
   -3.8626   -3.2663    3.5184 C   0  0  2  0  0  0  0  0  0  0  0  0
   -2.7876   -2.3252    3.3222 O   0  0  0  0  0  0  0  0  0  0  0  0
   -3.4163    1.4729   -1.2282 C   0  0  2  0  0  0  0  0  0  0  0  0
   -3.5659    2.9127   -1.5413 N   0  3  0  0  0  0  0  0  0  0  0  0
   -4.5728    1.0077   -0.3505 C   0  0  0  0  0  0  0  0  0  0  0  0
   -4.4309   -0.4711   -0.0185 C   0  0  2  0  0  0  0  0  0  0  0  0
   -5.5617   -0.8512    0.8163 N   0  3  0  0  0  0  0  0  0  0  0  0
   -3.1108   -0.7136    0.7095 C   0  0  1  0  0  0  0  0  0  0  0  0
   -2.9712   -2.1190    0.9950 O   0  0  0  0  0  0  0  0  0  0  0  0
   -1.9242   -0.2459   -0.1446 C   0  0  2  0  0  0  0  0  0  0  0  0
   -0.7063   -0.3914    0.6106 O   0  0  0  0  0  0  0  0  0  0  0  0
   -2.0709    1.2184   -0.5505 C   0  0  1  0  0  0  0  0  0  0  0  0
   -1.0190    1.5721   -1.4387 O   0  0  0  0  0  0  0  0  0  0  0  0
  1  2  1  0  0  0  0
  3  2  1  1  0  0  0
  3  5  1  0  0  0  0
  3  4  1  0  0  0  0
  4  9  1  0  0  0  0
  5  7  1  0  0  0  0
  5  6  1  6  0  0  0
  7  9  1  0  0  0  0
  7  8  1  6  0  0  0
  9 40  1  1  0  0  0
 10  6  1  6  0  0  0
 10 11  1  0  0  0  0
 10 18  1  0  0  0  0
 11 13  1  0  0  0  0
 11 12  1  6  0  0  0
 13 15  1  0  0  0  0
 13 14  1  1  0  0  0
 15 17  1  0  0  0  0
 15 16  1  6  0  0  0
 17 19  1  6  0  0  0
 17 18  1  0  0  0  0
 19 20  1  0  0  0  0
 21 29  1  0  0  0  0
 22 23  1  0  0  0  0
 22 31  1  0  0  0  0
 22 38  1  6  0  0  0
 23 25  1  0  0  0  0
 23 24  1  6  0  0  0
 25 27  1  0  0  0  0
 25 26  1  1  0  0  0
 27 30  1  0  0  0  0
 27 28  1  6  0  0  0
 30 21  1  1  0  0  0
 30 31  1  0  0  0  0
 32 34  1  0  0  0  0
 32 41  1  0  0  0  0
 32 33  1  1  0  0  0
 34 35  1  0  0  0  0
 35 37  1  0  0  0  0
 35 36  1  1  0  0  0
 37 39  1  0  0  0  0
 37 38  1  6  0  0  0
 39 41  1  0  0  0  0
 39 40  1  1  0  0  0
 41 42  1  6  0  0  0
M  CHG  6  12   1  20   1  24   1  29   1  33   1  36   1
M  END
>  <CHROM.1>
61.13841388,28.62610526,-105.70207946,-79.16015702,-48.93058538,-119.15833921
178.89439091,61.69020976,63.52804705,177.90090143,62.69807934,-157.84011895
-148.92271924,-154.05054386,85.32835366,-65.81496947,74.97656726,97.86291695
-49.21161707,-156.26607623,151.73776737,166.05937171,0.04848393,-0.95522247
2.09172134,-0.06802898,0.40035679,2.50502642

>  <Name>
1NEM.B

>  <RI>
0

>  <Rbt.Current_Directory>
/home/itssahil/PROJECTS/Mol_Feturizer/New_Systems/rnas/1nem

>  <Rbt.Executable>
rbdock ($Id: //depot/dev/client3/rdock/2013.1/src/exe/rbdock.cxx#4 $)

>  <Rbt.Library>
libRbt.so (2013.1, Build901 2013/11/27)

>  <Rbt.Parameter_File>
/export/apps/rDock/src/rDock_2013.1_src/data/scripts/dock_solv.prm

>  <Rbt.Receptor>
prm/pocket_docking_2.prm

>  <SCORE>
-60.155

>  <SCORE.INTER>
-69.4325

>  <SCORE.INTER.CONST>
1

>  <SCORE.INTER.POLAR>
-10.0401

>  <SCORE.INTER.ROT>
9

>  <SCORE.INTER.SOLV>
43.6611

>  <SCORE.INTER.VDW>
-36.9749

>  <SCORE.INTER.norm>
-1.65316

>  <SCORE.INTRA>
8.60096

>  <SCORE.INTRA.DIHEDRAL>
14.5851

>  <SCORE.INTRA.DIHEDRAL.0>
22.4324

>  <SCORE.INTRA.POLAR>
-0.00164565

>  <SCORE.INTRA.POLAR.0>
-1.83749

>  <SCORE.INTRA.REPUL>
0

>  <SCORE.INTRA.REPUL.0>
0

>  <SCORE.INTRA.SOLV>
-2.31813

>  <SCORE.INTRA.SOLV.lig_0>
-160.638

>  <SCORE.INTRA.VDW>
2.47306

>  <SCORE.INTRA.VDW.0>
-7.61953

>  <SCORE.INTRA.norm>
0.204785

>  <SCORE.RESTR>
0.676535

>  <SCORE.RESTR.CAVITY>
0.676535

>  <SCORE.RESTR.norm>
0.016108

>  <SCORE.SYSTEM>
0

>  <SCORE.SYSTEM.CONST>
0

>  <SCORE.SYSTEM.DIHEDRAL>
0

>  <SCORE.SYSTEM.SOLV>
0

>  <SCORE.SYSTEM.norm>
0

>  <SCORE.heavy>
42

>  <SCORE.norm>
-1.43226

>  <RMSD>
1.963

$$$$
1NEM.B
 OpenBabel11021811403D
libRbt.so/2013.1/901 2013/11/27
 42 45  0  0  0  0  0  0  0  0999 V2000
    1.1635   -3.5831    2.0886 O   0  0  0  0  0  0  0  0  0  0  0  0
    2.3435   -3.1464    1.4111 C   0  0  0  0  0  0  0  0  0  0  0  0
    2.1728   -1.7919    0.7249 C   0  0  1  0  0  0  0  0  0  0  0  0
    0.9637   -1.7575   -0.0277 O   0  0  0  0  0  0  0  0  0  0  0  0
    2.0230   -0.6140    1.6745 C   0  0  1  0  0  0  0  0  0  0  0  0
    3.3040   -0.3774    2.2630 O   0  0  0  0  0  0  0  0  0  0  0  0
    1.5300    0.4262    0.6862 C   0  0  1  0  0  0  0  0  0  0  0  0
    2.5534    0.8288   -0.2301 O   0  0  0  0  0  0  0  0  0  0  0  0
    0.4738   -0.4165   -0.0384 C   0  0  2  0  0  0  0  0  0  0  0  0
    3.3040    0.0275    3.6022 C   0  0  2  0  0  0  0  0  0  0  0  0
    2.8581    1.4936    3.6875 C   0  0  2  0  0  0  0  0  0  0  0  0
    3.6904    2.3335    2.7863 N   0  3  0  0  0  0  0  0  0  0  0  0
    2.9074    1.9952    5.1344 C   0  0  1  0  0  0  0  0  0  0  0  0
    1.8717    1.3798    5.8889 O   0  0  0  0  0  0  0  0  0  0  0  0
    4.2631    1.6910    5.7791 C   0  0  2  0  0  0  0  0  0  0  0  0
    5.2835    2.4787    5.1787 O   0  0  0  0  0  0  0  0  0  0  0  0
    4.5871    0.2084    5.6178 C   0  0  1  0  0  0  0  0  0  0  0  0
    4.5729   -0.1421    4.2204 O   0  0  0  0  0  0  0  0  0  0  0  0
    5.9438   -0.1733    6.1830 C   0  0  0  0  0  0  0  0  0  0  0  0
    5.9720   -0.0838    7.6599 N   0  3  0  0  0  0  0  0  0  0  0  0
   -5.5644   -1.8628    4.3507 C   0  0  0  0  0  0  0  0  0  0  0  0
   -2.5760   -2.5709    2.2781 C   0  0  2  0  0  0  0  0  0  0  0  0
   -2.4737   -4.0878    2.4183 C   0  0  2  0  0  0  0  0  0  0  0  0
   -1.6477   -4.6498    1.3230 N   0  3  0  0  0  0  0  0  0  0  0  0
   -3.8613   -4.7136    2.3755 C   0  0  1  0  0  0  0  0  0  0  0  0
   -3.7588   -6.1137    2.5843 O   0  0  0  0  0  0  0  0  0  0  0  0
   -4.7392   -4.0843    3.4549 C   0  0  2  0  0  0  0  0  0  0  0  0
   -6.0565   -4.6135    3.3765 O   0  0  0  0  0  0  0  0  0  0  0  0
   -4.9030   -1.9967    5.6689 N   0  3  0  0  0  0  0  0  0  0  0  0
   -4.7801   -2.5699    3.2591 C   0  0  2  0  0  0  0  0  0  0  0  0
   -3.4422   -2.0317    3.2731 O   0  0  0  0  0  0  0  0  0  0  0  0
   -3.4585    1.3800   -1.1841 C   0  0  2  0  0  0  0  0  0  0  0  0
   -3.6290    2.8222   -1.4743 N   0  3  0  0  0  0  0  0  0  0  0  0
   -4.6254    0.8763   -0.3423 C   0  0  0  0  0  0  0  0  0  0  0  0
   -4.4622   -0.6055   -0.0342 C   0  0  2  0  0  0  0  0  0  0  0  0
   -5.6042   -1.0229    0.7669 N   0  3  0  0  0  0  0  0  0  0  0  0
   -3.1546   -0.8362    0.7197 C   0  0  1  0  0  0  0  0  0  0  0  0
   -2.9941   -2.2439    0.9826 O   0  0  0  0  0  0  0  0  0  0  0  0
   -1.9581   -0.3300   -0.0977 C   0  0  2  0  0  0  0  0  0  0  0  0
   -0.7553   -0.4662    0.6828 O   0  0  0  0  0  0  0  0  0  0  0  0
   -2.1242    1.1387   -0.4801 C   0  0  1  0  0  0  0  0  0  0  0  0
   -1.0593    1.5291   -1.3369 O   0  0  0  0  0  0  0  0  0  0  0  0
  1  2  1  0  0  0  0
  3  2  1  1  0  0  0
  3  5  1  0  0  0  0
  3  4  1  0  0  0  0
  4  9  1  0  0  0  0
  5  7  1  0  0  0  0
  5  6  1  6  0  0  0
  7  9  1  0  0  0  0
  7  8  1  6  0  0  0
  9 40  1  1  0  0  0
 10  6  1  6  0  0  0
 10 11  1  0  0  0  0
 10 18  1  0  0  0  0
 11 13  1  0  0  0  0
 11 12  1  6  0  0  0
 13 15  1  0  0  0  0
 13 14  1  1  0  0  0
 15 17  1  0  0  0  0
 15 16  1  6  0  0  0
 17 19  1  6  0  0  0
 17 18  1  0  0  0  0
 19 20  1  0  0  0  0
 21 29  1  0  0  0  0
 22 23  1  0  0  0  0
 22 31  1  0  0  0  0
 22 38  1  6  0  0  0
 23 25  1  0  0  0  0
 23 24  1  6  0  0  0
 25 27  1  0  0  0  0
 25 26  1  1  0  0  0
 27 30  1  0  0  0  0
 27 28  1  6  0  0  0
 30 21  1  1  0  0  0
 30 31  1  0  0  0  0
 32 34  1  0  0  0  0
 32 41  1  0  0  0  0
 32 33  1  1  0  0  0
 34 35  1  0  0  0  0
 35 37  1  0  0  0  0
 35 36  1  1  0  0  0
 37 39  1  0  0  0  0
 37 38  1  6  0  0  0
 39 41  1  0  0  0  0
 39 40  1  1  0  0  0
 41 42  1  6  0  0  0
M  CHG  6  12   1  20   1  24   1  29   1  33   1  36   1
M  END
>  <CHROM.1>
-57.41931884,-47.51769507,-143.75580084,-74.58319546,-173.14104861,-107.79805332
173.27842678,59.16314190,176.93988176,68.85723104,-48.23696937,65.49168239
-53.86263746,178.99152537,-169.03134839,55.86988574,172.90052396,-143.92222344
58.06454504,-135.26447173,162.31965124,68.09644507,-0.36550657,-0.86675691
2.33069155,0.03413002,0.44816867,2.25102864

>  <Name>
1NEM.B

>  <RI>
0

>  <Rbt.Current_Directory>
/home/itssahil/PROJECTS/Mol_Feturizer/New_Systems/rnas/1nem

>  <Rbt.Executable>
rbdock ($Id: //depot/dev/client3/rdock/2013.1/src/exe/rbdock.cxx#4 $)

>  <Rbt.Library>
libRbt.so (2013.1, Build901 2013/11/27)

>  <Rbt.Parameter_File>
/export/apps/rDock/src/rDock_2013.1_src/data/scripts/dock_solv.prm

>  <Rbt.Receptor>
prm/pocket_docking_2.prm

>  <SCORE>
-49.4208

>  <SCORE.INTER>
-54.2673

>  <SCORE.INTER.CONST>
1

>  <SCORE.INTER.POLAR>
-6.75545

>  <SCORE.INTER.ROT>
9

>  <SCORE.INTER.SOLV>
36.9285

>  <SCORE.INTER.VDW>
-35.5695

>  <SCORE.INTER.norm>
-1.29208

>  <SCORE.INTRA>
2.6778

>  <SCORE.INTRA.DIHEDRAL>
2.78021

>  <SCORE.INTRA.DIHEDRAL.0>
22.4324

>  <SCORE.INTRA.POLAR>
-0.0126973

>  <SCORE.INTRA.POLAR.0>
-1.83749

>  <SCORE.INTRA.REPUL>
0

>  <SCORE.INTRA.REPUL.0>
0

>  <SCORE.INTRA.SOLV>
-0.214439

>  <SCORE.INTRA.SOLV.lig_0>
-160.638

>  <SCORE.INTRA.VDW>
1.43808

>  <SCORE.INTRA.VDW.0>
-7.61953

>  <SCORE.INTRA.norm>
0.0637571

>  <SCORE.RESTR>
2.16871

>  <SCORE.RESTR.CAVITY>
2.16871

>  <SCORE.RESTR.norm>
0.0516359

>  <SCORE.SYSTEM>
0

>  <SCORE.SYSTEM.CONST>
0

>  <SCORE.SYSTEM.DIHEDRAL>
0

>  <SCORE.SYSTEM.SOLV>
0

>  <SCORE.SYSTEM.norm>
0

>  <SCORE.heavy>
42

>  <SCORE.norm>
-1.17669

>  <RMSD>
1.977

$$$$
1NEM.B
 OpenBabel11021811403D
libRbt.so/2013.1/901 2013/11/27
 42 45  0  0  0  0  0  0  0  0999 V2000
    4.7480    0.1477   -1.5707 O   0  0  0  0  0  0  0  0  0  0  0  0
    3.3324    0.1606   -1.3758 C   0  0  0  0  0  0  0  0  0  0  0  0
    2.8590    1.3227   -0.5040 C   0  0  1  0  0  0  0  0  0  0  0  0
    1.5112    1.6665   -0.8116 O   0  0  0  0  0  0  0  0  0  0  0  0
    2.8076    1.0189    0.9849 C   0  0  1  0  0  0  0  0  0  0  0  0
    4.1570    0.9578    1.4526 O   0  0  0  0  0  0  0  0  0  0  0  0
    1.9866    2.2102    1.4417 C   0  0  1  0  0  0  0  0  0  0  0  0
    2.7171    3.4377    1.3485 O   0  0  0  0  0  0  0  0  0  0  0  0
    0.8888    2.1661    0.3723 C   0  0  2  0  0  0  0  0  0  0  0  0
    4.3941    1.4835    2.7273 C   0  0  2  0  0  0  0  0  0  0  0  0
    5.5133    0.6817    3.4053 C   0  0  2  0  0  0  0  0  0  0  0  0
    5.1867   -0.7686    3.3843 N   0  3  0  0  0  0  0  0  0  0  0  0
    5.7587    1.1860    4.8311 C   0  0  1  0  0  0  0  0  0  0  0  0
    6.3694    2.4688    4.7855 O   0  0  0  0  0  0  0  0  0  0  0  0
    4.4492    1.2682    5.6215 C   0  0  2  0  0  0  0  0  0  0  0  0
    3.9415   -0.0360    5.8734 O   0  0  0  0  0  0  0  0  0  0  0  0
    3.4255    2.0826    4.8355 C   0  0  1  0  0  0  0  0  0  0  0  0
    3.2262    1.4890    3.5379 O   0  0  0  0  0  0  0  0  0  0  0  0
    2.0744    2.1705    5.5231 C   0  0  0  0  0  0  0  0  0  0  0  0
    1.1398    3.0559    4.7935 N   0  3  0  0  0  0  0  0  0  0  0  0
   -3.9621   -3.1429    3.1352 C   0  0  0  0  0  0  0  0  0  0  0  0
   -0.9691   -1.6686    1.5241 C   0  0  2  0  0  0  0  0  0  0  0  0
   -0.0601   -2.8906    1.4182 C   0  0  2  0  0  0  0  0  0  0  0  0
    0.9955   -2.6586    0.4037 N   0  3  0  0  0  0  0  0  0  0  0  0
   -0.8735   -4.1175    1.0282 C   0  0  1  0  0  0  0  0  0  0  0  0
   -0.0319   -5.2603    1.0089 O   0  0  0  0  0  0  0  0  0  0  0  0
   -2.0086   -4.3177    2.0299 C   0  0  2  0  0  0  0  0  0  0  0  0
   -2.8143   -5.4203    1.6341 O   0  0  0  0  0  0  0  0  0  0  0  0
   -3.6184   -2.3778    4.3556 N   0  3  0  0  0  0  0  0  0  0  0  0
   -2.8620   -3.0524    2.0920 C   0  0  2  0  0  0  0  0  0  0  0  0
   -2.0406   -1.9164    2.4305 O   0  0  0  0  0  0  0  0  0  0  0  0
   -3.0962    2.2330   -1.3938 C   0  0  2  0  0  0  0  0  0  0  0  0
   -3.8186    3.5221   -1.4921 N   0  3  0  0  0  0  0  0  0  0  0  0
   -4.0391    1.1441   -0.8945 C   0  0  0  0  0  0  0  0  0  0  0  0
   -3.3089   -0.1872   -0.7863 C   0  0  2  0  0  0  0  0  0  0  0  0
   -4.2606   -1.1802   -0.3083 N   0  3  0  0  0  0  0  0  0  0  0  0
   -2.1309   -0.0545    0.1759 C   0  0  1  0  0  0  0  0  0  0  0  0
   -1.4285   -1.3104    0.2510 O   0  0  0  0  0  0  0  0  0  0  0  0
   -1.1655    1.0428   -0.2934 C   0  0  2  0  0  0  0  0  0  0  0  0
   -0.1245    1.2137    0.6873 O   0  0  0  0  0  0  0  0  0  0  0  0
   -1.8834    2.3777   -0.4760 C   0  0  1  0  0  0  0  0  0  0  0  0
   -0.9829    3.3291   -1.0278 O   0  0  0  0  0  0  0  0  0  0  0  0
  1  2  1  0  0  0  0
  3  2  1  6  0  0  0
  3  5  1  0  0  0  0
  3  4  1  0  0  0  0
  4  9  1  0  0  0  0
  5  7  1  0  0  0  0
  5  6  1  1  0  0  0
  7  9  1  0  0  0  0
  7  8  1  6  0  0  0
  9 40  1  1  0  0  0
 10  6  1  6  0  0  0
 10 11  1  0  0  0  0
 10 18  1  0  0  0  0
 11 13  1  0  0  0  0
 11 12  1  1  0  0  0
 13 15  1  0  0  0  0
 13 14  1  6  0  0  0
 15 17  1  0  0  0  0
 15 16  1  6  0  0  0
 17 19  1  1  0  0  0
 17 18  1  0  0  0  0
 19 20  1  0  0  0  0
 21 29  1  0  0  0  0
 22 23  1  0  0  0  0
 22 31  1  0  0  0  0
 22 38  1  6  0  0  0
 23 25  1  0  0  0  0
 23 24  1  6  0  0  0
 25 27  1  0  0  0  0
 25 26  1  1  0  0  0
 27 30  1  0  0  0  0
 27 28  1  6  0  0  0
 30 21  1  1  0  0  0
 30 31  1  0  0  0  0
 32 34  1  0  0  0  0
 32 41  1  0  0  0  0
 32 33  1  1  0  0  0
 34 35  1  0  0  0  0
 35 37  1  0  0  0  0
 35 36  1  1  0  0  0
 37 39  1  0  0  0  0
 37 38  1  6  0  0  0
 39 41  1  0  0  0  0
 39 40  1  1  0  0  0
 41 42  1  6  0  0  0
M  CHG  6  12   1  20   1  24   1  29   1  33   1  36   1
M  END
>  <CHROM.1>
-160.45205390,153.68661803,142.55894500,146.92121506,-69.35995235,-62.06475190
74.19228113,91.70164424,-87.11633253,175.31907721,-163.25855238,102.85545630
-48.48921024,-170.92185935,75.47135057,70.31814524,67.19323909,-142.29467041
-177.37118624,-140.91487733,177.57894121,-63.56767989,0.62752564,0.07071309
1.58237779,0.13382855,-0.50478682,-0.55314350

>  <Name>
1NEM.B

>  <RI>
0

>  <Rbt.Current_Directory>
/home/itssahil/PROJECTS/Mol_Feturizer/New_Systems/rnas/1nem

>  <Rbt.Executable>
rbdock ($Id: //depot/dev/client3/rdock/2013.1/src/exe/rbdock.cxx#4 $)

>  <Rbt.Library>
libRbt.so (2013.1, Build901 2013/11/27)

>  <Rbt.Parameter_File>
/export/apps/rDock/src/rDock_2013.1_src/data/scripts/dock_solv.prm

>  <Rbt.Receptor>
prm/pocket_docking_3.prm

>  <SCORE>
-35.4242

>  <SCORE.INTER>
-56.3411

>  <SCORE.INTER.CONST>
1

>  <SCORE.INTER.POLAR>
-9.34504

>  <SCORE.INTER.ROT>
9

>  <SCORE.INTER.SOLV>
49.0442

>  <SCORE.INTER.VDW>
-32.3587

>  <SCORE.INTER.norm>
-1.34145

>  <SCORE.INTRA>
20.1192

>  <SCORE.INTRA.DIHEDRAL>
13.7426

>  <SCORE.INTRA.DIHEDRAL.0>
22.4324

>  <SCORE.INTRA.POLAR>
1.73694

>  <SCORE.INTRA.POLAR.0>
-1.83749

>  <SCORE.INTRA.REPUL>
0

>  <SCORE.INTRA.REPUL.0>
0

>  <SCORE.INTRA.SOLV>
-2.88128

>  <SCORE.INTRA.SOLV.lig_0>
-160.638

>  <SCORE.INTRA.VDW>
8.78295

>  <SCORE.INTRA.VDW.0>
-7.61953

>  <SCORE.INTRA.norm>
0.479028

>  <SCORE.RESTR>
0.797674

>  <SCORE.RESTR.CAVITY>
0.797674

>  <SCORE.RESTR.norm>
0.0189922

>  <SCORE.SYSTEM>
0

>  <SCORE.SYSTEM.CONST>
0

>  <SCORE.SYSTEM.DIHEDRAL>
0

>  <SCORE.SYSTEM.SOLV>
0

>  <SCORE.SYSTEM.norm>
0

>  <SCORE.heavy>
42

>  <SCORE.norm>
-0.843434

>  <RMSD>
1.984

$$$$
1NEM.B
 OpenBabel11021811403D
libRbt.so/2013.1/901 2013/11/27
 42 45  0  0  0  0  0  0  0  0999 V2000
    0.7190   -3.6690    2.3750 O   0  0  0  0  0  0  0  0  0  0  0  0
    2.0059   -3.5037    1.7761 C   0  0  0  0  0  0  0  0  0  0  0  0
    2.1452   -2.1887    1.0106 C   0  0  1  0  0  0  0  0  0  0  0  0
    1.0787   -2.0330    0.0790 O   0  0  0  0  0  0  0  0  0  0  0  0
    2.0386   -0.9395    1.8707 C   0  0  1  0  0  0  0  0  0  0  0  0
    3.2406   -0.8492    2.6391 O   0  0  0  0  0  0  0  0  0  0  0  0
    1.8594    0.0907    0.7714 C   0  0  1  0  0  0  0  0  0  0  0  0
    3.0550    0.2792    0.0072 O   0  0  0  0  0  0  0  0  0  0  0  0
    0.8050   -0.6395   -0.0688 C   0  0  2  0  0  0  0  0  0  0  0  0
    3.1851   -0.0436    3.7815 C   0  0  2  0  0  0  0  0  0  0  0  0
    3.1033    1.4294    3.3586 C   0  0  2  0  0  0  0  0  0  0  0  0
    4.2133    1.7546    2.4246 N   0  3  0  0  0  0  0  0  0  0  0  0
    3.1064    2.3496    4.5837 C   0  0  1  0  0  0  0  0  0  0  0  0
    1.8721    2.2251    5.2777 O   0  0  0  0  0  0  0  0  0  0  0  0
    4.2635    2.0091    5.5279 C   0  0  2  0  0  0  0  0  0  0  0  0
    5.5073    2.3457    4.9264 O   0  0  0  0  0  0  0  0  0  0  0  0
    4.2325    0.5203    5.8616 C   0  0  1  0  0  0  0  0  0  0  0  0
    4.2944   -0.2509    4.6461 O   0  0  0  0  0  0  0  0  0  0  0  0
    5.3809    0.0822    6.7535 C   0  0  0  0  0  0  0  0  0  0  0  0
    5.0335    0.1788    8.1887 N   0  3  0  0  0  0  0  0  0  0  0  0
   -5.5884   -1.3669    3.6322 C   0  0  0  0  0  0  0  0  0  0  0  0
   -2.8703   -2.1133    1.2276 C   0  0  2  0  0  0  0  0  0  0  0  0
   -3.1191   -3.5944    0.9529 C   0  0  2  0  0  0  0  0  0  0  0  0
   -2.4589   -3.9999   -0.3109 N   0  3  0  0  0  0  0  0  0  0  0  0
   -4.6142   -3.8651    0.8503 C   0  0  1  0  0  0  0  0  0  0  0  0
   -4.8351   -5.2558    0.6726 O   0  0  0  0  0  0  0  0  0  0  0  0
   -5.3096   -3.3808    2.1206 C   0  0  2  0  0  0  0  0  0  0  0  0
   -6.7143   -3.5667    2.0041 O   0  0  0  0  0  0  0  0  0  0  0  0
   -4.7760   -1.7699    4.8029 N   0  3  0  0  0  0  0  0  0  0  0  0
   -5.0022   -1.9002    2.3365 C   0  0  2  0  0  0  0  0  0  0  0  0
   -3.5762   -1.6927    2.3920 O   0  0  0  0  0  0  0  0  0  0  0  0
   -2.0974    2.5252   -1.2028 C   0  0  2  0  0  0  0  0  0  0  0  0
   -1.7396    3.9619   -1.1665 N   0  3  0  0  0  0  0  0  0  0  0  0
   -3.4940    2.3213   -0.6266 C   0  0  0  0  0  0  0  0  0  0  0  0
   -3.8745    0.8476   -0.6554 C   0  0  2  0  0  0  0  0  0  0  0  0
   -5.2128    0.7216   -0.0958 N   0  3  0  0  0  0  0  0  0  0  0  0
   -2.8665    0.0370    0.1559 C   0  0  1  0  0  0  0  0  0  0  0  0
   -3.2176   -1.3594    0.1002 O   0  0  0  0  0  0  0  0  0  0  0  0
   -1.4459    0.2284   -0.3932 C   0  0  2  0  0  0  0  0  0  0  0  0
   -0.5095   -0.4634    0.4549 O   0  0  0  0  0  0  0  0  0  0  0  0
   -1.0591    1.7045   -0.4395 C   0  0  1  0  0  0  0  0  0  0  0  0
    0.2087    1.8432   -1.0672 O   0  0  0  0  0  0  0  0  0  0  0  0
  1  2  1  0  0  0  0
  3  2  1  1  0  0  0
  3  5  1  0  0  0  0
  3  4  1  0  0  0  0
  4  9  1  0  0  0  0
  5  7  1  0  0  0  0
  5  6  1  6  0  0  0
  7  9  1  0  0  0  0
  7  8  1  6  0  0  0
  9 40  1  1  0  0  0
 10  6  1  6  0  0  0
 10 11  1  0  0  0  0
 10 18  1  0  0  0  0
 11 13  1  0  0  0  0
 11 12  1  6  0  0  0
 13 15  1  0  0  0  0
 13 14  1  1  0  0  0
 15 17  1  0  0  0  0
 15 16  1  6  0  0  0
 17 19  1  1  0  0  0
 17 18  1  0  0  0  0
 19 20  1  0  0  0  0
 21 29  1  0  0  0  0
 22 23  1  0  0  0  0
 22 31  1  0  0  0  0
 22 38  1  6  0  0  0
 23 25  1  0  0  0  0
 23 24  1  6  0  0  0
 25 27  1  0  0  0  0
 25 26  1  1  0  0  0
 27 30  1  0  0  0  0
 27 28  1  6  0  0  0
 30 21  1  1  0  0  0
 30 31  1  0  0  0  0
 32 34  1  0  0  0  0
 32 41  1  0  0  0  0
 32 33  1  1  0  0  0
 34 35  1  0  0  0  0
 35 37  1  0  0  0  0
 35 36  1  1  0  0  0
 37 39  1  0  0  0  0
 37 38  1  6  0  0  0
 39 41  1  0  0  0  0
 39 40  1  1  0  0  0
 41 42  1  6  0  0  0
M  CHG  6  12   1  20   1  24   1  29   1  33   1  36   1
M  END
>  <CHROM.1>
-98.12625115,-52.33830852,-160.32975602,-70.83240107,62.00912524,-128.53653589
-171.74400483,-61.25868259,-95.81934094,90.39687433,56.91772445,77.74671985
36.84399704,-172.06607789,-109.27363261,59.66793840,68.24914417,-82.05760708
129.17277570,-149.61350811,166.44845084,-65.55770825,-0.30148415,-0.51169939
1.95920183,0.06661665,0.49026146,2.36028056

>  <Name>
1NEM.B

>  <RI>
0

>  <Rbt.Current_Directory>
/home/itssahil/PROJECTS/Mol_Feturizer/New_Systems/rnas/1nem

>  <Rbt.Executable>
rbdock ($Id: //depot/dev/client3/rdock/2013.1/src/exe/rbdock.cxx#4 $)

>  <Rbt.Library>
libRbt.so (2013.1, Build901 2013/11/27)

>  <Rbt.Parameter_File>
/export/apps/rDock/src/rDock_2013.1_src/data/scripts/dock_solv.prm

>  <Rbt.Receptor>
prm/pocket_docking_4.prm

>  <SCORE>
-45.9725

>  <SCORE.INTER>
-58.5298

>  <SCORE.INTER.CONST>
1

>  <SCORE.INTER.POLAR>
-8.04288

>  <SCORE.INTER.ROT>
9

>  <SCORE.INTER.SOLV>
38.8553

>  <SCORE.INTER.VDW>
-34.762

>  <SCORE.INTER.norm>
-1.39357

>  <SCORE.INTRA>
12.5573

>  <SCORE.INTRA.DIHEDRAL>
15.5894

>  <SCORE.INTRA.DIHEDRAL.0>
22.4324

>  <SCORE.INTRA.POLAR>
0.446191

>  <SCORE.INTRA.POLAR.0>
-1.83749

>  <SCORE.INTRA.REPUL>
0

>  <SCORE.INTRA.REPUL.0>
0

>  <SCORE.INTRA.SOLV>
-3.67116

>  <SCORE.INTRA.SOLV.lig_0>
-160.638

>  <SCORE.INTRA.VDW>
5.08111

>  <SCORE.INTRA.VDW.0>
-7.61953

>  <SCORE.INTRA.norm>
0.298983

>  <SCORE.RESTR>
0

>  <SCORE.RESTR.CAVITY>
0

>  <SCORE.RESTR.norm>
0

>  <SCORE.SYSTEM>
0

>  <SCORE.SYSTEM.CONST>
0

>  <SCORE.SYSTEM.DIHEDRAL>
0

>  <SCORE.SYSTEM.SOLV>
0

>  <SCORE.SYSTEM.norm>
0

>  <SCORE.heavy>
42

>  <SCORE.norm>
-1.09458

>  <RMSD>
1.988

$$$$
1NEM.B
 OpenBabel11021811403D
libRbt.so/2013.1/901 2013/11/27
 42 45  0  0  0  0  0  0  0  0999 V2000
    2.5650   -4.9542    2.0124 O   0  0  0  0  0  0  0  0  0  0  0  0
    2.1912   -3.6629    2.4973 C   0  0  0  0  0  0  0  0  0  0  0  0
    1.9920   -2.6391    1.3807 C   0  0  1  0  0  0  0  0  0  0  0  0
    0.7580   -2.8642    0.7053 O   0  0  0  0  0  0  0  0  0  0  0  0
    1.8698   -1.1996    1.8542 C   0  0  1  0  0  0  0  0  0  0  0  0
    3.1691   -0.7800    2.2776 O   0  0  0  0  0  0  0  0  0  0  0  0
    1.3396   -0.5741    0.5777 C   0  0  1  0  0  0  0  0  0  0  0  0
    2.3298   -0.5318   -0.4552 O   0  0  0  0  0  0  0  0  0  0  0  0
    0.2627   -1.6104    0.2351 C   0  0  2  0  0  0  0  0  0  0  0  0
    3.2794    0.5445    2.7144 C   0  0  2  0  0  0  0  0  0  0  0  0
    3.7903    0.5592    4.1616 C   0  0  2  0  0  0  0  0  0  0  0  0
    2.9323   -0.3050    5.0144 N   0  3  0  0  0  0  0  0  0  0  0  0
    3.8630    1.9919    4.6997 C   0  0  1  0  0  0  0  0  0  0  0  0
    4.9227    2.6896    4.0587 O   0  0  0  0  0  0  0  0  0  0  0  0
    2.5443    2.7365    4.4697 C   0  0  2  0  0  0  0  0  0  0  0  0
    1.5178    2.1867    5.2858 O   0  0  0  0  0  0  0  0  0  0  0  0
    2.1491    2.6381    2.9990 C   0  0  1  0  0  0  0  0  0  0  0  0
    2.0509    1.2530    2.6145 O   0  0  0  0  0  0  0  0  0  0  0  0
    0.8206    3.3055    2.6897 C   0  0  0  0  0  0  0  0  0  0  0  0
    0.9508    4.7764    2.5925 N   0  3  0  0  0  0  0  0  0  0  0  0
   -4.2126   -2.3272    5.4038 C   0  0  0  0  0  0  0  0  0  0  0  0
   -2.5941   -3.2510    2.2016 C   0  0  2  0  0  0  0  0  0  0  0  0
   -2.7110   -4.7728    2.2413 C   0  0  2  0  0  0  0  0  0  0  0  0
   -2.5546   -5.3352    0.8787 N   0  3  0  0  0  0  0  0  0  0  0  0
   -4.0666   -5.1805    2.8027 C   0  0  1  0  0  0  0  0  0  0  0  0
   -4.1329   -6.5945    2.9069 O   0  0  0  0  0  0  0  0  0  0  0  0
   -4.2638   -4.5426    4.1760 C   0  0  2  0  0  0  0  0  0  0  0  0
   -5.5555   -4.8620    4.6769 O   0  0  0  0  0  0  0  0  0  0  0  0
   -5.6027   -2.3174    5.9140 N   0  3  0  0  0  0  0  0  0  0  0  0
   -4.1171   -3.0267    4.0591 C   0  0  2  0  0  0  0  0  0  0  0  0
   -2.8335   -2.6949    3.4918 O   0  0  0  0  0  0  0  0  0  0  0  0
   -3.2606    0.9590   -0.8497 C   0  0  2  0  0  0  0  0  0  0  0  0
   -3.1649    2.4141   -1.1078 N   0  3  0  0  0  0  0  0  0  0  0  0
   -4.5004    0.6582   -0.0151 C   0  0  0  0  0  0  0  0  0  0  0  0
   -4.6106   -0.8349    0.2601 C   0  0  2  0  0  0  0  0  0  0  0  0
   -5.8101   -1.0543    1.0559 N   0  3  0  0  0  0  0  0  0  0  0  0
   -3.3676   -1.3170    1.0043 C   0  0  1  0  0  0  0  0  0  0  0  0
   -3.4669   -2.7357    1.2358 O   0  0  0  0  0  0  0  0  0  0  0  0
   -2.0983   -1.0197    0.1939 C   0  0  2  0  0  0  0  0  0  0  0  0
   -0.9410   -1.3904    0.9671 O   0  0  0  0  0  0  0  0  0  0  0  0
   -1.9932    0.4626   -0.1558 C   0  0  1  0  0  0  0  0  0  0  0  0
   -0.8745    0.6710   -1.0076 O   0  0  0  0  0  0  0  0  0  0  0  0
  1  2  1  0  0  0  0
  3  2  1  1  0  0  0
  3  5  1  0  0  0  0
  3  4  1  0  0  0  0
  4  9  1  0  0  0  0
  5  7  1  0  0  0  0
  5  6  1  6  0  0  0
  7  9  1  0  0  0  0
  7  8  1  6  0  0  0
  9 40  1  1  0  0  0
 10  6  1  1  0  0  0
 10 11  1  0  0  0  0
 10 18  1  0  0  0  0
 11 13  1  0  0  0  0
 11 12  1  1  0  0  0
 13 15  1  0  0  0  0
 13 14  1  6  0  0  0
 15 17  1  0  0  0  0
 15 16  1  1  0  0  0
 17 19  1  1  0  0  0
 17 18  1  0  0  0  0
 19 20  1  0  0  0  0
 21 29  1  0  0  0  0
 22 23  1  0  0  0  0
 22 31  1  0  0  0  0
 22 38  1  6  0  0  0
 23 25  1  0  0  0  0
 23 24  1  6  0  0  0
 25 27  1  0  0  0  0
 25 26  1  1  0  0  0
 27 30  1  0  0  0  0
 27 28  1  6  0  0  0
 30 21  1  1  0  0  0
 30 31  1  0  0  0  0
 32 34  1  0  0  0  0
 32 41  1  0  0  0  0
 32 33  1  1  0  0  0
 34 35  1  0  0  0  0
 35 37  1  0  0  0  0
 35 36  1  1  0  0  0
 37 39  1  0  0  0  0
 37 38  1  6  0  0  0
 39 41  1  0  0  0  0
 39 40  1  1  0  0  0
 41 42  1  6  0  0  0
M  CHG  6  12   1  20   1  24   1  29   1  33   1  36   1
M  END
>  <CHROM.1>
-42.86522237,75.50460449,178.03310766,121.21727859,-174.04440175,-130.87702196
-152.65643045,67.39377993,50.45203106,78.43923565,-36.19269594,-73.04327675
30.37902143,-174.38595961,149.19246120,73.42937854,61.22997147,12.90438247
-50.17973075,-163.62955792,159.51677622,84.07205248,-0.75870802,-1.06515618
2.22068221,-0.56141144,0.31691178,2.75876401

>  <Name>
1NEM.B

>  <RI>
0

>  <Rbt.Current_Directory>
/home/itssahil/PROJECTS/Mol_Feturizer/New_Systems/rnas/1nem

>  <Rbt.Executable>
rbdock ($Id: //depot/dev/client3/rdock/2013.1/src/exe/rbdock.cxx#4 $)

>  <Rbt.Library>
libRbt.so (2013.1, Build901 2013/11/27)

>  <Rbt.Parameter_File>
/export/apps/rDock/src/rDock_2013.1_src/data/scripts/dock_solv.prm

>  <Rbt.Receptor>
prm/blind_docking_20.prm

>  <SCORE>
-32.2818

>  <SCORE.INTER>
-48.113

>  <SCORE.INTER.CONST>
1

>  <SCORE.INTER.POLAR>
-7.02569

>  <SCORE.INTER.ROT>
9

>  <SCORE.INTER.SOLV>
51.3666

>  <SCORE.INTER.VDW>
-35.3786

>  <SCORE.INTER.norm>
-1.14555

>  <SCORE.INTRA>
11.7179

>  <SCORE.INTRA.DIHEDRAL>
13.3747

>  <SCORE.INTRA.DIHEDRAL.0>
22.4324

>  <SCORE.INTRA.POLAR>
1.00013

>  <SCORE.INTRA.POLAR.0>
-1.83749

>  <SCORE.INTRA.REPUL>
0

>  <SCORE.INTRA.REPUL.0>
0

>  <SCORE.INTRA.SOLV>
-6.39771

>  <SCORE.INTRA.SOLV.lig_0>
-160.638

>  <SCORE.INTRA.VDW>
4.82897

>  <SCORE.INTRA.VDW.0>
-7.61953

>  <SCORE.INTRA.norm>
0.278998

>  <SCORE.RESTR>
4.11329

>  <SCORE.RESTR.CAVITY>
4.11329

>  <SCORE.RESTR.norm>
0.0979355

>  <SCORE.SYSTEM>
0

>  <SCORE.SYSTEM.CONST>
0

>  <SCORE.SYSTEM.DIHEDRAL>
0

>  <SCORE.SYSTEM.SOLV>
0

>  <SCORE.SYSTEM.norm>
0

>  <SCORE.heavy>
42

>  <SCORE.norm>
-0.768615

>  <RMSD>
1.991

$$$$
1NEM.B
 OpenBabel11021811403D
libRbt.so/2013.1/901 2013/11/27
 42 45  0  0  0  0  0  0  0  0999 V2000
    1.5011   -4.5009    2.0027 O   0  0  0  0  0  0  0  0  0  0  0  0
    1.9037   -3.2385    2.5379 C   0  0  0  0  0  0  0  0  0  0  0  0
    2.0100   -2.1450    1.4760 C   0  0  1  0  0  0  0  0  0  0  0  0
    0.8512   -2.1334    0.6474 O   0  0  0  0  0  0  0  0  0  0  0  0
    2.0562   -0.7285    2.0264 C   0  0  1  0  0  0  0  0  0  0  0  0
    3.3412   -0.5475    2.6259 O   0  0  0  0  0  0  0  0  0  0  0  0
    1.7959    0.0341    0.7409 C   0  0  1  0  0  0  0  0  0  0  0  0
    2.9029   -0.0381   -0.1639 O   0  0  0  0  0  0  0  0  0  0  0  0
    0.6220   -0.7948    0.2066 C   0  0  2  0  0  0  0  0  0  0  0  0
    3.3473   -0.1499    3.9672 C   0  0  2  0  0  0  0  0  0  0  0  0
    2.7949    1.2779    4.0744 C   0  0  2  0  0  0  0  0  0  0  0  0
    3.5368    2.1823    3.1568 N   0  3  0  0  0  0  0  0  0  0  0  0
    2.8459    1.7751    5.5227 C   0  0  1  0  0  0  0  0  0  0  0  0
    1.8804    1.0799    6.3006 O   0  0  0  0  0  0  0  0  0  0  0  0
    4.2378    1.5708    6.1287 C   0  0  2  0  0  0  0  0  0  0  0  0
    5.1793    2.4360    5.5064 O   0  0  0  0  0  0  0  0  0  0  0  0
    4.6677    0.1177    5.9488 C   0  0  1  0  0  0  0  0  0  0  0  0
    4.6418   -0.2264    4.5499 O   0  0  0  0  0  0  0  0  0  0  0  0
    6.0643   -0.1634    6.4747 C   0  0  0  0  0  0  0  0  0  0  0  0
    7.0868    0.6640    5.7966 N   0  3  0  0  0  0  0  0  0  0  0  0
   -5.3636   -1.7525    4.1957 C   0  0  0  0  0  0  0  0  0  0  0  0
   -2.3820   -2.6468    2.1864 C   0  0  2  0  0  0  0  0  0  0  0  0
   -2.3574   -4.1639    2.3559 C   0  0  2  0  0  0  0  0  0  0  0  0
   -1.5433   -4.7868    1.2850 N   0  3  0  0  0  0  0  0  0  0  0  0
   -3.7736   -4.7210    2.3014 C   0  0  1  0  0  0  0  0  0  0  0  0
   -3.7441   -6.1203    2.5374 O   0  0  0  0  0  0  0  0  0  0  0  0
   -4.6360   -4.0287    3.3544 C   0  0  2  0  0  0  0  0  0  0  0  0
   -5.9766   -4.4935    3.2637 O   0  0  0  0  0  0  0  0  0  0  0  0
   -4.8071   -1.9969    5.5461 N   0  3  0  0  0  0  0  0  0  0  0  0
   -4.5984   -2.5182    3.1304 C   0  0  2  0  0  0  0  0  0  0  0  0
   -3.2358   -2.0466    3.1569 O   0  0  0  0  0  0  0  0  0  0  0  0
   -3.2489    1.3113   -1.2640 C   0  0  2  0  0  0  0  0  0  0  0  0
   -3.4782    2.7471   -1.5456 N   0  3  0  0  0  0  0  0  0  0  0  0
   -4.4532    0.7241   -0.5367 C   0  0  0  0  0  0  0  0  0  0  0  0
   -4.2305   -0.7520   -0.2386 C   0  0  2  0  0  0  0  0  0  0  0  0
   -5.4115   -1.2506    0.4518 N   0  3  0  0  0  0  0  0  0  0  0  0
   -2.9825   -0.9229    0.6244 C   0  0  1  0  0  0  0  0  0  0  0  0
   -2.7628   -2.3241    0.8784 O   0  0  0  0  0  0  0  0  0  0  0  0
   -1.7510   -0.3320   -0.0760 C   0  0  2  0  0  0  0  0  0  0  0  0
   -0.6151   -0.4152    0.8056 O   0  0  0  0  0  0  0  0  0  0  0  0
   -1.9693    1.1323   -0.4486 C   0  0  1  0  0  0  0  0  0  0  0  0
   -0.8586    1.6009   -1.2017 O   0  0  0  0  0  0  0  0  0  0  0  0
  1  2  1  0  0  0  0
  3  2  1  1  0  0  0
  3  5  1  0  0  0  0
  3  4  1  0  0  0  0
  4  9  1  0  0  0  0
  5  7  1  0  0  0  0
  5  6  1  6  0  0  0
  7  9  1  0  0  0  0
  7  8  1  6  0  0  0
  9 40  1  1  0  0  0
 10  6  1  6  0  0  0
 10 11  1  0  0  0  0
 10 18  1  0  0  0  0
 11 13  1  0  0  0  0
 11 12  1  6  0  0  0
 13 15  1  0  0  0  0
 13 14  1  1  0  0  0
 15 17  1  0  0  0  0
 15 16  1  6  0  0  0
 17 19  1  6  0  0  0
 17 18  1  0  0  0  0
 19 20  1  0  0  0  0
 21 29  1  0  0  0  0
 22 23  1  0  0  0  0
 22 31  1  0  0  0  0
 22 38  1  6  0  0  0
 23 25  1  0  0  0  0
 23 24  1  6  0  0  0
 25 27  1  0  0  0  0
 25 26  1  1  0  0  0
 27 30  1  0  0  0  0
 27 28  1  6  0  0  0
 30 21  1  1  0  0  0
 30 31  1  0  0  0  0
 32 34  1  0  0  0  0
 32 41  1  0  0  0  0
 32 33  1  1  0  0  0
 34 35  1  0  0  0  0
 35 37  1  0  0  0  0
 35 36  1  1  0  0  0
 37 39  1  0  0  0  0
 37 38  1  6  0  0  0
 39 41  1  0  0  0  0
 39 40  1  1  0  0  0
 41 42  1  6  0  0  0
M  CHG  6  12   1  20   1  24   1  29   1  33   1  36   1
M  END
>  <CHROM.1>
-178.87397990,47.80064238,-124.13780435,-67.63637656,-142.74434109,-107.12637739
55.36509969,70.24403951,62.52729798,-59.63516765,41.74386458,60.09544538
57.34159599,172.87760058,-168.12100868,54.62239592,68.31202664,-9.07016879
175.58469002,-138.03347327,139.00252971,-67.42645678,-0.24247683,-0.99075233
2.39755891,0.01781062,0.46653408,2.33974762

>  <Name>
1NEM.B

>  <RI>
0

>  <Rbt.Current_Directory>
/home/itssahil/PROJECTS/Mol_Feturizer/New_Systems/rnas/1nem

>  <Rbt.Executable>
rbdock ($Id: //depot/dev/client3/rdock/2013.1/src/exe/rbdock.cxx#4 $)

>  <Rbt.Library>
libRbt.so (2013.1, Build901 2013/11/27)

>  <Rbt.Parameter_File>
/export/apps/rDock/src/rDock_2013.1_src/data/scripts/dock_solv.prm

>  <Rbt.Receptor>
prm/pocket_docking_2.prm

>  <SCORE>
-57.6647

>  <SCORE.INTER>
-66.5202

>  <SCORE.INTER.CONST>
1

>  <SCORE.INTER.POLAR>
-9.10098

>  <SCORE.INTER.ROT>
9

>  <SCORE.INTER.SOLV>
36.2868

>  <SCORE.INTER.VDW>
-35.7058

>  <SCORE.INTER.norm>
-1.58381

>  <SCORE.INTRA>
7.26109

>  <SCORE.INTRA.DIHEDRAL>
13.8399

>  <SCORE.INTRA.DIHEDRAL.0>
22.4324

>  <SCORE.INTRA.POLAR>
-0.583698

>  <SCORE.INTRA.POLAR.0>
-1.83749

>  <SCORE.INTRA.REPUL>
0

>  <SCORE.INTRA.REPUL.0>
0

>  <SCORE.INTRA.SOLV>
2.08549

>  <SCORE.INTRA.SOLV.lig_0>
-160.638

>  <SCORE.INTRA.VDW>
1.28295

>  <SCORE.INTRA.VDW.0>
-7.61953

>  <SCORE.INTRA.norm>
0.172883

>  <SCORE.RESTR>
1.5944

>  <SCORE.RESTR.CAVITY>
1.5944

>  <SCORE.RESTR.norm>
0.037962

>  <SCORE.SYSTEM>
0

>  <SCORE.SYSTEM.CONST>
0

>  <SCORE.SYSTEM.DIHEDRAL>
0

>  <SCORE.SYSTEM.SOLV>
0

>  <SCORE.SYSTEM.norm>
0

>  <SCORE.heavy>
42

>  <SCORE.norm>
-1.37297

>  <RMSD>
1.998

$$$$
1NEM.B
 OpenBabel11021811403D
libRbt.so/2013.1/901 2013/11/27
 42 45  0  0  0  0  0  0  0  0999 V2000
    1.5915   -2.7397    2.3666 O   0  0  0  0  0  0  0  0  0  0  0  0
    2.3372   -2.8558    1.1531 C   0  0  0  0  0  0  0  0  0  0  0  0
    2.3101   -1.5818    0.3100 C   0  0  1  0  0  0  0  0  0  0  0  0
    1.0766   -1.4700   -0.3940 O   0  0  0  0  0  0  0  0  0  0  0  0
    2.3704   -0.2903    1.1099 C   0  0  1  0  0  0  0  0  0  0  0  0
    3.7019   -0.1650    1.6145 O   0  0  0  0  0  0  0  0  0  0  0  0
    1.9660    0.6835    0.0190 C   0  0  1  0  0  0  0  0  0  0  0  0
    2.9817    0.8290   -0.9792 O   0  0  0  0  0  0  0  0  0  0  0  0
    0.7691   -0.0849   -0.5534 C   0  0  2  0  0  0  0  0  0  0  0  0
    3.8396   -0.1796    3.0067 C   0  0  2  0  0  0  0  0  0  0  0  0
    3.2589    1.1174    3.5862 C   0  0  2  0  0  0  0  0  0  0  0  0
    3.8705    2.2948    2.9155 N   0  3  0  0  0  0  0  0  0  0  0  0
    3.4495    1.1692    5.1056 C   0  0  1  0  0  0  0  0  0  0  0  0
    2.5943    0.2188    5.7269 O   0  0  0  0  0  0  0  0  0  0  0  0
    4.9038    0.8807    5.4905 C   0  0  2  0  0  0  0  0  0  0  0  0
    5.7466    1.9460    5.0699 O   0  0  0  0  0  0  0  0  0  0  0  0
    5.3557   -0.4265    4.8457 C   0  0  1  0  0  0  0  0  0  0  0  0
    5.1907   -0.3452    3.4167 O   0  0  0  0  0  0  0  0  0  0  0  0
    6.8084   -0.7644    5.1312 C   0  0  0  0  0  0  0  0  0  0  0  0
    7.6924   -0.4014    4.0013 N   0  3  0  0  0  0  0  0  0  0  0  0
   -4.4599   -1.2181    4.0799 C   0  0  0  0  0  0  0  0  0  0  0  0
   -1.8930   -2.2918    1.6334 C   0  0  2  0  0  0  0  0  0  0  0  0
   -1.9641   -3.8099    1.7798 C   0  0  2  0  0  0  0  0  0  0  0  0
   -1.3714   -4.4683    0.5912 N   0  3  0  0  0  0  0  0  0  0  0  0
   -3.4123   -4.2550    1.9332 C   0  0  1  0  0  0  0  0  0  0  0  0
   -3.4592   -5.6575    2.1460 O   0  0  0  0  0  0  0  0  0  0  0  0
   -4.0496   -3.5232    3.1122 C   0  0  2  0  0  0  0  0  0  0  0  0
   -5.4214   -3.8813    3.2196 O   0  0  0  0  0  0  0  0  0  0  0  0
   -4.9604   -2.1052    5.1548 N   0  3  0  0  0  0  0  0  0  0  0  0
   -3.9260   -2.0152    2.9025 C   0  0  2  0  0  0  0  0  0  0  0  0
   -2.5416   -1.6506    2.7285 O   0  0  0  0  0  0  0  0  0  0  0  0
   -3.3583    1.8169   -1.4158 C   0  0  2  0  0  0  0  0  0  0  0  0
   -3.6920    3.2516   -1.5698 N   0  3  0  0  0  0  0  0  0  0  0  0
   -4.4368    1.1160   -0.5976 C   0  0  0  0  0  0  0  0  0  0  0  0
   -4.1056   -0.3602   -0.4291 C   0  0  2  0  0  0  0  0  0  0  0  0
   -5.1700   -0.9693    0.3559 N   0  3  0  0  0  0  0  0  0  0  0  0
   -2.7574   -0.5113    0.2715 C   0  0  1  0  0  0  0  0  0  0  0  0
   -2.4383   -1.9104    0.4017 O   0  0  0  0  0  0  0  0  0  0  0  0
   -1.6490    0.1933   -0.5230 C   0  0  2  0  0  0  0  0  0  0  0  0
   -0.4141    0.1219    0.2150 O   0  0  0  0  0  0  0  0  0  0  0  0
   -1.9840    1.6627   -0.7664 C   0  0  1  0  0  0  0  0  0  0  0  0
   -0.9952    2.2415   -1.6077 O   0  0  0  0  0  0  0  0  0  0  0  0
  1  2  1  0  0  0  0
  3  2  1  1  0  0  0
  3  5  1  0  0  0  0
  3  4  1  0  0  0  0
  4  9  1  0  0  0  0
  5  7  1  0  0  0  0
  5  6  1  6  0  0  0
  7  9  1  0  0  0  0
  7  8  1  6  0  0  0
  9 40  1  1  0  0  0
 10  6  1  6  0  0  0
 10 11  1  0  0  0  0
 10 18  1  0  0  0  0
 11 13  1  0  0  0  0
 11 12  1  6  0  0  0
 13 15  1  0  0  0  0
 13 14  1  1  0  0  0
 15 17  1  0  0  0  0
 15 16  1  6  0  0  0
 17 19  1  6  0  0  0
 17 18  1  0  0  0  0
 19 20  1  0  0  0  0
 21 29  1  0  0  0  0
 22 23  1  0  0  0  0
 22 31  1  0  0  0  0
 22 38  1  6  0  0  0
 23 25  1  0  0  0  0
 23 24  1  6  0  0  0
 25 27  1  0  0  0  0
 25 26  1  1  0  0  0
 27 30  1  0  0  0  0
 27 28  1  6  0  0  0
 30 21  1  1  0  0  0
 30 31  1  0  0  0  0
 32 34  1  0  0  0  0
 32 41  1  0  0  0  0
 32 33  1  1  0  0  0
 34 35  1  0  0  0  0
 35 37  1  0  0  0  0
 35 36  1  1  0  0  0
 37 39  1  0  0  0  0
 37 38  1  6  0  0  0
 39 41  1  0  0  0  0
 39 40  1  1  0  0  0
 41 42  1  6  0  0  0
M  CHG  6  12   1  20   1  24   1  29   1  33   1  36   1
M  END
>  <CHROM.1>
70.53811185,-78.13917492,-116.88195635,-69.91075292,-56.18749539,-101.67570459
67.86011417,-39.84042099,-94.19211380,-99.59906093,-66.78095048,0.56184487
66.64204372,164.44815097,-32.23464155,-171.52273034,56.18526692,96.78606139
60.31420245,-137.87404423,141.80655863,-57.53995013,0.08635552,-0.73190136
1.83188563,0.05283905,0.34060837,2.32449460

>  <Name>
1NEM.B

>  <RI>
0

>  <Rbt.Current_Directory>
/home/itssahil/PROJECTS/Mol_Feturizer/New_Systems/rnas/1nem

>  <Rbt.Executable>
rbdock ($Id: //depot/dev/client3/rdock/2013.1/src/exe/rbdock.cxx#4 $)

>  <Rbt.Library>
libRbt.so (2013.1, Build901 2013/11/27)

>  <Rbt.Parameter_File>
/export/apps/rDock/src/rDock_2013.1_src/data/scripts/dock_solv.prm

>  <Rbt.Receptor>
prm/pocket_docking_2.prm

>  <SCORE>
-29.7408

>  <SCORE.INTER>
-52.7074

>  <SCORE.INTER.CONST>
1

>  <SCORE.INTER.POLAR>
-6.74881

>  <SCORE.INTER.ROT>
9

>  <SCORE.INTER.SOLV>
37.5307

>  <SCORE.INTER.VDW>
-34.7525

>  <SCORE.INTER.norm>
-1.25494

>  <SCORE.INTRA>
22.1312

>  <SCORE.INTRA.DIHEDRAL>
24.8352

>  <SCORE.INTRA.DIHEDRAL.0>
22.4324

>  <SCORE.INTRA.POLAR>
1.13998

>  <SCORE.INTRA.POLAR.0>
-1.83749

>  <SCORE.INTRA.REPUL>
0.114998

>  <SCORE.INTRA.REPUL.0>
0

>  <SCORE.INTRA.SOLV>
2.25326

>  <SCORE.INTRA.SOLV.lig_0>
-160.638

>  <SCORE.INTRA.VDW>
4.13608

>  <SCORE.INTRA.VDW.0>
-7.61953

>  <SCORE.INTRA.norm>
0.526934

>  <SCORE.RESTR>
0.835358

>  <SCORE.RESTR.CAVITY>
0.835358

>  <SCORE.RESTR.norm>
0.0198895

>  <SCORE.SYSTEM>
0

>  <SCORE.SYSTEM.CONST>
0

>  <SCORE.SYSTEM.DIHEDRAL>
0

>  <SCORE.SYSTEM.SOLV>
0

>  <SCORE.SYSTEM.norm>
0

>  <SCORE.heavy>
42

>  <SCORE.norm>
-0.708115

>  <RMSD>
2.008

$$$$
1NEM.B
 OpenBabel11021811403D
libRbt.so/2013.1/901 2013/11/27
 42 45  0  0  0  0  0  0  0  0999 V2000
    0.9410   -2.8887    2.7775 O   0  0  0  0  0  0  0  0  0  0  0  0
    2.1714   -2.7296    2.0683 C   0  0  0  0  0  0  0  0  0  0  0  0
    2.0645   -1.7559    0.8956 C   0  0  1  0  0  0  0  0  0  0  0  0
    0.7793   -1.8399    0.2869 O   0  0  0  0  0  0  0  0  0  0  0  0
    2.1713   -0.2883    1.2779 C   0  0  1  0  0  0  0  0  0  0  0  0
    3.5362   -0.0366    1.6200 O   0  0  0  0  0  0  0  0  0  0  0  0
    1.6727    0.3303   -0.0146 C   0  0  1  0  0  0  0  0  0  0  0  0
    2.6067    0.1675   -1.0871 O   0  0  0  0  0  0  0  0  0  0  0  0
    0.4442   -0.5578   -0.2445 C   0  0  2  0  0  0  0  0  0  0  0  0
    3.8398   -0.0267    2.9856 C   0  0  2  0  0  0  0  0  0  0  0  0
    3.2703    1.2488    3.6214 C   0  0  2  0  0  0  0  0  0  0  0  0
    3.7396    2.4450    2.8737 N   0  3  0  0  0  0  0  0  0  0  0  0
    3.6383    1.3291    5.1065 C   0  0  1  0  0  0  0  0  0  0  0  0
    2.9106    0.3475    5.8327 O   0  0  0  0  0  0  0  0  0  0  0  0
    5.1404    1.1147    5.3162 C   0  0  2  0  0  0  0  0  0  0  0  0
    5.8744    2.2132    4.7899 O   0  0  0  0  0  0  0  0  0  0  0  0
    5.5750   -0.1779    4.6312 C   0  0  1  0  0  0  0  0  0  0  0  0
    5.2366   -0.1230    3.2317 O   0  0  0  0  0  0  0  0  0  0  0  0
    7.0661   -0.4430    4.7428 C   0  0  0  0  0  0  0  0  0  0  0  0
    7.8296    0.2370    3.6730 N   0  3  0  0  0  0  0  0  0  0  0  0
   -5.4769   -2.1252    4.3466 C   0  0  0  0  0  0  0  0  0  0  0  0
   -2.4388   -2.1854    2.2269 C   0  0  2  0  0  0  0  0  0  0  0  0
   -2.0731   -3.6668    2.2790 C   0  0  2  0  0  0  0  0  0  0  0  0
   -1.1768   -4.0141    1.1506 N   0  3  0  0  0  0  0  0  0  0  0  0
   -3.3317   -4.5209    2.2047 C   0  0  1  0  0  0  0  0  0  0  0  0
   -2.9852   -5.8914    2.3322 O   0  0  0  0  0  0  0  0  0  0  0  0
   -4.2911   -4.1154    3.3215 C   0  0  2  0  0  0  0  0  0  0  0  0
   -5.4976   -4.8604    3.2170 O   0  0  0  0  0  0  0  0  0  0  0  0
   -4.7002   -1.9270    5.5917 N   0  3  0  0  0  0  0  0  0  0  0  0
   -4.5965   -2.6227    3.2135 C   0  0  2  0  0  0  0  0  0  0  0  0
   -3.3721   -1.8618    3.2541 O   0  0  0  0  0  0  0  0  0  0  0  0
   -3.4491    1.7475   -1.2203 C   0  0  2  0  0  0  0  0  0  0  0  0
   -3.6135    3.1896   -1.5149 N   0  3  0  0  0  0  0  0  0  0  0  0
   -4.5772    1.2691   -0.3134 C   0  0  0  0  0  0  0  0  0  0  0  0
   -4.4198   -0.2123   -0.0000 C   0  0  2  0  0  0  0  0  0  0  0  0
   -5.5239   -0.6051    0.8641 N   0  3  0  0  0  0  0  0  0  0  0  0
   -3.0778   -0.4561    0.6862 C   0  0  1  0  0  0  0  0  0  0  0  0
   -2.9243   -1.8636    0.9538 O   0  0  0  0  0  0  0  0  0  0  0  0
   -1.9188    0.0246   -0.1980 C   0  0  2  0  0  0  0  0  0  0  0  0
   -0.6785   -0.1229    0.5194 O   0  0  0  0  0  0  0  0  0  0  0  0
   -2.0832    1.4922   -0.5852 C   0  0  1  0  0  0  0  0  0  0  0  0
   -1.0594    1.8588   -1.5007 O   0  0  0  0  0  0  0  0  0  0  0  0
  1  2  1  0  0  0  0
  3  2  1  1  0  0  0
  3  5  1  0  0  0  0
  3  4  1  0  0  0  0
  4  9  1  0  0  0  0
  5  7  1  0  0  0  0
  5  6  1  6  0  0  0
  7  9  1  0  0  0  0
  7  8  1  6  0  0  0
  9 40  1  1  0  0  0
 10  6  1  6  0  0  0
 10 11  1  0  0  0  0
 10 18  1  0  0  0  0
 11 13  1  0  0  0  0
 11 12  1  6  0  0  0
 13 15  1  0  0  0  0
 13 14  1  1  0  0  0
 15 17  1  0  0  0  0
 15 16  1  6  0  0  0
 17 19  1  6  0  0  0
 17 18  1  0  0  0  0
 19 20  1  0  0  0  0
 21 29  1  0  0  0  0
 22 23  1  0  0  0  0
 22 31  1  0  0  0  0
 22 38  1  6  0  0  0
 23 25  1  0  0  0  0
 23 24  1  6  0  0  0
 25 27  1  0  0  0  0
 25 26  1  1  0  0  0
 27 30  1  0  0  0  0
 27 28  1  6  0  0  0
 30 21  1  1  0  0  0
 30 31  1  0  0  0  0
 32 34  1  0  0  0  0
 32 41  1  0  0  0  0
 32 33  1  1  0  0  0
 34 35  1  0  0  0  0
 35 37  1  0  0  0  0
 35 36  1  1  0  0  0
 37 39  1  0  0  0  0
 37 38  1  6  0  0  0
 39 41  1  0  0  0  0
 39 40  1  1  0  0  0
 41 42  1  6  0  0  0
M  CHG  6  12   1  20   1  24   1  29   1  33   1  36   1
M  END
>  <CHROM.1>
-69.41364366,-34.46187078,-99.14941067,-72.49916011,-57.34095418,-114.90737417
-44.75677599,173.45760374,-83.79173583,-85.62241271,-151.92743826,78.30321116
30.95580339,-169.12885878,-64.29851698,-64.82076269,-62.04949518,86.01863457
56.90919535,-135.48174677,141.37414716,-67.84078412,-0.04740159,-0.78361263
2.03519604,-0.03921116,0.32756392,2.36381831

>  <Name>
1NEM.B

>  <RI>
0

>  <Rbt.Current_Directory>
/home/itssahil/PROJECTS/Mol_Feturizer/New_Systems/rnas/1nem

>  <Rbt.Executable>
rbdock ($Id: //depot/dev/client3/rdock/2013.1/src/exe/rbdock.cxx#4 $)

>  <Rbt.Library>
libRbt.so (2013.1, Build901 2013/11/27)

>  <Rbt.Parameter_File>
/export/apps/rDock/src/rDock_2013.1_src/data/scripts/dock_solv.prm

>  <Rbt.Receptor>
prm/pocket_docking_5.prm

>  <SCORE>
-42.1397

>  <SCORE.INTER>
-51.7322

>  <SCORE.INTER.CONST>
1

>  <SCORE.INTER.POLAR>
-6.5388

>  <SCORE.INTER.ROT>
9

>  <SCORE.INTER.SOLV>
36.5489

>  <SCORE.INTER.VDW>
-34.4751

>  <SCORE.INTER.norm>
-1.23172

>  <SCORE.INTRA>
9.59246

>  <SCORE.INTRA.DIHEDRAL>
16.8523

>  <SCORE.INTRA.DIHEDRAL.0>
22.4324

>  <SCORE.INTRA.POLAR>
-0.568229

>  <SCORE.INTRA.POLAR.0>
-1.83749

>  <SCORE.INTRA.REPUL>
0.0174162

>  <SCORE.INTRA.REPUL.0>
0

>  <SCORE.INTRA.SOLV>
3.10755

>  <SCORE.INTRA.SOLV.lig_0>
-160.638

>  <SCORE.INTRA.VDW>
1.45742

>  <SCORE.INTRA.VDW.0>
-7.61953

>  <SCORE.INTRA.norm>
0.228392

>  <SCORE.RESTR>
0

>  <SCORE.RESTR.CAVITY>
0

>  <SCORE.RESTR.norm>
0

>  <SCORE.SYSTEM>
0

>  <SCORE.SYSTEM.CONST>
0

>  <SCORE.SYSTEM.DIHEDRAL>
0

>  <SCORE.SYSTEM.SOLV>
0

>  <SCORE.SYSTEM.norm>
0

>  <SCORE.heavy>
42

>  <SCORE.norm>
-1.00333

>  <RMSD>
2.038

$$$$
1NEM.B
 OpenBabel11021811403D
libRbt.so/2013.1/901 2013/11/27
 42 45  0  0  0  0  0  0  0  0999 V2000
    3.0759   -3.5209    3.3882 O   0  0  0  0  0  0  0  0  0  0  0  0
    1.7721   -3.7988    2.8735 C   0  0  0  0  0  0  0  0  0  0  0  0
    1.4455   -3.0035    1.6104 C   0  0  1  0  0  0  0  0  0  0  0  0
    0.1348   -3.3125    1.1455 O   0  0  0  0  0  0  0  0  0  0  0  0
    1.3976   -1.4963    1.8043 C   0  0  1  0  0  0  0  0  0  0  0  0
    2.7436   -1.0474    1.9780 O   0  0  0  0  0  0  0  0  0  0  0  0
    0.7187   -1.1112    0.5033 C   0  0  1  0  0  0  0  0  0  0  0  0
    1.5728   -1.3027   -0.6293 O   0  0  0  0  0  0  0  0  0  0  0  0
   -0.4027   -2.1568    0.5021 C   0  0  2  0  0  0  0  0  0  0  0  0
    2.9144    0.1168    2.7347 C   0  0  2  0  0  0  0  0  0  0  0  0
    4.3805    0.5633    2.6525 C   0  0  2  0  0  0  0  0  0  0  0  0
    5.2779   -0.5596    3.0321 N   0  3  0  0  0  0  0  0  0  0  0  0
    4.6233    1.8009    3.5224 C   0  0  1  0  0  0  0  0  0  0  0  0
    3.9902    2.9297    2.9345 O   0  0  0  0  0  0  0  0  0  0  0  0
    4.0873    1.5926    4.9422 C   0  0  2  0  0  0  0  0  0  0  0  0
    4.8648    0.6177    5.6256 O   0  0  0  0  0  0  0  0  0  0  0  0
    2.6294    1.1458    4.8799 C   0  0  1  0  0  0  0  0  0  0  0  0
    2.5231   -0.0550    4.0906 O   0  0  0  0  0  0  0  0  0  0  0  0
    2.0307    0.8628    6.2465 C   0  0  0  0  0  0  0  0  0  0  0  0
    1.8507    2.1003    7.0377 N   0  3  0  0  0  0  0  0  0  0  0  0
   -4.4223   -3.0461    6.1573 C   0  0  0  0  0  0  0  0  0  0  0  0
   -3.0752   -3.4251    2.7267 C   0  0  2  0  0  0  0  0  0  0  0  0
   -3.0670   -4.9448    2.5803 C   0  0  2  0  0  0  0  0  0  0  0  0
   -3.0082   -5.3221    1.1479 N   0  3  0  0  0  0  0  0  0  0  0  0
   -4.3210   -5.5393    3.2073 C   0  0  1  0  0  0  0  0  0  0  0  0
   -4.2644   -6.9556    3.1339 O   0  0  0  0  0  0  0  0  0  0  0  0
   -4.4250   -5.0924    4.6638 C   0  0  2  0  0  0  0  0  0  0  0  0
   -5.6289   -5.5865    5.2366 O   0  0  0  0  0  0  0  0  0  0  0  0
   -5.7234   -2.4277    6.5003 N   0  3  0  0  0  0  0  0  0  0  0  0
   -4.4113   -3.5665    4.7305 C   0  0  2  0  0  0  0  0  0  0  0  0
   -3.2233   -3.0530    4.0944 O   0  0  0  0  0  0  0  0  0  0  0  0
   -3.8138    0.6153   -0.4801 C   0  0  2  0  0  0  0  0  0  0  0  0
   -3.6409    2.0341   -0.8678 N   0  3  0  0  0  0  0  0  0  0  0  0
   -4.9872    0.4776    0.4834 C   0  0  0  0  0  0  0  0  0  0  0  0
   -5.1755   -0.9765    0.8925 C   0  0  2  0  0  0  0  0  0  0  0  0
   -6.3068   -1.0395    1.8071 N   0  3  0  0  0  0  0  0  0  0  0  0
   -3.9046   -1.4944    1.5618 C   0  0  1  0  0  0  0  0  0  0  0  0
   -4.0810   -2.8788    1.9204 O   0  0  0  0  0  0  0  0  0  0  0  0
   -2.6999   -1.3606    0.6200 C   0  0  2  0  0  0  0  0  0  0  0  0
   -1.5036   -1.7589    1.3163 O   0  0  0  0  0  0  0  0  0  0  0  0
   -2.5245    0.0774    0.1384 C   0  0  1  0  0  0  0  0  0  0  0  0
   -1.4795    0.1313   -0.8237 O   0  0  0  0  0  0  0  0  0  0  0  0
  1  2  1  0  0  0  0
  3  2  1  1  0  0  0
  3  5  1  0  0  0  0
  3  4  1  0  0  0  0
  4  9  1  0  0  0  0
  5  7  1  0  0  0  0
  5  6  1  6  0  0  0
  7  9  1  0  0  0  0
  7  8  1  6  0  0  0
  9 40  1  1  0  0  0
 10  6  1  6  0  0  0
 10 11  1  0  0  0  0
 10 18  1  0  0  0  0
 11 13  1  0  0  0  0
 11 12  1  1  0  0  0
 13 15  1  0  0  0  0
 13 14  1  6  0  0  0
 15 17  1  0  0  0  0
 15 16  1  6  0  0  0
 17 19  1  1  0  0  0
 17 18  1  0  0  0  0
 19 20  1  0  0  0  0
 21 29  1  0  0  0  0
 22 23  1  0  0  0  0
 22 31  1  0  0  0  0
 22 38  1  6  0  0  0
 23 25  1  0  0  0  0
 23 24  1  6  0  0  0
 25 27  1  0  0  0  0
 25 26  1  1  0  0  0
 27 30  1  0  0  0  0
 27 28  1  6  0  0  0
 30 21  1  1  0  0  0
 30 31  1  0  0  0  0
 32 34  1  0  0  0  0
 32 41  1  0  0  0  0
 32 33  1  1  0  0  0
 34 35  1  0  0  0  0
 35 37  1  0  0  0  0
 35 36  1  1  0  0  0
 37 39  1  0  0  0  0
 37 38  1  6  0  0  0
 39 41  1  0  0  0  0
 39 40  1  1  0  0  0
 41 42  1  6  0  0  0
M  CHG  6  12   1  20   1  24   1  29   1  33   1  36   1
M  END
>  <CHROM.1>
158.64696703,-179.66945196,-152.36440901,-171.98215537,-57.89430206,-137.60613785
171.02057911,-177.01223371,66.16261042,69.56047474,-26.52564785,-108.92709832
172.16225441,-157.78306276,140.85048190,-176.00097928,-54.86079302,69.92602310
-168.62147565,-170.48031244,158.15462332,70.07205185,-0.80143244,-1.54166000
2.68135560,-0.19101868,0.41815294,2.21383699

>  <Name>
1NEM.B

>  <RI>
0

>  <Rbt.Current_Directory>
/home/itssahil/PROJECTS/Mol_Feturizer/New_Systems/rnas/1nem

>  <Rbt.Executable>
rbdock ($Id: //depot/dev/client3/rdock/2013.1/src/exe/rbdock.cxx#4 $)

>  <Rbt.Library>
libRbt.so (2013.1, Build901 2013/11/27)

>  <Rbt.Parameter_File>
/export/apps/rDock/src/rDock_2013.1_src/data/scripts/dock_solv.prm

>  <Rbt.Receptor>
prm/blind_docking_40.prm

>  <SCORE>
-35.8138

>  <SCORE.INTER>
-46.0608

>  <SCORE.INTER.CONST>
1

>  <SCORE.INTER.POLAR>
-6.8217

>  <SCORE.INTER.ROT>
9

>  <SCORE.INTER.SOLV>
44.4632

>  <SCORE.INTER.VDW>
-32.3893

>  <SCORE.INTER.norm>
-1.09669

>  <SCORE.INTRA>
6.43206

>  <SCORE.INTRA.DIHEDRAL>
5.83197

>  <SCORE.INTRA.DIHEDRAL.0>
22.4324

>  <SCORE.INTRA.POLAR>
1.34237

>  <SCORE.INTRA.POLAR.0>
-1.83749

>  <SCORE.INTRA.REPUL>
0

>  <SCORE.INTRA.REPUL.0>
0

>  <SCORE.INTRA.SOLV>
-6.86777

>  <SCORE.INTRA.SOLV.lig_0>
-160.638

>  <SCORE.INTRA.VDW>
2.38591

>  <SCORE.INTRA.VDW.0>
-7.61953

>  <SCORE.INTRA.norm>
0.153144

>  <SCORE.RESTR>
3.81488

>  <SCORE.RESTR.CAVITY>
3.81488

>  <SCORE.RESTR.norm>
0.0908305

>  <SCORE.SYSTEM>
0

>  <SCORE.SYSTEM.CONST>
0

>  <SCORE.SYSTEM.DIHEDRAL>
0

>  <SCORE.SYSTEM.SOLV>
0

>  <SCORE.SYSTEM.norm>
0

>  <SCORE.heavy>
42

>  <SCORE.norm>
-0.85271

>  <RMSD>
2.045

$$$$
1NEM.B
 OpenBabel11021811403D
libRbt.so/2013.1/901 2013/11/27
 42 45  0  0  0  0  0  0  0  0999 V2000
    3.1810   -3.0488    3.2522 O   0  0  0  0  0  0  0  0  0  0  0  0
    2.0423   -3.1839    2.3994 C   0  0  0  0  0  0  0  0  0  0  0  0
    2.0803   -2.2421    1.1967 C   0  0  1  0  0  0  0  0  0  0  0  0
    0.8269   -2.2392    0.5197 O   0  0  0  0  0  0  0  0  0  0  0  0
    2.2892   -0.7769    1.5447 C   0  0  1  0  0  0  0  0  0  0  0  0
    3.6502   -0.6278    1.9556 O   0  0  0  0  0  0  0  0  0  0  0  0
    1.9140   -0.1604    0.2101 C   0  0  1  0  0  0  0  0  0  0  0  0
    2.8870   -0.4332   -0.8038 O   0  0  0  0  0  0  0  0  0  0  0  0
    0.6294   -0.9513   -0.0640 C   0  0  2  0  0  0  0  0  0  0  0  0
    3.8564   -0.2510    3.2870 C   0  0  2  0  0  0  0  0  0  0  0  0
    3.2188    1.1240    3.5283 C   0  0  2  0  0  0  0  0  0  0  0  0
    3.7162    2.1006    2.5239 N   0  3  0  0  0  0  0  0  0  0  0  0
    3.4795    1.6023    4.9603 C   0  0  1  0  0  0  0  0  0  0  0  0
    2.7217    0.8175    5.8716 O   0  0  0  0  0  0  0  0  0  0  0  0
    4.9671    1.5062    5.3131 C   0  0  2  0  0  0  0  0  0  0  0  0
    5.7147    2.4560    4.5641 O   0  0  0  0  0  0  0  0  0  0  0  0
    5.4739    0.0968    5.0203 C   0  0  1  0  0  0  0  0  0  0  0  0
    5.2341   -0.2276    3.6372 O   0  0  0  0  0  0  0  0  0  0  0  0
    6.9583   -0.0743    5.2912 C   0  0  0  0  0  0  0  0  0  0  0  0
    7.4322   -1.4300    4.9345 N   0  3  0  0  0  0  0  0  0  0  0  0
   -4.2327   -1.8696    4.6172 C   0  0  0  0  0  0  0  0  0  0  0  0
   -2.3504   -2.2325    1.4466 C   0  0  2  0  0  0  0  0  0  0  0  0
   -2.4804   -3.7332    1.1976 C   0  0  2  0  0  0  0  0  0  0  0  0
   -2.2109   -4.0422   -0.2269 N   0  3  0  0  0  0  0  0  0  0  0  0
   -3.8820   -4.2058    1.5598 C   0  0  1  0  0  0  0  0  0  0  0  0
   -3.9664   -5.6133    1.3980 O   0  0  0  0  0  0  0  0  0  0  0  0
   -4.1926   -3.8236    3.0053 C   0  0  2  0  0  0  0  0  0  0  0  0
   -5.5248   -4.1998    3.3296 O   0  0  0  0  0  0  0  0  0  0  0  0
   -5.6228   -2.1111    5.0670 N   0  3  0  0  0  0  0  0  0  0  0  0
   -4.0263   -2.3152    3.1800 C   0  0  2  0  0  0  0  0  0  0  0  0
   -2.6964   -1.9146    2.7921 O   0  0  0  0  0  0  0  0  0  0  0  0
   -2.4284    2.3263   -1.1109 C   0  0  2  0  0  0  0  0  0  0  0  0
   -2.1902    3.7856   -1.1950 N   0  3  0  0  0  0  0  0  0  0  0  0
   -3.7626    2.0549   -0.4250 C   0  0  0  0  0  0  0  0  0  0  0  0
   -4.0199    0.5575   -0.3295 C   0  0  2  0  0  0  0  0  0  0  0  0
   -5.3038    0.3669    0.3305 N   0  3  0  0  0  0  0  0  0  0  0  0
   -2.8971   -0.1110    0.4602 C   0  0  1  0  0  0  0  0  0  0  0  0
   -3.1333   -1.5311    0.5218 O   0  0  0  0  0  0  0  0  0  0  0  0
   -1.5362    0.1518   -0.1995 C   0  0  2  0  0  0  0  0  0  0  0  0
   -0.4921   -0.4017    0.6239 O   0  0  0  0  0  0  0  0  0  0  0  0
   -1.2778    1.6467   -0.3705 C   0  0  1  0  0  0  0  0  0  0  0  0
   -0.0696    1.8395   -1.0941 O   0  0  0  0  0  0  0  0  0  0  0  0
  1  2  1  0  0  0  0
  3  2  1  1  0  0  0
  3  5  1  0  0  0  0
  3  4  1  0  0  0  0
  4  9  1  0  0  0  0
  5  7  1  0  0  0  0
  5  6  1  6  0  0  0
  7  9  1  0  0  0  0
  7  8  1  6  0  0  0
  9 40  1  1  0  0  0
 10  6  1  6  0  0  0
 10 11  1  0  0  0  0
 10 18  1  0  0  0  0
 11 13  1  0  0  0  0
 11 12  1  6  0  0  0
 13 15  1  0  0  0  0
 13 14  1  1  0  0  0
 15 17  1  0  0  0  0
 15 16  1  6  0  0  0
 17 19  1  6  0  0  0
 17 18  1  0  0  0  0
 19 20  1  0  0  0  0
 21 29  1  0  0  0  0
 22 23  1  0  0  0  0
 22 31  1  0  0  0  0
 22 38  1  6  0  0  0
 23 25  1  0  0  0  0
 23 24  1  6  0  0  0
 25 27  1  0  0  0  0
 25 26  1  1  0  0  0
 27 30  1  0  0  0  0
 27 28  1  6  0  0  0
 30 21  1  1  0  0  0
 30 31  1  0  0  0  0
 32 34  1  0  0  0  0
 32 41  1  0  0  0  0
 32 33  1  1  0  0  0
 34 35  1  0  0  0  0
 35 37  1  0  0  0  0
 35 36  1  1  0  0  0
 37 39  1  0  0  0  0
 37 38  1  6  0  0  0
 39 41  1  0  0  0  0
 39 40  1  1  0  0  0
 41 42  1  6  0  0  0
M  CHG  6  12   1  20   1  24   1  29   1  33   1  36   1
M  END
>  <CHROM.1>
-59.20572081,-169.41407533,-115.32245519,-61.60561070,62.33119068,-130.79513313
-35.35003457,64.58643021,-79.50017640,-177.16414385,-55.17585285,-64.55368791
141.91428658,-167.79570572,138.04061648,-171.84724835,64.62397931,-68.16778465
-7.49099912,-166.86747681,144.88042635,165.60168646,0.10645455,-0.76230114
2.00014012,-0.01396965,0.35502088,2.48217661

>  <Name>
1NEM.B

>  <RI>
0

>  <Rbt.Current_Directory>
/home/itssahil/PROJECTS/Mol_Feturizer/New_Systems/rnas/1nem

>  <Rbt.Executable>
rbdock ($Id: //depot/dev/client3/rdock/2013.1/src/exe/rbdock.cxx#4 $)

>  <Rbt.Library>
libRbt.so (2013.1, Build901 2013/11/27)

>  <Rbt.Parameter_File>
/export/apps/rDock/src/rDock_2013.1_src/data/scripts/dock_solv.prm

>  <Rbt.Receptor>
prm/pocket_docking_3.prm

>  <SCORE>
-47.3449

>  <SCORE.INTER>
-61.0924

>  <SCORE.INTER.CONST>
1

>  <SCORE.INTER.POLAR>
-8.44173

>  <SCORE.INTER.ROT>
9

>  <SCORE.INTER.SOLV>
41.7138

>  <SCORE.INTER.VDW>
-36.0938

>  <SCORE.INTER.norm>
-1.45458

>  <SCORE.INTRA>
13.4153

>  <SCORE.INTRA.DIHEDRAL>
11.657

>  <SCORE.INTRA.DIHEDRAL.0>
22.4324

>  <SCORE.INTRA.POLAR>
0.904466

>  <SCORE.INTRA.POLAR.0>
-1.83749

>  <SCORE.INTRA.REPUL>
0

>  <SCORE.INTRA.REPUL.0>
0

>  <SCORE.INTRA.SOLV>
-4.55208

>  <SCORE.INTRA.SOLV.lig_0>
-160.638

>  <SCORE.INTRA.VDW>
6.78767

>  <SCORE.INTRA.VDW.0>
-7.61953

>  <SCORE.INTRA.norm>
0.319412

>  <SCORE.RESTR>
0.332246

>  <SCORE.RESTR.CAVITY>
0.332246

>  <SCORE.RESTR.norm>
0.00791061

>  <SCORE.SYSTEM>
0

>  <SCORE.SYSTEM.CONST>
0

>  <SCORE.SYSTEM.DIHEDRAL>
0

>  <SCORE.SYSTEM.SOLV>
0

>  <SCORE.SYSTEM.norm>
0

>  <SCORE.heavy>
42

>  <SCORE.norm>
-1.12726

>  <RMSD>
2.048

$$$$
1NEM.B
 OpenBabel11021811403D
libRbt.so/2013.1/901 2013/11/27
 42 45  0  0  0  0  0  0  0  0999 V2000
    2.9535    0.0458    4.0558 O   0  0  0  0  0  0  0  0  0  0  0  0
    3.6821   -0.9686    3.3614 C   0  0  0  0  0  0  0  0  0  0  0  0
    3.4101   -0.9777    1.8579 C   0  0  1  0  0  0  0  0  0  0  0  0
    2.0812   -1.4151    1.5892 O   0  0  0  0  0  0  0  0  0  0  0  0
    3.4653    0.3894    1.1949 C   0  0  1  0  0  0  0  0  0  0  0  0
    4.8388    0.7821    1.1449 O   0  0  0  0  0  0  0  0  0  0  0  0
    2.8137    0.0374   -0.1292 C   0  0  1  0  0  0  0  0  0  0  0  0
    3.6524   -0.7917   -0.9407 O   0  0  0  0  0  0  0  0  0  0  0  0
    1.6236   -0.7719    0.3995 C   0  0  2  0  0  0  0  0  0  0  0  0
    5.3248    1.4752    2.2588 C   0  0  2  0  0  0  0  0  0  0  0  0
    6.4757    2.3917    1.8220 C   0  0  2  0  0  0  0  0  0  0  0  0
    7.5011    1.6072    1.0847 N   0  3  0  0  0  0  0  0  0  0  0  0
    7.0793    3.1212    3.0266 C   0  0  1  0  0  0  0  0  0  0  0  0
    6.1600    4.0938    3.5057 O   0  0  0  0  0  0  0  0  0  0  0  0
    7.4225    2.1402    4.1519 C   0  0  2  0  0  0  0  0  0  0  0  0
    8.5052    1.3036    3.7647 O   0  0  0  0  0  0  0  0  0  0  0  0
    6.1993    1.2895    4.4820 C   0  0  1  0  0  0  0  0  0  0  0  0
    5.7516    0.6029    3.2970 O   0  0  0  0  0  0  0  0  0  0  0  0
    6.4657    0.2480    5.5546 C   0  0  0  0  0  0  0  0  0  0  0  0
    5.2314   -0.1252    6.2807 N   0  3  0  0  0  0  0  0  0  0  0  0
   -4.1998   -3.2779    3.5003 C   0  0  0  0  0  0  0  0  0  0  0  0
   -1.1639   -2.1921    1.6751 C   0  0  2  0  0  0  0  0  0  0  0  0
   -0.4593   -3.5285    1.4551 C   0  0  2  0  0  0  0  0  0  0  0  0
    0.5317   -3.4119    0.3587 N   0  3  0  0  0  0  0  0  0  0  0  0
   -1.4761   -4.6062    1.1032 C   0  0  1  0  0  0  0  0  0  0  0  0
   -0.8190   -5.8579    0.9777 O   0  0  0  0  0  0  0  0  0  0  0  0
   -2.5416   -4.6792    2.1947 C   0  0  2  0  0  0  0  0  0  0  0  0
   -3.5328   -5.6349    1.8400 O   0  0  0  0  0  0  0  0  0  0  0  0
   -4.6243   -1.8946    3.8153 N   0  3  0  0  0  0  0  0  0  0  0  0
   -3.1885   -3.3063    2.3675 C   0  0  2  0  0  0  0  0  0  0  0  0
   -2.1816   -2.3176    2.6648 O   0  0  0  0  0  0  0  0  0  0  0  0
   -1.7870    2.1643   -1.2601 C   0  0  2  0  0  0  0  0  0  0  0  0
   -1.9276    3.6334   -1.3844 N   0  3  0  0  0  0  0  0  0  0  0  0
   -3.0813    1.5603   -0.7272 C   0  0  0  0  0  0  0  0  0  0  0  0
   -2.9506    0.0497   -0.5920 C   0  0  2  0  0  0  0  0  0  0  0  0
   -4.2144   -0.4635   -0.0826 N   0  3  0  0  0  0  0  0  0  0  0  0
   -1.8035   -0.2874    0.3576 C   0  0  1  0  0  0  0  0  0  0  0  0
   -1.6683   -1.7185    0.4580 O   0  0  0  0  0  0  0  0  0  0  0  0
   -0.4848    0.3157   -0.1458 C   0  0  2  0  0  0  0  0  0  0  0  0
    0.5528    0.0693    0.8225 O   0  0  0  0  0  0  0  0  0  0  0  0
   -0.6041    1.8231   -0.3554 C   0  0  1  0  0  0  0  0  0  0  0  0
    0.5949    2.3175   -0.9372 O   0  0  0  0  0  0  0  0  0  0  0  0
  1  2  1  0  0  0  0
  3  2  1  1  0  0  0
  3  5  1  0  0  0  0
  3  4  1  0  0  0  0
  4  9  1  0  0  0  0
  5  7  1  0  0  0  0
  5  6  1  6  0  0  0
  7  9  1  0  0  0  0
  7  8  1  6  0  0  0
  9 40  1  1  0  0  0
 10  6  1  6  0  0  0
 10 11  1  0  0  0  0
 10 18  1  0  0  0  0
 11 13  1  0  0  0  0
 11 12  1  1  0  0  0
 13 15  1  0  0  0  0
 13 14  1  1  0  0  0
 15 17  1  0  0  0  0
 15 16  1  6  0  0  0
 17 19  1  1  0  0  0
 17 18  1  0  0  0  0
 19 20  1  0  0  0  0
 21 29  1  0  0  0  0
 22 23  1  0  0  0  0
 22 31  1  0  0  0  0
 22 38  1  6  0  0  0
 23 25  1  0  0  0  0
 23 24  1  6  0  0  0
 25 27  1  0  0  0  0
 25 26  1  1  0  0  0
 27 30  1  0  0  0  0
 27 28  1  6  0  0  0
 30 21  1  1  0  0  0
 30 31  1  0  0  0  0
 32 34  1  0  0  0  0
 32 41  1  0  0  0  0
 32 33  1  1  0  0  0
 34 35  1  0  0  0  0
 35 37  1  0  0  0  0
 35 36  1  1  0  0  0
 37 39  1  0  0  0  0
 37 38  1  6  0  0  0
 39 41  1  0  0  0  0
 39 40  1  1  0  0  0
 41 42  1  6  0  0  0
M  CHG  6  12   1  20   1  24   1  29   1  33   1  36   1
M  END
>  <CHROM.1>
50.20706721,-69.28406114,-88.63540494,-152.16223230,-64.98231322,-150.43590445
-57.47020966,-179.72229898,77.31777481,154.27586124,34.57261128,169.35345627
-172.54558156,-153.05094661,81.11411615,53.52918918,-54.21351261,63.52608449
-168.95284654,-150.76909201,115.49161737,-65.56012869,1.42972800,-0.40510986
1.67490269,-0.20750593,0.39465665,2.56466634

>  <Name>
1NEM.B

>  <RI>
0

>  <Rbt.Current_Directory>
/home/itssahil/PROJECTS/Mol_Feturizer/New_Systems/rnas/1nem

>  <Rbt.Executable>
rbdock ($Id: //depot/dev/client3/rdock/2013.1/src/exe/rbdock.cxx#4 $)

>  <Rbt.Library>
libRbt.so (2013.1, Build901 2013/11/27)

>  <Rbt.Parameter_File>
/export/apps/rDock/src/rDock_2013.1_src/data/scripts/dock_solv.prm

>  <Rbt.Receptor>
prm/pocket_docking_3.prm

>  <SCORE>
-39.9087

>  <SCORE.INTER>
-46.6562

>  <SCORE.INTER.CONST>
1

>  <SCORE.INTER.POLAR>
-6.82998

>  <SCORE.INTER.ROT>
9

>  <SCORE.INTER.SOLV>
31.0036

>  <SCORE.INTER.VDW>
-28.272

>  <SCORE.INTER.norm>
-1.11086

>  <SCORE.INTRA>
5.90419

>  <SCORE.INTRA.DIHEDRAL>
9.78734

>  <SCORE.INTRA.DIHEDRAL.0>
22.4324

>  <SCORE.INTRA.POLAR>
-0.595903

>  <SCORE.INTRA.POLAR.0>
-1.83749

>  <SCORE.INTRA.REPUL>
0

>  <SCORE.INTRA.REPUL.0>
0

>  <SCORE.INTRA.SOLV>
-0.26339

>  <SCORE.INTRA.SOLV.lig_0>
-160.638

>  <SCORE.INTRA.VDW>
3.16829

>  <SCORE.INTRA.VDW.0>
-7.61953

>  <SCORE.INTRA.norm>
0.140576

>  <SCORE.RESTR>
0.84328

>  <SCORE.RESTR.CAVITY>
0.84328

>  <SCORE.RESTR.norm>
0.0200781

>  <SCORE.SYSTEM>
0

>  <SCORE.SYSTEM.CONST>
0

>  <SCORE.SYSTEM.DIHEDRAL>
0

>  <SCORE.SYSTEM.SOLV>
0

>  <SCORE.SYSTEM.norm>
0

>  <SCORE.heavy>
42

>  <SCORE.norm>
-0.950207

>  <RMSD>
2.050

$$$$
1NEM.B
 OpenBabel11021811403D
libRbt.so/2013.1/901 2013/11/27
 42 45  0  0  0  0  0  0  0  0999 V2000
    3.0386   -3.5702    2.6764 O   0  0  0  0  0  0  0  0  0  0  0  0
    1.9985   -3.2523    1.7495 C   0  0  0  0  0  0  0  0  0  0  0  0
    2.2366   -1.9357    1.0115 C   0  0  1  0  0  0  0  0  0  0  0  0
    1.1283   -1.6205    0.1737 O   0  0  0  0  0  0  0  0  0  0  0  0
    2.3485   -0.7153    1.9112 C   0  0  1  0  0  0  0  0  0  0  0  0
    3.6081   -0.7964    2.5821 O   0  0  0  0  0  0  0  0  0  0  0  0
    2.2112    0.3688    0.8587 C   0  0  1  0  0  0  0  0  0  0  0  0
    3.3585    0.4423    0.0058 O   0  0  0  0  0  0  0  0  0  0  0  0
    1.0148   -0.1999    0.0868 C   0  0  2  0  0  0  0  0  0  0  0  0
    3.6930   -0.1476    3.8187 C   0  0  2  0  0  0  0  0  0  0  0  0
    3.3473    1.3365    3.6364 C   0  0  2  0  0  0  0  0  0  0  0  0
    4.1921    1.9296    2.5664 N   0  3  0  0  0  0  0  0  0  0  0  0
    3.4923    2.0967    4.9587 C   0  0  1  0  0  0  0  0  0  0  0  0
    2.4529    1.7106    5.8481 O   0  0  0  0  0  0  0  0  0  0  0  0
    4.8524    1.8225    5.6078 C   0  0  2  0  0  0  0  0  0  0  0  0
    5.8945    2.4075    4.8371 O   0  0  0  0  0  0  0  0  0  0  0  0
    5.0721    0.3167    5.7225 C   0  0  1  0  0  0  0  0  0  0  0  0
    4.9741   -0.2888    4.4188 O   0  0  0  0  0  0  0  0  0  0  0  0
    6.4246   -0.0485    6.3084 C   0  0  0  0  0  0  0  0  0  0  0  0
    7.1862   -0.9527    5.4183 N   0  3  0  0  0  0  0  0  0  0  0  0
   -6.6104   -2.6574    2.0518 C   0  0  0  0  0  0  0  0  0  0  0  0
   -3.1042   -1.5143    2.4075 C   0  0  2  0  0  0  0  0  0  0  0  0
   -2.4429   -2.7668    2.9777 C   0  0  2  0  0  0  0  0  0  0  0  0
   -0.9757   -2.7106    2.7736 N   0  3  0  0  0  0  0  0  0  0  0  0
   -2.9995   -4.0102    2.2970 C   0  0  1  0  0  0  0  0  0  0  0  0
   -2.4348   -5.1700    2.8889 O   0  0  0  0  0  0  0  0  0  0  0  0
   -4.5196   -4.0341    2.4406 C   0  0  2  0  0  0  0  0  0  0  0  0
   -5.0533   -5.1555    1.7484 O   0  0  0  0  0  0  0  0  0  0  0  0
   -6.9671   -2.3735    3.4608 N   0  3  0  0  0  0  0  0  0  0  0  0
   -5.1059   -2.7466    1.8646 C   0  0  2  0  0  0  0  0  0  0  0  0
   -4.5225   -1.6006    2.5173 O   0  0  0  0  0  0  0  0  0  0  0  0
   -2.5633    2.0152   -1.5402 C   0  0  2  0  0  0  0  0  0  0  0  0
   -2.5286    3.4169   -2.0172 N   0  3  0  0  0  0  0  0  0  0  0  0
   -3.8279    1.7739   -0.7237 C   0  0  0  0  0  0  0  0  0  0  0  0
   -3.8760    0.3366   -0.2245 C   0  0  2  0  0  0  0  0  0  0  0  0
   -5.1025    0.1719    0.5428 N   0  3  0  0  0  0  0  0  0  0  0  0
   -2.6504    0.0476    0.6392 C   0  0  1  0  0  0  0  0  0  0  0  0
   -2.6891   -1.3223    1.0843 O   0  0  0  0  0  0  0  0  0  0  0  0
   -1.3575    0.2910   -0.1516 C   0  0  2  0  0  0  0  0  0  0  0  0
   -0.2246    0.1113    0.7196 O   0  0  0  0  0  0  0  0  0  0  0  0
   -1.3101    1.7059   -0.7228 C   0  0  1  0  0  0  0  0  0  0  0  0
   -0.1606    1.8464   -1.5472 O   0  0  0  0  0  0  0  0  0  0  0  0
  1  2  1  0  0  0  0
  3  2  1  1  0  0  0
  3  5  1  0  0  0  0
  3  4  1  0  0  0  0
  4  9  1  0  0  0  0
  5  7  1  0  0  0  0
  5  6  1  6  0  0  0
  7  9  1  0  0  0  0
  7  8  1  6  0  0  0
  9 40  1  1  0  0  0
 10  6  1  6  0  0  0
 10 11  1  0  0  0  0
 10 18  1  0  0  0  0
 11 13  1  0  0  0  0
 11 12  1  6  0  0  0
 13 15  1  0  0  0  0
 13 14  1  1  0  0  0
 15 17  1  0  0  0  0
 15 16  1  6  0  0  0
 17 19  1  6  0  0  0
 17 18  1  0  0  0  0
 19 20  1  0  0  0  0
 21 29  1  0  0  0  0
 22 23  1  0  0  0  0
 22 31  1  0  0  0  0
 22 38  1  6  0  0  0
 23 25  1  0  0  0  0
 23 24  1  6  0  0  0
 25 27  1  0  0  0  0
 25 26  1  1  0  0  0
 27 30  1  0  0  0  0
 27 28  1  6  0  0  0
 30 21  1  1  0  0  0
 30 31  1  0  0  0  0
 32 34  1  0  0  0  0
 32 41  1  0  0  0  0
 32 33  1  1  0  0  0
 34 35  1  0  0  0  0
 35 37  1  0  0  0  0
 35 36  1  1  0  0  0
 37 39  1  0  0  0  0
 37 38  1  6  0  0  0
 39 41  1  0  0  0  0
 39 40  1  1  0  0  0
 41 42  1  6  0  0  0
M  CHG  6  12   1  20   1  24   1  29   1  33   1  36   1
M  END
>  <CHROM.1>
-178.74421386,-175.85770578,-153.79578851,-57.50928632,68.62414513,-97.21639356
46.31012380,58.50725608,68.06864587,-124.63491395,148.61061836,73.40116998
-57.56543814,-150.35266932,-91.05220271,62.19750419,-60.86421808,173.88275138
-140.56549316,-102.15885957,157.11519830,-56.38915683,0.05874989,-0.62054111
2.09604725,0.01600186,0.38008032,2.46485692

>  <Name>
1NEM.B

>  <RI>
0

>  <Rbt.Current_Directory>
/home/itssahil/PROJECTS/Mol_Feturizer/New_Systems/rnas/1nem

>  <Rbt.Executable>
rbdock ($Id: //depot/dev/client3/rdock/2013.1/src/exe/rbdock.cxx#4 $)

>  <Rbt.Library>
libRbt.so (2013.1, Build901 2013/11/27)

>  <Rbt.Parameter_File>
/export/apps/rDock/src/rDock_2013.1_src/data/scripts/dock_solv.prm

>  <Rbt.Receptor>
prm/pocket_docking_5.prm

>  <SCORE>
-38.2716

>  <SCORE.INTER>
-48.8923

>  <SCORE.INTER.CONST>
1

>  <SCORE.INTER.POLAR>
-6.31341

>  <SCORE.INTER.ROT>
9

>  <SCORE.INTER.SOLV>
35.2472

>  <SCORE.INTER.VDW>
-32.8993

>  <SCORE.INTER.norm>
-1.1641

>  <SCORE.INTRA>
10.6208

>  <SCORE.INTRA.DIHEDRAL>
11.199

>  <SCORE.INTRA.DIHEDRAL.0>
22.4324

>  <SCORE.INTRA.POLAR>
-0.557031

>  <SCORE.INTRA.POLAR.0>
-1.83749

>  <SCORE.INTRA.REPUL>
0

>  <SCORE.INTRA.REPUL.0>
0

>  <SCORE.INTRA.SOLV>
4.57803

>  <SCORE.INTRA.SOLV.lig_0>
-160.638

>  <SCORE.INTRA.VDW>
4.62616

>  <SCORE.INTRA.VDW.0>
-7.61953

>  <SCORE.INTRA.norm>
0.252876

>  <SCORE.RESTR>
0

>  <SCORE.RESTR.CAVITY>
0

>  <SCORE.RESTR.norm>
0

>  <SCORE.SYSTEM>
0

>  <SCORE.SYSTEM.CONST>
0

>  <SCORE.SYSTEM.DIHEDRAL>
0

>  <SCORE.SYSTEM.SOLV>
0

>  <SCORE.SYSTEM.norm>
0

>  <SCORE.heavy>
42

>  <SCORE.norm>
-0.911227

>  <RMSD>
2.053

$$$$
1NEM.B
 OpenBabel11021811403D
libRbt.so/2013.1/901 2013/11/27
 42 45  0  0  0  0  0  0  0  0999 V2000
    2.4381   -3.6446    2.6260 O   0  0  0  0  0  0  0  0  0  0  0  0
    2.3912   -2.2168    2.6604 C   0  0  0  0  0  0  0  0  0  0  0  0
    2.2809   -1.5881    1.2721 C   0  0  1  0  0  0  0  0  0  0  0  0
    0.9907   -1.8211    0.7149 O   0  0  0  0  0  0  0  0  0  0  0  0
    2.3985   -0.0724    1.2508 C   0  0  1  0  0  0  0  0  0  0  0  0
    3.7673    0.2510    1.5061 O   0  0  0  0  0  0  0  0  0  0  0  0
    1.8937    0.1849   -0.1566 C   0  0  1  0  0  0  0  0  0  0  0  0
    2.8187   -0.2632   -1.1529 O   0  0  0  0  0  0  0  0  0  0  0  0
    0.6587   -0.7235   -0.1356 C   0  0  2  0  0  0  0  0  0  0  0  0
    4.2005    0.1070    2.8285 C   0  0  2  0  0  0  0  0  0  0  0  0
    3.7248    1.3123    3.6509 C   0  0  2  0  0  0  0  0  0  0  0  0
    4.1484    2.5772    2.9945 N   0  3  0  0  0  0  0  0  0  0  0  0
    4.2354    1.2243    5.0928 C   0  0  1  0  0  0  0  0  0  0  0  0
    3.5577    0.1784    5.7765 O   0  0  0  0  0  0  0  0  0  0  0  0
    5.7452    0.9688    5.1301 C   0  0  2  0  0  0  0  0  0  0  0  0
    6.4510    2.1087    4.6563 O   0  0  0  0  0  0  0  0  0  0  0  0
    6.0815   -0.2464    4.2703 C   0  0  1  0  0  0  0  0  0  0  0  0
    5.6119   -0.0338    2.9249 O   0  0  0  0  0  0  0  0  0  0  0  0
    7.5697   -0.5414    4.2062 C   0  0  0  0  0  0  0  0  0  0  0  0
    8.0615   -1.1745    5.4501 N   0  3  0  0  0  0  0  0  0  0  0  0
   -4.2680   -3.2260    4.3369 C   0  0  0  0  0  0  0  0  0  0  0  0
   -1.6488   -2.5340    1.8094 C   0  0  2  0  0  0  0  0  0  0  0  0
   -1.0162   -3.9150    1.6558 C   0  0  2  0  0  0  0  0  0  0  0  0
   -0.2641   -3.9961    0.3809 N   0  3  0  0  0  0  0  0  0  0  0  0
   -2.0938   -4.9909    1.6748 C   0  0  1  0  0  0  0  0  0  0  0  0
   -1.4878   -6.2728    1.6096 O   0  0  0  0  0  0  0  0  0  0  0  0
   -2.9195   -4.8646    2.9532 C   0  0  2  0  0  0  0  0  0  0  0  0
   -3.9712   -5.8213    2.9463 O   0  0  0  0  0  0  0  0  0  0  0  0
   -4.4088   -1.7823    4.6349 N   0  3  0  0  0  0  0  0  0  0  0  0
   -3.5047   -3.4566    3.0443 C   0  0  2  0  0  0  0  0  0  0  0  0
   -2.4488   -2.4760    2.9874 O   0  0  0  0  0  0  0  0  0  0  0  0
   -3.4624    1.4604   -1.1654 C   0  0  2  0  0  0  0  0  0  0  0  0
   -3.8629    2.8776   -1.3218 N   0  3  0  0  0  0  0  0  0  0  0  0
   -4.5139    0.7080   -0.3576 C   0  0  0  0  0  0  0  0  0  0  0  0
   -4.1140   -0.7509   -0.1868 C   0  0  2  0  0  0  0  0  0  0  0  0
   -5.1553   -1.4108    0.5880 N   0  3  0  0  0  0  0  0  0  0  0  0
   -2.7667   -0.8380    0.5263 C   0  0  1  0  0  0  0  0  0  0  0  0
   -2.3823   -2.2203    0.6588 O   0  0  0  0  0  0  0  0  0  0  0  0
   -1.6859   -0.0805   -0.2574 C   0  0  2  0  0  0  0  0  0  0  0  0
   -0.4559   -0.0935    0.4920 O   0  0  0  0  0  0  0  0  0  0  0  0
   -2.0884    1.3714   -0.5033 C   0  0  1  0  0  0  0  0  0  0  0  0
   -1.1207    1.9977   -1.3350 O   0  0  0  0  0  0  0  0  0  0  0  0
  1  2  1  0  0  0  0
  3  2  1  1  0  0  0
  3  5  1  0  0  0  0
  3  4  1  0  0  0  0
  4  9  1  0  0  0  0
  5  7  1  0  0  0  0
  5  6  1  6  0  0  0
  7  9  1  0  0  0  0
  7  8  1  6  0  0  0
  9 40  1  1  0  0  0
 10  6  1  6  0  0  0
 10 11  1  0  0  0  0
 10 18  1  0  0  0  0
 11 13  1  0  0  0  0
 11 12  1  6  0  0  0
 13 15  1  0  0  0  0
 13 14  1  6  0  0  0
 15 17  1  0  0  0  0
 15 16  1  6  0  0  0
 17 19  1  6  0  0  0
 17 18  1  0  0  0  0
 19 20  1  0  0  0  0
 21 29  1  0  0  0  0
 22 23  1  0  0  0  0
 22 31  1  0  0  0  0
 22 38  1  6  0  0  0
 23 25  1  0  0  0  0
 23 24  1  6  0  0  0
 25 27  1  0  0  0  0
 25 26  1  1  0  0  0
 27 30  1  0  0  0  0
 27 28  1  6  0  0  0
 30 21  1  1  0  0  0
 30 31  1  0  0  0  0
 32 34  1  0  0  0  0
 32 41  1  0  0  0  0
 32 33  1  1  0  0  0
 34 35  1  0  0  0  0
 35 37  1  0  0  0  0
 35 36  1  1  0  0  0
 37 39  1  0  0  0  0
 37 38  1  6  0  0  0
 39 41  1  0  0  0  0
 39 40  1  1  0  0  0
 41 42  1  6  0  0  0
M  CHG  6  12   1  20   1  24   1  29   1  33   1  36   1
M  END
>  <CHROM.1>
-68.75804721,70.90297906,-74.89541755,-78.47421288,178.55918724,-117.55948607
-82.78755967,55.03542593,172.84451578,75.94777910,178.50657712,159.81402255
-115.87338777,-165.83758444,18.23444997,35.67138264,-67.66293809,94.94419874
176.49446693,-147.21155128,119.03099903,-57.99045333,0.47927183,-1.04965814
1.93115565,-0.05331154,0.37956614,2.58796009

>  <Name>
1NEM.B

>  <RI>
0

>  <Rbt.Current_Directory>
/home/itssahil/PROJECTS/Mol_Feturizer/New_Systems/rnas/1nem

>  <Rbt.Executable>
rbdock ($Id: //depot/dev/client3/rdock/2013.1/src/exe/rbdock.cxx#4 $)

>  <Rbt.Library>
libRbt.so (2013.1, Build901 2013/11/27)

>  <Rbt.Parameter_File>
/export/apps/rDock/src/rDock_2013.1_src/data/scripts/dock_solv.prm

>  <Rbt.Receptor>
prm/pocket_docking_5.prm

>  <SCORE>
-53.6665

>  <SCORE.INTER>
-64.7667

>  <SCORE.INTER.CONST>
1

>  <SCORE.INTER.POLAR>
-8.87528

>  <SCORE.INTER.ROT>
9

>  <SCORE.INTER.SOLV>
41.6286

>  <SCORE.INTER.VDW>
-37.0697

>  <SCORE.INTER.norm>
-1.54206

>  <SCORE.INTRA>
10.9274

>  <SCORE.INTRA.DIHEDRAL>
16.2946

>  <SCORE.INTRA.DIHEDRAL.0>
22.4324

>  <SCORE.INTRA.POLAR>
0.116531

>  <SCORE.INTRA.POLAR.0>
-1.83749

>  <SCORE.INTRA.REPUL>
0.00537332

>  <SCORE.INTRA.REPUL.0>
0

>  <SCORE.INTRA.SOLV>
-1.49597

>  <SCORE.INTRA.SOLV.lig_0>
-160.638

>  <SCORE.INTRA.VDW>
3.10503

>  <SCORE.INTRA.VDW.0>
-7.61953

>  <SCORE.INTRA.norm>
0.260177

>  <SCORE.RESTR>
0.172772

>  <SCORE.RESTR.CAVITY>
0.172772

>  <SCORE.RESTR.norm>
0.00411363

>  <SCORE.SYSTEM>
0

>  <SCORE.SYSTEM.CONST>
0

>  <SCORE.SYSTEM.DIHEDRAL>
0

>  <SCORE.SYSTEM.SOLV>
0

>  <SCORE.SYSTEM.norm>
0

>  <SCORE.heavy>
42

>  <SCORE.norm>
-1.27777

>  <RMSD>
2.053

$$$$
1NEM.B
 OpenBabel11021811403D
libRbt.so/2013.1/901 2013/11/27
 42 45  0  0  0  0  0  0  0  0999 V2000
    2.8663   -3.2094    2.4350 O   0  0  0  0  0  0  0  0  0  0  0  0
    2.3411   -3.0629    1.1141 C   0  0  0  0  0  0  0  0  0  0  0  0
    2.1707   -1.6030    0.6966 C   0  0  1  0  0  0  0  0  0  0  0  0
    1.0032   -1.4411   -0.1037 O   0  0  0  0  0  0  0  0  0  0  0  0
    1.9382   -0.6369    1.8473 C   0  0  1  0  0  0  0  0  0  0  0  0
    3.1788   -0.4997    2.5439 O   0  0  0  0  0  0  0  0  0  0  0  0
    1.4708    0.5689    1.0540 C   0  0  1  0  0  0  0  0  0  0  0  0
    2.5306    1.1600    0.2947 O   0  0  0  0  0  0  0  0  0  0  0  0
    0.4784   -0.1321    0.1190 C   0  0  2  0  0  0  0  0  0  0  0  0
    3.0997   -0.0420    3.8636 C   0  0  2  0  0  0  0  0  0  0  0  0
    2.6717    1.4318    3.8632 C   0  0  2  0  0  0  0  0  0  0  0  0
    3.5725    2.2246    2.9854 N   0  3  0  0  0  0  0  0  0  0  0  0
    2.6365    1.9899    5.2897 C   0  0  1  0  0  0  0  0  0  0  0  0
    1.5455    1.4182    5.9994 O   0  0  0  0  0  0  0  0  0  0  0  0
    3.9436    1.6941    6.0315 C   0  0  2  0  0  0  0  0  0  0  0  0
    5.0120    2.4443    5.4678 O   0  0  0  0  0  0  0  0  0  0  0  0
    4.2544    0.2023    5.9490 C   0  0  1  0  0  0  0  0  0  0  0  0
    4.3240   -0.2032    4.5682 O   0  0  0  0  0  0  0  0  0  0  0  0
    5.5664   -0.1740    6.6146 C   0  0  0  0  0  0  0  0  0  0  0  0
    6.6385   -0.4173    5.6240 N   0  3  0  0  0  0  0  0  0  0  0  0
   -4.4948   -3.7888    4.3387 C   0  0  0  0  0  0  0  0  0  0  0  0
   -2.0131   -2.7216    1.8030 C   0  0  2  0  0  0  0  0  0  0  0  0
   -1.2802   -4.0345    1.5381 C   0  0  2  0  0  0  0  0  0  0  0  0
   -0.5621   -3.9690    0.2429 N   0  3  0  0  0  0  0  0  0  0  0  0
   -2.2701   -5.1913    1.5081 C   0  0  1  0  0  0  0  0  0  0  0  0
   -1.5688   -6.4136    1.3388 O   0  0  0  0  0  0  0  0  0  0  0  0
   -3.0649   -5.2177    2.8117 C   0  0  2  0  0  0  0  0  0  0  0  0
   -4.0390   -6.2523    2.7635 O   0  0  0  0  0  0  0  0  0  0  0  0
   -5.6396   -4.7274    4.3798 N   0  3  0  0  0  0  0  0  0  0  0  0
   -3.7545   -3.8701    3.0150 C   0  0  2  0  0  0  0  0  0  0  0  0
   -2.7799   -2.8072    3.0012 O   0  0  0  0  0  0  0  0  0  0  0  0
   -3.5649    1.3604   -1.1477 C   0  0  2  0  0  0  0  0  0  0  0  0
   -3.8928    2.7952   -1.3122 N   0  3  0  0  0  0  0  0  0  0  0  0
   -4.7145    0.6395   -0.4528 C   0  0  0  0  0  0  0  0  0  0  0  0
   -4.3902   -0.8371   -0.2747 C   0  0  2  0  0  0  0  0  0  0  0  0
   -5.5231   -1.4655    0.3900 N   0  3  0  0  0  0  0  0  0  0  0  0
   -3.1179   -0.9910    0.5553 C   0  0  1  0  0  0  0  0  0  0  0  0
   -2.8024   -2.3900    0.6953 O   0  0  0  0  0  0  0  0  0  0  0  0
   -1.9410   -0.2667   -0.1129 C   0  0  2  0  0  0  0  0  0  0  0  0
   -0.7858   -0.3422    0.7441 O   0  0  0  0  0  0  0  0  0  0  0  0
   -2.2615    1.2043   -0.3661 C   0  0  1  0  0  0  0  0  0  0  0  0
   -1.1979    1.8029   -1.0948 O   0  0  0  0  0  0  0  0  0  0  0  0
  1  2  1  0  0  0  0
  3  2  1  1  0  0  0
  3  5  1  0  0  0  0
  3  4  1  0  0  0  0
  4  9  1  0  0  0  0
  5  7  1  0  0  0  0
  5  6  1  6  0  0  0
  7  9  1  0  0  0  0
  7  8  1  6  0  0  0
  9 40  1  1  0  0  0
 10  6  1  6  0  0  0
 10 11  1  0  0  0  0
 10 18  1  0  0  0  0
 11 13  1  0  0  0  0
 11 12  1  6  0  0  0
 13 15  1  0  0  0  0
 13 14  1  1  0  0  0
 15 17  1  0  0  0  0
 15 16  1  6  0  0  0
 17 19  1  6  0  0  0
 17 18  1  0  0  0  0
 19 20  1  0  0  0  0
 21 29  1  0  0  0  0
 22 23  1  0  0  0  0
 22 31  1  0  0  0  0
 22 38  1  6  0  0  0
 23 25  1  0  0  0  0
 23 24  1  6  0  0  0
 25 27  1  0  0  0  0
 25 26  1  1  0  0  0
 27 30  1  0  0  0  0
 27 28  1  6  0  0  0
 30 21  1  1  0  0  0
 30 31  1  0  0  0  0
 32 34  1  0  0  0  0
 32 41  1  0  0  0  0
 32 33  1  1  0  0  0
 34 35  1  0  0  0  0
 35 37  1  0  0  0  0
 35 36  1  1  0  0  0
 37 39  1  0  0  0  0
 37 38  1  6  0  0  0
 39 41  1  0  0  0  0
 39 40  1  1  0  0  0
 41 42  1  6  0  0  0
M  CHG  6  12   1  20   1  24   1  29   1  33   1  36   1
M  END
>  <CHROM.1>
-169.37885187,-143.69533648,-158.91776079,-69.55843723,164.69306137,-98.99503853
56.72672931,-99.54142270,172.20829805,-103.37836216,-134.03903006,-66.16801479
174.50818337,-156.28348390,-94.75029811,-73.06619703,-65.97151349,-135.00967100
-79.80738681,-156.48133435,159.70345549,162.53391836,-0.08571689,-1.10006918
2.16027222,-0.14167564,0.52961538,2.61800230

>  <Name>
1NEM.B

>  <RI>
0

>  <Rbt.Current_Directory>
/home/itssahil/PROJECTS/Mol_Feturizer/New_Systems/rnas/1nem

>  <Rbt.Executable>
rbdock ($Id: //depot/dev/client3/rdock/2013.1/src/exe/rbdock.cxx#4 $)

>  <Rbt.Library>
libRbt.so (2013.1, Build901 2013/11/27)

>  <Rbt.Parameter_File>
/export/apps/rDock/src/rDock_2013.1_src/data/scripts/dock_solv.prm

>  <Rbt.Receptor>
prm/blind_docking_40.prm

>  <SCORE>
-38.8948

>  <SCORE.INTER>
-55.1976

>  <SCORE.INTER.CONST>
1

>  <SCORE.INTER.POLAR>
-8.38503

>  <SCORE.INTER.ROT>
9

>  <SCORE.INTER.SOLV>
37.7057

>  <SCORE.INTER.VDW>
-31.0168

>  <SCORE.INTER.norm>
-1.31423

>  <SCORE.INTRA>
8.89126

>  <SCORE.INTRA.DIHEDRAL>
19.411

>  <SCORE.INTRA.DIHEDRAL.0>
22.4324

>  <SCORE.INTRA.POLAR>
-1.60503

>  <SCORE.INTRA.POLAR.0>
-1.83749

>  <SCORE.INTRA.REPUL>
0

>  <SCORE.INTRA.REPUL.0>
0

>  <SCORE.INTRA.SOLV>
2.7799

>  <SCORE.INTRA.SOLV.lig_0>
-160.638

>  <SCORE.INTRA.VDW>
3.25289

>  <SCORE.INTRA.VDW.0>
-7.61953

>  <SCORE.INTRA.norm>
0.211697

>  <SCORE.RESTR>
7.41149

>  <SCORE.RESTR.CAVITY>
7.41149

>  <SCORE.RESTR.norm>
0.176464

>  <SCORE.SYSTEM>
0

>  <SCORE.SYSTEM.CONST>
0

>  <SCORE.SYSTEM.DIHEDRAL>
0

>  <SCORE.SYSTEM.SOLV>
0

>  <SCORE.SYSTEM.norm>
0

>  <SCORE.heavy>
42

>  <SCORE.norm>
-0.926067

>  <RMSD>
2.055

$$$$
1NEM.B
 OpenBabel11021811403D
libRbt.so/2013.1/901 2013/11/27
 42 45  0  0  0  0  0  0  0  0999 V2000
    2.7340   -3.5361    1.4894 O   0  0  0  0  0  0  0  0  0  0  0  0
    2.7726   -2.1333    1.7592 C   0  0  0  0  0  0  0  0  0  0  0  0
    2.2551   -1.2861    0.5977 C   0  0  1  0  0  0  0  0  0  0  0  0
    1.0126   -1.7929    0.1193 O   0  0  0  0  0  0  0  0  0  0  0  0
    1.9255    0.1533    0.9598 C   0  0  1  0  0  0  0  0  0  0  0  0
    3.1655    0.8344    1.1641 O   0  0  0  0  0  0  0  0  0  0  0  0
    1.1398    0.5359   -0.2804 C   0  0  1  0  0  0  0  0  0  0  0  0
    1.9745    0.6369   -1.4391 O   0  0  0  0  0  0  0  0  0  0  0  0
    0.2408   -0.7018   -0.3833 C   0  0  2  0  0  0  0  0  0  0  0  0
    4.0070    0.3050    2.1484 C   0  0  2  0  0  0  0  0  0  0  0  0
    3.2128    0.1234    3.4490 C   0  0  2  0  0  0  0  0  0  0  0  0
    2.5478    1.3993    3.8233 N   0  3  0  0  0  0  0  0  0  0  0  0
    4.1169   -0.3945    4.5724 C   0  0  1  0  0  0  0  0  0  0  0  0
    4.4746   -1.7455    4.3131 O   0  0  0  0  0  0  0  0  0  0  0  0
    5.3838    0.4572    4.6994 C   0  0  2  0  0  0  0  0  0  0  0  0
    5.0600    1.7552    5.1816 O   0  0  0  0  0  0  0  0  0  0  0  0
    6.0697    0.5627    3.3403 C   0  0  1  0  0  0  0  0  0  0  0  0
    5.1530    1.1150    2.3756 O   0  0  0  0  0  0  0  0  0  0  0  0
    7.3107    1.4376    3.3619 C   0  0  0  0  0  0  0  0  0  0  0  0
    6.9828    2.8546    3.6350 N   0  3  0  0  0  0  0  0  0  0  0  0
   -4.3824   -3.1954    5.1638 C   0  0  0  0  0  0  0  0  0  0  0  0
   -2.3430   -2.3760    2.1811 C   0  0  2  0  0  0  0  0  0  0  0  0
   -1.7812   -3.7497    1.8226 C   0  0  2  0  0  0  0  0  0  0  0  0
   -1.3162   -3.7625    0.4151 N   0  3  0  0  0  0  0  0  0  0  0  0
   -2.8493   -4.8188    2.0106 C   0  0  1  0  0  0  0  0  0  0  0  0
   -2.2933   -6.0982    1.7493 O   0  0  0  0  0  0  0  0  0  0  0  0
   -3.3847   -4.7604    3.4395 C   0  0  2  0  0  0  0  0  0  0  0  0
   -4.4309   -5.7092    3.6032 O   0  0  0  0  0  0  0  0  0  0  0  0
   -4.9580   -1.8515    5.3998 N   0  3  0  0  0  0  0  0  0  0  0  0
   -3.9128   -3.3566    3.7285 C   0  0  2  0  0  0  0  0  0  0  0  0
   -2.8755   -2.3804    3.5030 O   0  0  0  0  0  0  0  0  0  0  0  0
   -3.5266    1.5021   -1.1721 C   0  0  2  0  0  0  0  0  0  0  0  0
   -3.5230    2.9300   -1.5650 N   0  3  0  0  0  0  0  0  0  0  0  0
   -4.6235    1.2472   -0.1445 C   0  0  0  0  0  0  0  0  0  0  0  0
   -4.6376   -0.2173    0.2707 C   0  0  2  0  0  0  0  0  0  0  0  0
   -5.7032   -0.3937    1.2472 N   0  3  0  0  0  0  0  0  0  0  0  0
   -3.2845   -0.5993    0.8662 C   0  0  1  0  0  0  0  0  0  0  0  0
   -3.2968   -1.9934    1.2304 O   0  0  0  0  0  0  0  0  0  0  0  0
   -2.1549   -0.3449   -0.1415 C   0  0  2  0  0  0  0  0  0  0  0  0
   -0.8866   -0.6155    0.4854 O   0  0  0  0  0  0  0  0  0  0  0  0
   -2.1560    1.1020   -0.6284 C   0  0  1  0  0  0  0  0  0  0  0  0
   -1.1778    1.2603   -1.6475 O   0  0  0  0  0  0  0  0  0  0  0  0
  1  2  1  0  0  0  0
  3  2  1  1  0  0  0
  3  5  1  0  0  0  0
  3  4  1  0  0  0  0
  4  9  1  0  0  0  0
  5  7  1  0  0  0  0
  5  6  1  6  0  0  0
  7  9  1  0  0  0  0
  7  8  1  6  0  0  0
  9 40  1  1  0  0  0
 10  6  1  6  0  0  0
 10 11  1  0  0  0  0
 10 18  1  0  0  0  0
 11 13  1  0  0  0  0
 11 12  1  1  0  0  0
 13 15  1  0  0  0  0
 13 14  1  6  0  0  0
 15 17  1  0  0  0  0
 15 16  1  6  0  0  0
 17 19  1  1  0  0  0
 17 18  1  0  0  0  0
 19 20  1  0  0  0  0
 21 29  1  0  0  0  0
 22 23  1  0  0  0  0
 22 31  1  0  0  0  0
 22 38  1  6  0  0  0
 23 25  1  0  0  0  0
 23 24  1  6  0  0  0
 25 27  1  0  0  0  0
 25 26  1  1  0  0  0
 27 30  1  0  0  0  0
 27 28  1  6  0  0  0
 30 21  1  1  0  0  0
 30 31  1  0  0  0  0
 32 34  1  0  0  0  0
 32 41  1  0  0  0  0
 32 33  1  1  0  0  0
 34 35  1  0  0  0  0
 35 37  1  0  0  0  0
 35 36  1  1  0  0  0
 37 39  1  0  0  0  0
 37 38  1  6  0  0  0
 39 41  1  0  0  0  0
 39 40  1  1  0  0  0
 41 42  1  6  0  0  0
M  CHG  6  12   1  20   1  24   1  29   1  33   1  36   1
M  END
>  <CHROM.1>
176.36551088,48.12084264,-58.11405719,-51.26142235,-53.74024463,-139.43783556
-84.46561511,57.19769779,65.76851625,-66.12971106,-74.61742134,-176.86802287
160.53410965,-141.26608253,81.23712231,-65.28060922,-50.84307644,85.23424699
96.92654551,-158.81620343,167.23300712,-58.38857640,0.05619204,-0.88988654
1.83455608,-0.14852386,0.32299947,2.42642491

>  <Name>
1NEM.B

>  <RI>
0

>  <Rbt.Current_Directory>
/home/itssahil/PROJECTS/Mol_Feturizer/New_Systems/rnas/1nem

>  <Rbt.Executable>
rbdock ($Id: //depot/dev/client3/rdock/2013.1/src/exe/rbdock.cxx#4 $)

>  <Rbt.Library>
libRbt.so (2013.1, Build901 2013/11/27)

>  <Rbt.Parameter_File>
/export/apps/rDock/src/rDock_2013.1_src/data/scripts/dock_solv.prm

>  <Rbt.Receptor>
prm/pocket_docking_2.prm

>  <SCORE>
-47.6022

>  <SCORE.INTER>
-56.6819

>  <SCORE.INTER.CONST>
1

>  <SCORE.INTER.POLAR>
-8.24929

>  <SCORE.INTER.ROT>
9

>  <SCORE.INTER.SOLV>
41.8032

>  <SCORE.INTER.VDW>
-33.8247

>  <SCORE.INTER.norm>
-1.34957

>  <SCORE.INTRA>
8.04128

>  <SCORE.INTRA.DIHEDRAL>
1.27389

>  <SCORE.INTRA.DIHEDRAL.0>
22.4324

>  <SCORE.INTRA.POLAR>
-0.746845

>  <SCORE.INTRA.POLAR.0>
-1.83749

>  <SCORE.INTRA.REPUL>
0

>  <SCORE.INTRA.REPUL.0>
0

>  <SCORE.INTRA.SOLV>
0.49521

>  <SCORE.INTRA.SOLV.lig_0>
-160.638

>  <SCORE.INTRA.VDW>
9.696

>  <SCORE.INTRA.VDW.0>
-7.61953

>  <SCORE.INTRA.norm>
0.191459

>  <SCORE.RESTR>
1.03843

>  <SCORE.RESTR.CAVITY>
1.03843

>  <SCORE.RESTR.norm>
0.0247246

>  <SCORE.SYSTEM>
0

>  <SCORE.SYSTEM.CONST>
0

>  <SCORE.SYSTEM.DIHEDRAL>
0

>  <SCORE.SYSTEM.SOLV>
0

>  <SCORE.SYSTEM.norm>
0

>  <SCORE.heavy>
42

>  <SCORE.norm>
-1.13338

>  <RMSD>
2.067

$$$$
1NEM.B
 OpenBabel11021811403D
libRbt.so/2013.1/901 2013/11/27
 42 45  0  0  0  0  0  0  0  0999 V2000
    1.9921   -2.3700    2.3090 O   0  0  0  0  0  0  0  0  0  0  0  0
    2.8999   -2.0671    1.2477 C   0  0  0  0  0  0  0  0  0  0  0  0
    2.3254   -1.0807    0.2321 C   0  0  1  0  0  0  0  0  0  0  0  0
    1.0769   -1.5465   -0.2717 O   0  0  0  0  0  0  0  0  0  0  0  0
    1.9808    0.2866    0.8006 C   0  0  1  0  0  0  0  0  0  0  0  0
    3.2137    0.9629    1.0574 O   0  0  0  0  0  0  0  0  0  0  0  0
    1.1446    0.8175   -0.3487 C   0  0  1  0  0  0  0  0  0  0  0  0
    1.9357    1.0974   -1.5084 O   0  0  0  0  0  0  0  0  0  0  0  0
    0.2668   -0.4156   -0.5931 C   0  0  2  0  0  0  0  0  0  0  0  0
    4.0072    0.4347    2.0814 C   0  0  2  0  0  0  0  0  0  0  0  0
    3.1440    0.2235    3.3327 C   0  0  2  0  0  0  0  0  0  0  0  0
    2.4375    1.4836    3.6838 N   0  3  0  0  0  0  0  0  0  0  0  0
    3.9920   -0.2939    4.4992 C   0  0  1  0  0  0  0  0  0  0  0  0
    4.3866   -1.6356    4.2445 O   0  0  0  0  0  0  0  0  0  0  0  0
    5.2351    0.5765    4.7078 C   0  0  2  0  0  0  0  0  0  0  0  0
    4.8627    1.8628    5.1863 O   0  0  0  0  0  0  0  0  0  0  0  0
    5.9947    0.7106    3.3911 C   0  0  1  0  0  0  0  0  0  0  0  0
    5.1247    1.2602    2.3827 O   0  0  0  0  0  0  0  0  0  0  0  0
    7.2175    1.6052    3.4933 C   0  0  0  0  0  0  0  0  0  0  0  0
    6.8694    2.9651    3.9616 N   0  3  0  0  0  0  0  0  0  0  0  0
   -4.3991   -3.0868    4.9865 C   0  0  0  0  0  0  0  0  0  0  0  0
   -2.1728   -2.4394    2.0965 C   0  0  2  0  0  0  0  0  0  0  0  0
   -1.5837   -3.8283    1.8622 C   0  0  2  0  0  0  0  0  0  0  0  0
   -1.0279   -3.9255    0.4914 N   0  3  0  0  0  0  0  0  0  0  0  0
   -2.6576   -4.8920    2.0475 C   0  0  1  0  0  0  0  0  0  0  0  0
   -2.0809   -6.1809    1.9038 O   0  0  0  0  0  0  0  0  0  0  0  0
   -3.2852   -4.7487    3.4323 C   0  0  2  0  0  0  0  0  0  0  0  0
   -4.3362   -5.6936    3.5873 O   0  0  0  0  0  0  0  0  0  0  0  0
   -4.8997   -1.7007    5.1316 N   0  3  0  0  0  0  0  0  0  0  0  0
   -3.8363   -3.3337    3.5976 C   0  0  2  0  0  0  0  0  0  0  0  0
   -2.7903   -2.3654    3.3788 O   0  0  0  0  0  0  0  0  0  0  0  0
   -3.7259    1.4409   -1.1480 C   0  0  2  0  0  0  0  0  0  0  0  0
   -3.8778    2.8791   -1.4671 N   0  3  0  0  0  0  0  0  0  0  0  0
   -4.7541    1.0281   -0.1008 C   0  0  0  0  0  0  0  0  0  0  0  0
   -4.6081   -0.4485    0.2390 C   0  0  2  0  0  0  0  0  0  0  0  0
   -5.6148   -0.7778    1.2381 N   0  3  0  0  0  0  0  0  0  0  0  0
   -3.2031   -0.7205    0.7713 C   0  0  1  0  0  0  0  0  0  0  0  0
   -3.0641   -2.1246    1.0638 O   0  0  0  0  0  0  0  0  0  0  0  0
   -2.1416   -0.3058   -0.2570 C   0  0  2  0  0  0  0  0  0  0  0  0
   -0.8308   -0.4772    0.3151 O   0  0  0  0  0  0  0  0  0  0  0  0
   -2.3035    1.1552   -0.6688 C   0  0  1  0  0  0  0  0  0  0  0  0
   -1.3835    1.4598   -1.7087 O   0  0  0  0  0  0  0  0  0  0  0  0
  1  2  1  0  0  0  0
  3  2  1  1  0  0  0
  3  5  1  0  0  0  0
  3  4  1  0  0  0  0
  4  9  1  0  0  0  0
  5  7  1  0  0  0  0
  5  6  1  6  0  0  0
  7  9  1  0  0  0  0
  7  8  1  6  0  0  0
  9 40  1  1  0  0  0
 10  6  1  6  0  0  0
 10 11  1  0  0  0  0
 10 18  1  0  0  0  0
 11 13  1  0  0  0  0
 11 12  1  1  0  0  0
 13 15  1  0  0  0  0
 13 14  1  6  0  0  0
 15 17  1  0  0  0  0
 15 16  1  6  0  0  0
 17 19  1  1  0  0  0
 17 18  1  0  0  0  0
 19 20  1  0  0  0  0
 21 29  1  0  0  0  0
 22 23  1  0  0  0  0
 22 31  1  0  0  0  0
 22 38  1  6  0  0  0
 23 25  1  0  0  0  0
 23 24  1  6  0  0  0
 25 27  1  0  0  0  0
 25 26  1  1  0  0  0
 27 30  1  0  0  0  0
 27 28  1  6  0  0  0
 30 21  1  1  0  0  0
 30 31  1  0  0  0  0
 32 34  1  0  0  0  0
 32 41  1  0  0  0  0
 32 33  1  1  0  0  0
 34 35  1  0  0  0  0
 35 37  1  0  0  0  0
 35 36  1  1  0  0  0
 37 39  1  0  0  0  0
 37 38  1  6  0  0  0
 39 41  1  0  0  0  0
 39 40  1  1  0  0  0
 41 42  1  6  0  0  0
M  CHG  6  12   1  20   1  24   1  29   1  33   1  36   1
M  END
>  <CHROM.1>
-178.83583585,-54.33660751,-67.64419976,-49.54378416,66.96537977,-132.50908052
50.86548324,57.26058152,73.06564887,-57.60549958,156.53644488,178.74975013
-75.37238456,-151.58373061,-159.65083844,40.37508790,74.93706831,86.08348644
-166.16799932,-150.35363056,166.88396044,-63.20759816,0.04273822,-0.80926700
1.79501326,-0.15496874,0.34902388,2.41222029

>  <Name>
1NEM.B

>  <RI>
0

>  <Rbt.Current_Directory>
/home/itssahil/PROJECTS/Mol_Feturizer/New_Systems/rnas/1nem

>  <Rbt.Executable>
rbdock ($Id: //depot/dev/client3/rdock/2013.1/src/exe/rbdock.cxx#4 $)

>  <Rbt.Library>
libRbt.so (2013.1, Build901 2013/11/27)

>  <Rbt.Parameter_File>
/export/apps/rDock/src/rDock_2013.1_src/data/scripts/dock_solv.prm

>  <Rbt.Receptor>
prm/pocket_docking_2.prm

>  <SCORE>
-45.3229

>  <SCORE.INTER>
-53.8651

>  <SCORE.INTER.CONST>
1

>  <SCORE.INTER.POLAR>
-8.07099

>  <SCORE.INTER.ROT>
9

>  <SCORE.INTER.SOLV>
42.0087

>  <SCORE.INTER.VDW>
-32.6097

>  <SCORE.INTER.norm>
-1.2825

>  <SCORE.INTRA>
7.50525

>  <SCORE.INTRA.DIHEDRAL>
2.05331

>  <SCORE.INTRA.DIHEDRAL.0>
22.4324

>  <SCORE.INTRA.POLAR>
-0.0413588

>  <SCORE.INTRA.POLAR.0>
-1.83749

>  <SCORE.INTRA.REPUL>
0.055534

>  <SCORE.INTRA.REPUL.0>
0

>  <SCORE.INTRA.SOLV>
2.49533

>  <SCORE.INTRA.SOLV.lig_0>
-160.638

>  <SCORE.INTRA.VDW>
5.09389

>  <SCORE.INTRA.VDW.0>
-7.61953

>  <SCORE.INTRA.norm>
0.178697

>  <SCORE.RESTR>
1.03701

>  <SCORE.RESTR.CAVITY>
1.03701

>  <SCORE.RESTR.norm>
0.0246907

>  <SCORE.SYSTEM>
0

>  <SCORE.SYSTEM.CONST>
0

>  <SCORE.SYSTEM.DIHEDRAL>
0

>  <SCORE.SYSTEM.SOLV>
0

>  <SCORE.SYSTEM.norm>
0

>  <SCORE.heavy>
42

>  <SCORE.norm>
-1.07912

>  <RMSD>
2.070

$$$$
1NEM.B
 OpenBabel11021811403D
libRbt.so/2013.1/901 2013/11/27
 42 45  0  0  0  0  0  0  0  0999 V2000
    1.1137   -4.1555    2.6781 O   0  0  0  0  0  0  0  0  0  0  0  0
    2.3402   -3.8856    1.9963 C   0  0  0  0  0  0  0  0  0  0  0  0
    2.3301   -2.5511    1.2523 C   0  0  1  0  0  0  0  0  0  0  0  0
    1.1657   -2.4365    0.4395 O   0  0  0  0  0  0  0  0  0  0  0  0
    2.2485   -1.3257    2.1486 C   0  0  1  0  0  0  0  0  0  0  0  0
    3.5176   -1.1842    2.7911 O   0  0  0  0  0  0  0  0  0  0  0  0
    1.9022   -0.2866    1.0987 C   0  0  1  0  0  0  0  0  0  0  0  0
    3.0003   -0.0191    0.2202 O   0  0  0  0  0  0  0  0  0  0  0  0
    0.8057   -1.0575    0.3542 C   0  0  2  0  0  0  0  0  0  0  0  0
    3.5131   -0.5435    4.0348 C   0  0  2  0  0  0  0  0  0  0  0  0
    2.9328    0.8682    3.8747 C   0  0  2  0  0  0  0  0  0  0  0  0
    3.6590    1.6000    2.8035 N   0  3  0  0  0  0  0  0  0  0  0  0
    2.9709    1.6276    5.2049 C   0  0  1  0  0  0  0  0  0  0  0  0
    2.0174    1.0709    6.1001 O   0  0  0  0  0  0  0  0  0  0  0  0
    4.3651    1.5670    5.8364 C   0  0  2  0  0  0  0  0  0  0  0  0
    5.2910    2.3191    5.0623 O   0  0  0  0  0  0  0  0  0  0  0  0
    4.8236    0.1144    5.9298 C   0  0  1  0  0  0  0  0  0  0  0  0
    4.8075   -0.4848    4.6197 O   0  0  0  0  0  0  0  0  0  0  0  0
    6.2242   -0.0364    6.4970 C   0  0  0  0  0  0  0  0  0  0  0  0
    7.1301   -0.7299    5.5544 N   0  3  0  0  0  0  0  0  0  0  0  0
   -5.5825   -2.6961    4.7803 C   0  0  0  0  0  0  0  0  0  0  0  0
   -2.6303   -2.3220    2.5731 C   0  0  2  0  0  0  0  0  0  0  0  0
   -2.2257   -3.7806    2.3735 C   0  0  2  0  0  0  0  0  0  0  0  0
   -1.3664   -3.9151    1.1730 N   0  3  0  0  0  0  0  0  0  0  0  0
   -3.4643   -4.6508    2.2072 C   0  0  1  0  0  0  0  0  0  0  0  0
   -3.0786   -6.0125    2.1004 O   0  0  0  0  0  0  0  0  0  0  0  0
   -4.3884   -4.4591    3.4076 C   0  0  2  0  0  0  0  0  0  0  0  0
   -5.5790   -5.2151    3.2273 O   0  0  0  0  0  0  0  0  0  0  0  0
   -6.7670   -3.5830    4.8396 N   0  3  0  0  0  0  0  0  0  0  0  0
   -4.7354   -2.9785    3.5517 C   0  0  2  0  0  0  0  0  0  0  0  0
   -3.5300   -2.1960    3.6711 O   0  0  0  0  0  0  0  0  0  0  0  0
   -2.3549    1.6695   -0.8985 C   0  0  2  0  0  0  0  0  0  0  0  0
   -2.0058    3.0687   -1.2359 N   0  3  0  0  0  0  0  0  0  0  0  0
   -3.6101    1.6397   -0.0339 C   0  0  0  0  0  0  0  0  0  0  0  0
   -3.9799    0.2068    0.3229 C   0  0  2  0  0  0  0  0  0  0  0  0
   -5.1818    0.2476    1.1438 N   0  3  0  0  0  0  0  0  0  0  0  0
   -2.8274   -0.4524    1.0770 C   0  0  1  0  0  0  0  0  0  0  0  0
   -3.1740   -1.8165    1.3861 O   0  0  0  0  0  0  0  0  0  0  0  0
   -1.5432   -0.4301    0.2365 C   0  0  2  0  0  0  0  0  0  0  0  0
   -0.4545   -0.9630    1.0145 O   0  0  0  0  0  0  0  0  0  0  0  0
   -1.1821    0.9894   -0.1940 C   0  0  1  0  0  0  0  0  0  0  0  0
   -0.0628    0.9494   -1.0693 O   0  0  0  0  0  0  0  0  0  0  0  0
  1  2  1  0  0  0  0
  3  2  1  1  0  0  0
  3  5  1  0  0  0  0
  3  4  1  0  0  0  0
  4  9  1  0  0  0  0
  5  7  1  0  0  0  0
  5  6  1  6  0  0  0
  7  9  1  0  0  0  0
  7  8  1  6  0  0  0
  9 40  1  1  0  0  0
 10  6  1  6  0  0  0
 10 11  1  0  0  0  0
 10 18  1  0  0  0  0
 11 13  1  0  0  0  0
 11 12  1  6  0  0  0
 13 15  1  0  0  0  0
 13 14  1  1  0  0  0
 15 17  1  0  0  0  0
 15 16  1  6  0  0  0
 17 19  1  6  0  0  0
 17 18  1  0  0  0  0
 19 20  1  0  0  0  0
 21 29  1  0  0  0  0
 22 23  1  0  0  0  0
 22 31  1  0  0  0  0
 22 38  1  6  0  0  0
 23 25  1  0  0  0  0
 23 24  1  6  0  0  0
 25 27  1  0  0  0  0
 25 26  1  1  0  0  0
 27 30  1  0  0  0  0
 27 28  1  6  0  0  0
 30 21  1  1  0  0  0
 30 31  1  0  0  0  0
 32 34  1  0  0  0  0
 32 41  1  0  0  0  0
 32 33  1  1  0  0  0
 34 35  1  0  0  0  0
 35 37  1  0  0  0  0
 35 36  1  1  0  0  0
 37 39  1  0  0  0  0
 37 38  1  6  0  0  0
 39 41  1  0  0  0  0
 39 40  1  1  0  0  0
 41 42  1  6  0  0  0
M  CHG  6  12   1  20   1  24   1  29   1  33   1  36   1
M  END
>  <CHROM.1>
175.11448430,-50.06934235,-152.82931907,-58.91415413,84.32137919,-122.50882959
177.67432099,79.26848862,78.73297748,-121.36170859,-69.42199491,-51.42875570
-83.68186096,-141.76255029,-172.05845328,59.66251778,59.81148170,52.95899548
159.49028695,-148.33199654,177.71703528,76.49865942,-0.07375687,-1.11612954
2.48144672,-0.07998422,0.38808989,2.42003538

>  <Name>
1NEM.B

>  <RI>
0

>  <Rbt.Current_Directory>
/home/itssahil/PROJECTS/Mol_Feturizer/New_Systems/rnas/1nem

>  <Rbt.Executable>
rbdock ($Id: //depot/dev/client3/rdock/2013.1/src/exe/rbdock.cxx#4 $)

>  <Rbt.Library>
libRbt.so (2013.1, Build901 2013/11/27)

>  <Rbt.Parameter_File>
/export/apps/rDock/src/rDock_2013.1_src/data/scripts/dock_solv.prm

>  <Rbt.Receptor>
prm/pocket_docking_2.prm

>  <SCORE>
-45.7343

>  <SCORE.INTER>
-54.5033

>  <SCORE.INTER.CONST>
1

>  <SCORE.INTER.POLAR>
-6.13647

>  <SCORE.INTER.ROT>
9

>  <SCORE.INTER.SOLV>
28.563

>  <SCORE.INTER.VDW>
-35.0016

>  <SCORE.INTER.norm>
-1.2977

>  <SCORE.INTRA>
6.44315

>  <SCORE.INTRA.DIHEDRAL>
12.7962

>  <SCORE.INTRA.DIHEDRAL.0>
22.4324

>  <SCORE.INTRA.POLAR>
-2.21221

>  <SCORE.INTRA.POLAR.0>
-1.83749

>  <SCORE.INTRA.REPUL>
0.0307023

>  <SCORE.INTRA.REPUL.0>
0

>  <SCORE.INTRA.SOLV>
5.16078

>  <SCORE.INTRA.SOLV.lig_0>
-160.638

>  <SCORE.INTRA.VDW>
4.83265

>  <SCORE.INTRA.VDW.0>
-7.61953

>  <SCORE.INTRA.norm>
0.153408

>  <SCORE.RESTR>
2.32581

>  <SCORE.RESTR.CAVITY>
2.32581

>  <SCORE.RESTR.norm>
0.0553764

>  <SCORE.SYSTEM>
0

>  <SCORE.SYSTEM.CONST>
0

>  <SCORE.SYSTEM.DIHEDRAL>
0

>  <SCORE.SYSTEM.SOLV>
0

>  <SCORE.SYSTEM.norm>
0

>  <SCORE.heavy>
42

>  <SCORE.norm>
-1.08891

>  <RMSD>
2.078

$$$$
1NEM.B
 OpenBabel11021811403D
libRbt.so/2013.1/901 2013/11/27
 42 45  0  0  0  0  0  0  0  0999 V2000
    2.6518   -4.0951    1.7207 O   0  0  0  0  0  0  0  0  0  0  0  0
    2.1980   -2.8040    2.1322 C   0  0  0  0  0  0  0  0  0  0  0  0
    1.9395   -1.8589    0.9598 C   0  0  1  0  0  0  0  0  0  0  0  0
    0.6464   -2.0850    0.4064 O   0  0  0  0  0  0  0  0  0  0  0  0
    1.9050   -0.3845    1.3291 C   0  0  1  0  0  0  0  0  0  0  0  0
    3.2483    0.0141    1.6118 O   0  0  0  0  0  0  0  0  0  0  0  0
    1.2903    0.1647    0.0554 C   0  0  1  0  0  0  0  0  0  0  0  0
    2.1911    0.0914   -1.0547 O   0  0  0  0  0  0  0  0  0  0  0  0
    0.1550   -0.8511   -0.1175 C   0  0  2  0  0  0  0  0  0  0  0  0
    3.6340   -0.0213    2.9562 C   0  0  2  0  0  0  0  0  0  0  0  0
    3.1545    1.2587    3.6541 C   0  0  2  0  0  0  0  0  0  0  0  0
    3.6245    2.4545    2.9061 N   0  3  0  0  0  0  0  0  0  0  0  0
    3.6144    1.2882    5.1152 C   0  0  1  0  0  0  0  0  0  0  0  0
    2.8938    0.3171    5.8625 O   0  0  0  0  0  0  0  0  0  0  0  0
    5.1169    1.0119    5.2276 C   0  0  2  0  0  0  0  0  0  0  0  0
    5.8603    2.0944    4.6821 O   0  0  0  0  0  0  0  0  0  0  0  0
    5.4581   -0.2789    4.4885 C   0  0  1  0  0  0  0  0  0  0  0  0
    5.0383   -0.1765    3.1140 O   0  0  0  0  0  0  0  0  0  0  0  0
    6.9416   -0.6030    4.5024 C   0  0  0  0  0  0  0  0  0  0  0  0
    7.4464   -0.8214    5.8763 N   0  3  0  0  0  0  0  0  0  0  0  0
   -3.8808   -2.8676    5.4593 C   0  0  0  0  0  0  0  0  0  0  0  0
   -2.3071   -2.3610    2.1436 C   0  0  2  0  0  0  0  0  0  0  0  0
   -1.8902   -3.7877    1.7949 C   0  0  2  0  0  0  0  0  0  0  0  0
   -1.6604   -3.9132    0.3358 N   0  3  0  0  0  0  0  0  0  0  0  0
   -2.9731   -4.7699    2.2211 C   0  0  1  0  0  0  0  0  0  0  0  0
   -2.5407   -6.0969    1.9628 O   0  0  0  0  0  0  0  0  0  0  0  0
   -3.2661   -4.5933    3.7093 C   0  0  2  0  0  0  0  0  0  0  0  0
   -4.3245   -5.4585    4.1001 O   0  0  0  0  0  0  0  0  0  0  0  0
   -5.0638   -3.5932    5.9761 N   0  3  0  0  0  0  0  0  0  0  0  0
   -3.6595   -3.1427    3.9822 C   0  0  2  0  0  0  0  0  0  0  0  0
   -2.6183   -2.2531    3.5302 O   0  0  0  0  0  0  0  0  0  0  0  0
   -3.5858    1.4765   -1.1417 C   0  0  2  0  0  0  0  0  0  0  0  0
   -3.6046    2.8972   -1.5593 N   0  3  0  0  0  0  0  0  0  0  0  0
   -4.7279    1.2041   -0.1692 C   0  0  0  0  0  0  0  0  0  0  0  0
   -4.7196   -0.2532    0.2707 C   0  0  2  0  0  0  0  0  0  0  0  0
   -5.8300   -0.4471    1.1924 N   0  3  0  0  0  0  0  0  0  0  0  0
   -3.3893   -0.5830    0.9436 C   0  0  1  0  0  0  0  0  0  0  0  0
   -3.3787   -1.9707    1.3315 O   0  0  0  0  0  0  0  0  0  0  0  0
   -2.2157   -0.3098   -0.0072 C   0  0  2  0  0  0  0  0  0  0  0  0
   -0.9751   -0.5304    0.6907 O   0  0  0  0  0  0  0  0  0  0  0  0
   -2.2347    1.1283   -0.5192 C   0  0  1  0  0  0  0  0  0  0  0  0
   -1.2087    1.3006   -1.4878 O   0  0  0  0  0  0  0  0  0  0  0  0
  1  2  1  0  0  0  0
  3  2  1  1  0  0  0
  3  5  1  0  0  0  0
  3  4  1  0  0  0  0
  4  9  1  0  0  0  0
  5  7  1  0  0  0  0
  5  6  1  6  0  0  0
  7  9  1  0  0  0  0
  7  8  1  6  0  0  0
  9 40  1  1  0  0  0
 10  6  1  6  0  0  0
 10 11  1  0  0  0  0
 10 18  1  0  0  0  0
 11 13  1  0  0  0  0
 11 12  1  6  0  0  0
 13 15  1  0  0  0  0
 13 14  1  1  0  0  0
 15 17  1  0  0  0  0
 15 16  1  6  0  0  0
 17 19  1  6  0  0  0
 17 18  1  0  0  0  0
 19 20  1  0  0  0  0
 21 29  1  0  0  0  0
 22 23  1  0  0  0  0
 22 31  1  0  0  0  0
 22 38  1  6  0  0  0
 23 25  1  0  0  0  0
 23 24  1  6  0  0  0
 25 27  1  0  0  0  0
 25 26  1  1  0  0  0
 27 30  1  0  0  0  0
 27 28  1  6  0  0  0
 30 21  1  1  0  0  0
 30 31  1  0  0  0  0
 32 34  1  0  0  0  0
 32 41  1  0  0  0  0
 32 33  1  1  0  0  0
 34 35  1  0  0  0  0
 35 37  1  0  0  0  0
 35 36  1  1  0  0  0
 37 39  1  0  0  0  0
 37 38  1  6  0  0  0
 39 41  1  0  0  0  0
 39 40  1  1  0  0  0
 41 42  1  6  0  0  0
M  CHG  6  12   1  20   1  24   1  29   1  33   1  36   1
M  END
>  <CHROM.1>
80.27607634,82.96087440,-94.77265314,-82.06931276,176.54154686,-124.60782638
170.67908997,-62.79188525,172.35317644,62.33201912,55.69569857,-66.83671300
178.48834402,-144.91922470,179.39839120,59.28317989,-43.52084153,-151.62274315
-25.59176777,-170.47035018,155.58612596,-59.80132402,-0.00958072,-1.06635694
2.15632904,-0.01462609,0.35439996,2.39176829

>  <Name>
1NEM.B

>  <RI>
0

>  <Rbt.Current_Directory>
/home/itssahil/PROJECTS/Mol_Feturizer/New_Systems/rnas/1nem

>  <Rbt.Executable>
rbdock ($Id: //depot/dev/client3/rdock/2013.1/src/exe/rbdock.cxx#4 $)

>  <Rbt.Library>
libRbt.so (2013.1, Build901 2013/11/27)

>  <Rbt.Parameter_File>
/export/apps/rDock/src/rDock_2013.1_src/data/scripts/dock_solv.prm

>  <Rbt.Receptor>
prm/pocket_docking_3.prm

>  <SCORE>
-60.0365

>  <SCORE.INTER>
-63.1295

>  <SCORE.INTER.CONST>
1

>  <SCORE.INTER.POLAR>
-8.86789

>  <SCORE.INTER.ROT>
9

>  <SCORE.INTER.SOLV>
36.8097

>  <SCORE.INTER.VDW>
-34.3966

>  <SCORE.INTER.norm>
-1.50308

>  <SCORE.INTRA>
3.09299

>  <SCORE.INTRA.DIHEDRAL>
8.64625

>  <SCORE.INTRA.DIHEDRAL.0>
22.4324

>  <SCORE.INTRA.POLAR>
-0.596925

>  <SCORE.INTRA.POLAR.0>
-1.83749

>  <SCORE.INTRA.REPUL>
0

>  <SCORE.INTRA.REPUL.0>
0

>  <SCORE.INTRA.SOLV>
-4.09924

>  <SCORE.INTRA.SOLV.lig_0>
-160.638

>  <SCORE.INTRA.VDW>
2.84903

>  <SCORE.INTRA.VDW.0>
-7.61953

>  <SCORE.INTRA.norm>
0.0736426

>  <SCORE.RESTR>
0

>  <SCORE.RESTR.CAVITY>
0

>  <SCORE.RESTR.norm>
0

>  <SCORE.SYSTEM>
0

>  <SCORE.SYSTEM.CONST>
0

>  <SCORE.SYSTEM.DIHEDRAL>
0

>  <SCORE.SYSTEM.SOLV>
0

>  <SCORE.SYSTEM.norm>
0

>  <SCORE.heavy>
42

>  <SCORE.norm>
-1.42944

>  <RMSD>
2.117

$$$$
1NEM.B
 OpenBabel11021811403D
libRbt.so/2013.1/901 2013/11/27
 42 45  0  0  0  0  0  0  0  0999 V2000
    2.6466   -4.2751    1.7392 O   0  0  0  0  0  0  0  0  0  0  0  0
    2.3456   -2.9314    2.1212 C   0  0  0  0  0  0  0  0  0  0  0  0
    2.2677   -1.9746    0.9324 C   0  0  1  0  0  0  0  0  0  0  0  0
    1.0260   -2.1202    0.2494 O   0  0  0  0  0  0  0  0  0  0  0  0
    2.2885   -0.5001    1.3023 C   0  0  1  0  0  0  0  0  0  0  0  0
    3.6185   -0.1862    1.7218 O   0  0  0  0  0  0  0  0  0  0  0  0
    1.8423    0.0837   -0.0250 C   0  0  1  0  0  0  0  0  0  0  0  0
    2.8450   -0.0488   -1.0381 O   0  0  0  0  0  0  0  0  0  0  0  0
    0.6689   -0.8590   -0.3167 C   0  0  2  0  0  0  0  0  0  0  0  0
    3.7947    0.0571    3.0882 C   0  0  2  0  0  0  0  0  0  0  0  0
    3.1861    1.4209    3.4420 C   0  0  2  0  0  0  0  0  0  0  0  0
    3.7385    2.4734    2.5490 N   0  3  0  0  0  0  0  0  0  0  0  0
    3.4165    1.7541    4.9196 C   0  0  1  0  0  0  0  0  0  0  0  0
    2.6117    0.9088    5.7310 O   0  0  0  0  0  0  0  0  0  0  0  0
    4.8898    1.5824    5.3019 C   0  0  2  0  0  0  0  0  0  0  0  0
    5.6838    2.5770    4.6674 O   0  0  0  0  0  0  0  0  0  0  0  0
    5.3684    0.1931    4.8901 C   0  0  1  0  0  0  0  0  0  0  0  0
    5.1615    0.0078    3.4763 O   0  0  0  0  0  0  0  0  0  0  0  0
    6.8391   -0.0453    5.1837 C   0  0  0  0  0  0  0  0  0  0  0  0
    7.2470   -1.4329    4.8707 N   0  3  0  0  0  0  0  0  0  0  0  0
   -5.3978   -1.5890    3.8579 C   0  0  0  0  0  0  0  0  0  0  0  0
   -2.7844   -2.1386    1.2898 C   0  0  2  0  0  0  0  0  0  0  0  0
   -2.9698   -3.6251    0.9950 C   0  0  2  0  0  0  0  0  0  0  0  0
   -2.3616   -3.9688   -0.3125 N   0  3  0  0  0  0  0  0  0  0  0  0
   -4.4519   -3.9741    0.9691 C   0  0  1  0  0  0  0  0  0  0  0  0
   -4.6087   -5.3709    0.7717 O   0  0  0  0  0  0  0  0  0  0  0  0
   -5.0989   -3.5539    2.2869 C   0  0  2  0  0  0  0  0  0  0  0  0
   -6.4962   -3.8130    2.2441 O   0  0  0  0  0  0  0  0  0  0  0  0
   -4.5475   -2.0476    4.9803 N   0  3  0  0  0  0  0  0  0  0  0  0
   -4.8584   -2.0635    2.5198 C   0  0  2  0  0  0  0  0  0  0  0  0
   -3.4445   -1.7804    2.5010 O   0  0  0  0  0  0  0  0  0  0  0  0
   -2.2329    2.5112   -1.1712 C   0  0  2  0  0  0  0  0  0  0  0  0
   -1.8842    3.9505   -1.1580 N   0  3  0  0  0  0  0  0  0  0  0  0
   -3.5861    2.2968   -0.5026 C   0  0  0  0  0  0  0  0  0  0  0  0
   -3.9568    0.8203   -0.5069 C   0  0  2  0  0  0  0  0  0  0  0  0
   -5.2535    0.6842    0.1412 N   0  3  0  0  0  0  0  0  0  0  0  0
   -2.8906    0.0170    0.2342 C   0  0  1  0  0  0  0  0  0  0  0  0
   -3.2342   -1.3819    0.2012 O   0  0  0  0  0  0  0  0  0  0  0  0
   -1.5115    0.2191   -0.4090 C   0  0  2  0  0  0  0  0  0  0  0  0
   -0.5152   -0.4659    0.3737 O   0  0  0  0  0  0  0  0  0  0  0  0
   -1.1397    1.6981   -0.4800 C   0  0  1  0  0  0  0  0  0  0  0  0
    0.0820    1.8464   -1.1914 O   0  0  0  0  0  0  0  0  0  0  0  0
  1  2  1  0  0  0  0
  3  2  1  1  0  0  0
  3  5  1  0  0  0  0
  3  4  1  0  0  0  0
  4  9  1  0  0  0  0
  5  7  1  0  0  0  0
  5  6  1  6  0  0  0
  7  9  1  0  0  0  0
  7  8  1  6  0  0  0
  9 40  1  1  0  0  0
 10  6  1  6  0  0  0
 10 11  1  0  0  0  0
 10 18  1  0  0  0  0
 11 13  1  0  0  0  0
 11 12  1  6  0  0  0
 13 15  1  0  0  0  0
 13 14  1  1  0  0  0
 15 17  1  0  0  0  0
 15 16  1  6  0  0  0
 17 19  1  6  0  0  0
 17 18  1  0  0  0  0
 19 20  1  0  0  0  0
 21 29  1  0  0  0  0
 22 23  1  0  0  0  0
 22 31  1  0  0  0  0
 22 38  1  6  0  0  0
 23 25  1  0  0  0  0
 23 24  1  6  0  0  0
 25 27  1  0  0  0  0
 25 26  1  1  0  0  0
 27 30  1  0  0  0  0
 27 28  1  6  0  0  0
 30 21  1  1  0  0  0
 30 31  1  0  0  0  0
 32 34  1  0  0  0  0
 32 41  1  0  0  0  0
 32 33  1  1  0  0  0
 34 35  1  0  0  0  0
 35 37  1  0  0  0  0
 35 36  1  1  0  0  0
 37 39  1  0  0  0  0
 37 38  1  6  0  0  0
 39 41  1  0  0  0  0
 39 40  1  1  0  0  0
 41 42  1  6  0  0  0
M  CHG  6  12   1  20   1  24   1  29   1  33   1  36   1
M  END
>  <CHROM.1>
-50.42568914,77.99217686,-108.84927744,-72.69055786,56.09332879,-143.23610255
-23.80317052,77.80565140,-71.60244830,175.58506996,-169.26082783,73.99115313
-27.22669813,-168.78155545,133.68127993,68.22808579,55.57250995,156.16686868
123.34925022,-150.78006481,154.86733861,66.91136012,-0.02133270,-0.61650371
1.72977786,-0.05576692,0.36615661,2.56931704

>  <Name>
1NEM.B

>  <RI>
0

>  <Rbt.Current_Directory>
/home/itssahil/PROJECTS/Mol_Feturizer/New_Systems/rnas/1nem

>  <Rbt.Executable>
rbdock ($Id: //depot/dev/client3/rdock/2013.1/src/exe/rbdock.cxx#4 $)

>  <Rbt.Library>
libRbt.so (2013.1, Build901 2013/11/27)

>  <Rbt.Parameter_File>
/export/apps/rDock/src/rDock_2013.1_src/data/scripts/dock_solv.prm

>  <Rbt.Receptor>
prm/pocket_docking_3.prm

>  <SCORE>
-46.5576

>  <SCORE.INTER>
-64.31

>  <SCORE.INTER.CONST>
1

>  <SCORE.INTER.POLAR>
-9.78675

>  <SCORE.INTER.ROT>
9

>  <SCORE.INTER.SOLV>
42.7661

>  <SCORE.INTER.VDW>
-34.1062

>  <SCORE.INTER.norm>
-1.53119

>  <SCORE.INTRA>
17.6054

>  <SCORE.INTRA.DIHEDRAL>
14.5086

>  <SCORE.INTRA.DIHEDRAL.0>
22.4324

>  <SCORE.INTRA.POLAR>
1.83491

>  <SCORE.INTRA.POLAR.0>
-1.83749

>  <SCORE.INTRA.REPUL>
0

>  <SCORE.INTRA.REPUL.0>
0

>  <SCORE.INTRA.SOLV>
-5.66778

>  <SCORE.INTRA.SOLV.lig_0>
-160.638

>  <SCORE.INTRA.VDW>
6.94632

>  <SCORE.INTRA.VDW.0>
-7.61953

>  <SCORE.INTRA.norm>
0.419177

>  <SCORE.RESTR>
0.147002

>  <SCORE.RESTR.CAVITY>
0.147002

>  <SCORE.RESTR.norm>
0.00350005

>  <SCORE.SYSTEM>
0

>  <SCORE.SYSTEM.CONST>
0

>  <SCORE.SYSTEM.DIHEDRAL>
0

>  <SCORE.SYSTEM.SOLV>
0

>  <SCORE.SYSTEM.norm>
0

>  <SCORE.heavy>
42

>  <SCORE.norm>
-1.10851

>  <RMSD>
2.141

$$$$
1NEM.B
 OpenBabel11021811403D
libRbt.so/2013.1/901 2013/11/27
 42 45  0  0  0  0  0  0  0  0999 V2000
    2.8751   -4.0691    2.9754 O   0  0  0  0  0  0  0  0  0  0  0  0
    1.7829   -3.9453    2.0622 C   0  0  0  0  0  0  0  0  0  0  0  0
    1.8067   -2.6359    1.2750 C   0  0  1  0  0  0  0  0  0  0  0  0
    0.6536   -2.5259    0.4456 O   0  0  0  0  0  0  0  0  0  0  0  0
    1.7394   -1.3804    2.1298 C   0  0  1  0  0  0  0  0  0  0  0  0
    3.0039   -1.2421    2.7817 O   0  0  0  0  0  0  0  0  0  0  0  0
    1.4246   -0.3699    1.0426 C   0  0  1  0  0  0  0  0  0  0  0  0
    2.5371   -0.1525    0.1684 O   0  0  0  0  0  0  0  0  0  0  0  0
    0.3214   -1.1438    0.3113 C   0  0  2  0  0  0  0  0  0  0  0  0
    3.0248   -0.4386    3.9268 C   0  0  2  0  0  0  0  0  0  0  0  0
    2.6931    1.0080    3.5359 C   0  0  2  0  0  0  0  0  0  0  0  0
    3.5951    1.4614    2.4445 N   0  3  0  0  0  0  0  0  0  0  0  0
    2.7698    1.9334    4.7546 C   0  0  1  0  0  0  0  0  0  0  0  0
    1.6836    1.6611    5.6302 O   0  0  0  0  0  0  0  0  0  0  0  0
    4.0927    1.7512    5.5049 C   0  0  2  0  0  0  0  0  0  0  0  0
    5.1758    2.2361    4.7214 O   0  0  0  0  0  0  0  0  0  0  0  0
    4.3020    0.2738    5.8249 C   0  0  1  0  0  0  0  0  0  0  0  0
    4.2718   -0.4955    4.6070 O   0  0  0  0  0  0  0  0  0  0  0  0
    5.6206   -0.0068    6.5239 C   0  0  0  0  0  0  0  0  0  0  0  0
    6.5887   -0.6779    5.6282 N   0  3  0  0  0  0  0  0  0  0  0  0
   -4.2054   -1.9312    4.7605 C   0  0  0  0  0  0  0  0  0  0  0  0
   -2.3296   -3.3652    1.9053 C   0  0  2  0  0  0  0  0  0  0  0  0
   -2.5518   -4.8592    2.1281 C   0  0  2  0  0  0  0  0  0  0  0  0
   -2.2932   -5.6089    0.8757 N   0  3  0  0  0  0  0  0  0  0  0  0
   -3.9825   -5.1150    2.5828 C   0  0  1  0  0  0  0  0  0  0  0  0
   -4.1539   -6.4962    2.8609 O   0  0  0  0  0  0  0  0  0  0  0  0
   -4.2776   -4.2870    3.8314 C   0  0  2  0  0  0  0  0  0  0  0  0
   -5.6328   -4.4670    4.2221 O   0  0  0  0  0  0  0  0  0  0  0  0
   -5.6079   -1.9517    5.2354 N   0  3  0  0  0  0  0  0  0  0  0  0
   -4.0184   -2.8108    3.5366 C   0  0  2  0  0  0  0  0  0  0  0  0
   -2.6635   -2.6272    3.0779 O   0  0  0  0  0  0  0  0  0  0  0  0
   -3.6072    0.9230   -0.8888 C   0  0  2  0  0  0  0  0  0  0  0  0
   -3.8594    2.3787   -0.9915 N   0  3  0  0  0  0  0  0  0  0  0  0
   -4.8012    0.2318   -0.2401 C   0  0  0  0  0  0  0  0  0  0  0  0
   -4.5549   -1.2661   -0.1259 C   0  0  2  0  0  0  0  0  0  0  0  0
   -5.7270   -1.8645    0.4971 N   0  3  0  0  0  0  0  0  0  0  0  0
   -3.3032   -1.5223    0.7101 C   0  0  1  0  0  0  0  0  0  0  0  0
   -3.0612   -2.9406    0.7897 O   0  0  0  0  0  0  0  0  0  0  0  0
   -2.0822   -0.8304    0.0885 C   0  0  2  0  0  0  0  0  0  0  0  0
   -0.9438   -1.0036    0.9538 O   0  0  0  0  0  0  0  0  0  0  0  0
   -2.3239    0.6651   -0.1010 C   0  0  1  0  0  0  0  0  0  0  0  0
   -1.2217    1.2402   -0.7900 O   0  0  0  0  0  0  0  0  0  0  0  0
  1  2  1  0  0  0  0
  3  2  1  1  0  0  0
  3  5  1  0  0  0  0
  3  4  1  0  0  0  0
  4  9  1  0  0  0  0
  5  7  1  0  0  0  0
  5  6  1  6  0  0  0
  7  9  1  0  0  0  0
  7  8  1  6  0  0  0
  9 40  1  1  0  0  0
 10  6  1  6  0  0  0
 10 11  1  0  0  0  0
 10 18  1  0  0  0  0
 11 13  1  0  0  0  0
 11 12  1  6  0  0  0
 13 15  1  0  0  0  0
 13 14  1  1  0  0  0
 15 17  1  0  0  0  0
 15 16  1  6  0  0  0
 17 19  1  6  0  0  0
 17 18  1  0  0  0  0
 19 20  1  0  0  0  0
 21 29  1  0  0  0  0
 22 23  1  0  0  0  0
 22 31  1  0  0  0  0
 22 38  1  6  0  0  0
 23 25  1  0  0  0  0
 23 24  1  6  0  0  0
 25 27  1  0  0  0  0
 25 26  1  1  0  0  0
 27 30  1  0  0  0  0
 27 28  1  6  0  0  0
 30 21  1  1  0  0  0
 30 31  1  0  0  0  0
 32 34  1  0  0  0  0
 32 41  1  0  0  0  0
 32 33  1  1  0  0  0
 34 35  1  0  0  0  0
 35 37  1  0  0  0  0
 35 36  1  1  0  0  0
 37 39  1  0  0  0  0
 37 38  1  6  0  0  0
 39 41  1  0  0  0  0
 39 40  1  1  0  0  0
 41 42  1  6  0  0  0
M  CHG  6  12   1  20   1  24   1  29   1  33   1  36   1
M  END
>  <CHROM.1>
-46.57290210,-176.25776771,-159.54241347,-64.70164544,66.47081737,-106.23438595
89.18890024,-174.32015756,-70.46801233,-107.37460036,38.73895954,-63.99551163
-136.21245000,160.62134722,140.75803581,64.16389991,-56.32749285,74.57101366
58.18927017,-155.13517150,145.51050772,66.08907902,-0.39633484,-1.34588057
2.41653479,-0.09655560,0.43621005,2.50446757

>  <Name>
1NEM.B

>  <RI>
0

>  <Rbt.Current_Directory>
/home/itssahil/PROJECTS/Mol_Feturizer/New_Systems/rnas/1nem

>  <Rbt.Executable>
rbdock ($Id: //depot/dev/client3/rdock/2013.1/src/exe/rbdock.cxx#4 $)

>  <Rbt.Library>
libRbt.so (2013.1, Build901 2013/11/27)

>  <Rbt.Parameter_File>
/export/apps/rDock/src/rDock_2013.1_src/data/scripts/dock_solv.prm

>  <Rbt.Receptor>
prm/blind_docking_20.prm

>  <SCORE>
-39.257

>  <SCORE.INTER>
-55.8978

>  <SCORE.INTER.CONST>
1

>  <SCORE.INTER.POLAR>
-7.16611

>  <SCORE.INTER.ROT>
9

>  <SCORE.INTER.SOLV>
42.187

>  <SCORE.INTER.VDW>
-37.0405

>  <SCORE.INTER.norm>
-1.3309

>  <SCORE.INTRA>
12.056

>  <SCORE.INTRA.DIHEDRAL>
10.9936

>  <SCORE.INTRA.DIHEDRAL.0>
22.4324

>  <SCORE.INTRA.POLAR>
0.643785

>  <SCORE.INTRA.POLAR.0>
-1.83749

>  <SCORE.INTRA.REPUL>
0

>  <SCORE.INTRA.REPUL.0>
0

>  <SCORE.INTRA.SOLV>
-0.194582

>  <SCORE.INTRA.SOLV.lig_0>
-160.638

>  <SCORE.INTRA.VDW>
4.4676

>  <SCORE.INTRA.VDW.0>
-7.61953

>  <SCORE.INTRA.norm>
0.287047

>  <SCORE.RESTR>
4.58485

>  <SCORE.RESTR.CAVITY>
4.58485

>  <SCORE.RESTR.norm>
0.109163

>  <SCORE.SYSTEM>
0

>  <SCORE.SYSTEM.CONST>
0

>  <SCORE.SYSTEM.DIHEDRAL>
0

>  <SCORE.SYSTEM.SOLV>
0

>  <SCORE.SYSTEM.norm>
0

>  <SCORE.heavy>
42

>  <SCORE.norm>
-0.934689

>  <RMSD>
2.150

$$$$
1NEM.B
 OpenBabel11021811403D
libRbt.so/2013.1/901 2013/11/27
 42 45  0  0  0  0  0  0  0  0999 V2000
    1.9962   -2.9535    0.9197 O   0  0  0  0  0  0  0  0  0  0  0  0
    3.0637   -2.1747    0.3758 C   0  0  0  0  0  0  0  0  0  0  0  0
    2.5824   -0.8998   -0.3154 C   0  0  1  0  0  0  0  0  0  0  0  0
    1.3155   -1.1091   -0.9323 O   0  0  0  0  0  0  0  0  0  0  0  0
    2.3226    0.2699    0.6205 C   0  0  1  0  0  0  0  0  0  0  0  0
    3.5942    0.7519    1.0610 O   0  0  0  0  0  0  0  0  0  0  0  0
    1.5512    1.1669   -0.3294 C   0  0  1  0  0  0  0  0  0  0  0  0
    2.3852    1.7070   -1.3598 O   0  0  0  0  0  0  0  0  0  0  0  0
    0.5943    0.1230   -0.9171 C   0  0  2  0  0  0  0  0  0  0  0  0
    4.2448   -0.0174    2.0316 C   0  0  2  0  0  0  0  0  0  0  0  0
    3.3242   -0.1808    3.2486 C   0  0  2  0  0  0  0  0  0  0  0  0
    2.8618    1.1509    3.7211 N   0  3  0  0  0  0  0  0  0  0  0  0
    4.0265   -0.9641    4.3625 C   0  0  1  0  0  0  0  0  0  0  0  0
    4.1646   -2.3248    3.9754 O   0  0  0  0  0  0  0  0  0  0  0  0
    5.4067   -0.3740    4.6677 C   0  0  2  0  0  0  0  0  0  0  0  0
    5.2738    0.9064    5.2719 O   0  0  0  0  0  0  0  0  0  0  0  0
    6.2128   -0.2595    3.3770 C   0  0  1  0  0  0  0  0  0  0  0  0
    5.4908    0.5439    2.4235 O   0  0  0  0  0  0  0  0  0  0  0  0
    7.5806    0.3686    3.5787 C   0  0  0  0  0  0  0  0  0  0  0  0
    7.4819    1.7835    4.0006 N   0  3  0  0  0  0  0  0  0  0  0  0
   -4.4056   -1.7602    4.5688 C   0  0  0  0  0  0  0  0  0  0  0  0
   -2.0899   -2.0635    1.6925 C   0  0  2  0  0  0  0  0  0  0  0  0
   -1.8954   -3.5765    1.6298 C   0  0  2  0  0  0  0  0  0  0  0  0
   -1.3874   -3.9737    0.2951 N   0  3  0  0  0  0  0  0  0  0  0  0
   -3.2153   -4.2869    1.8990 C   0  0  1  0  0  0  0  0  0  0  0  0
   -3.0059   -5.6906    1.9148 O   0  0  0  0  0  0  0  0  0  0  0  0
   -3.7801   -3.8247    3.2403 C   0  0  2  0  0  0  0  0  0  0  0  0
   -5.0460   -4.4310    3.4670 O   0  0  0  0  0  0  0  0  0  0  0  0
   -5.8573   -1.9807    4.7610 N   0  3  0  0  0  0  0  0  0  0  0  0
   -3.9311   -2.3047    3.2328 C   0  0  2  0  0  0  0  0  0  0  0  0
   -2.6637   -1.6819    2.9400 O   0  0  0  0  0  0  0  0  0  0  0  0
   -3.2826    2.0746   -1.4084 C   0  0  2  0  0  0  0  0  0  0  0  0
   -3.3355    3.5350   -1.6492 N   0  3  0  0  0  0  0  0  0  0  0  0
   -4.3353    1.6777   -0.3796 C   0  0  0  0  0  0  0  0  0  0  0  0
   -4.2910    0.1784   -0.1202 C   0  0  2  0  0  0  0  0  0  0  0  0
   -5.3164   -0.1343    0.8651 N   0  3  0  0  0  0  0  0  0  0  0  0
   -2.9073   -0.2178    0.3894 C   0  0  1  0  0  0  0  0  0  0  0  0
   -2.8650   -1.6419    0.6055 O   0  0  0  0  0  0  0  0  0  0  0  0
   -1.8212    0.1776   -0.6206 C   0  0  2  0  0  0  0  0  0  0  0  0
   -0.5245   -0.1140   -0.0654 O   0  0  0  0  0  0  0  0  0  0  0  0
   -1.8826    1.6664   -0.9527 C   0  0  1  0  0  0  0  0  0  0  0  0
   -0.9454    1.9625   -1.9796 O   0  0  0  0  0  0  0  0  0  0  0  0
  1  2  1  0  0  0  0
  3  2  1  1  0  0  0
  3  5  1  0  0  0  0
  3  4  1  0  0  0  0
  4  9  1  0  0  0  0
  5  7  1  0  0  0  0
  5  6  1  6  0  0  0
  7  9  1  0  0  0  0
  7  8  1  6  0  0  0
  9 40  1  1  0  0  0
 10  6  1  6  0  0  0
 10 11  1  0  0  0  0
 10 18  1  0  0  0  0
 11 13  1  0  0  0  0
 11 12  1  1  0  0  0
 13 15  1  0  0  0  0
 13 14  1  6  0  0  0
 15 17  1  0  0  0  0
 15 16  1  6  0  0  0
 17 19  1  1  0  0  0
 17 18  1  0  0  0  0
 19 20  1  0  0  0  0
 21 29  1  0  0  0  0
 22 23  1  0  0  0  0
 22 31  1  0  0  0  0
 22 38  1  6  0  0  0
 23 25  1  0  0  0  0
 23 24  1  6  0  0  0
 25 27  1  0  0  0  0
 25 26  1  1  0  0  0
 27 30  1  0  0  0  0
 27 28  1  6  0  0  0
 30 21  1  1  0  0  0
 30 31  1  0  0  0  0
 32 34  1  0  0  0  0
 32 41  1  0  0  0  0
 32 33  1  1  0  0  0
 34 35  1  0  0  0  0
 35 37  1  0  0  0  0
 35 36  1  1  0  0  0
 37 39  1  0  0  0  0
 37 38  1  6  0  0  0
 39 41  1  0  0  0  0
 39 40  1  1  0  0  0
 41 42  1  6  0  0  0
M  CHG  6  12   1  20   1  24   1  29   1  33   1  36   1
M  END
>  <CHROM.1>
87.58751462,-33.47184440,-76.02911676,-56.21258209,-175.30270020,-126.12746642
147.26159987,59.27792209,71.66732527,-65.61515232,-79.83952865,-77.04473922
-165.96207857,-168.20205192,-165.88186647,64.76278203,-51.25923281,20.79182633
-131.29186294,-144.81747071,176.36558976,68.34250012,0.15557361,-0.68705990
1.54131869,-0.02165325,0.25244523,2.35449064

>  <Name>
1NEM.B

>  <RI>
0

>  <Rbt.Current_Directory>
/home/itssahil/PROJECTS/Mol_Feturizer/New_Systems/rnas/1nem

>  <Rbt.Executable>
rbdock ($Id: //depot/dev/client3/rdock/2013.1/src/exe/rbdock.cxx#4 $)

>  <Rbt.Library>
libRbt.so (2013.1, Build901 2013/11/27)

>  <Rbt.Parameter_File>
/export/apps/rDock/src/rDock_2013.1_src/data/scripts/dock_solv.prm

>  <Rbt.Receptor>
prm/pocket_docking_6.prm

>  <SCORE>
-46.2965

>  <SCORE.INTER>
-58.6411

>  <SCORE.INTER.CONST>
1

>  <SCORE.INTER.POLAR>
-8.25062

>  <SCORE.INTER.ROT>
9

>  <SCORE.INTER.SOLV>
38.1377

>  <SCORE.INTER.VDW>
-33.9045

>  <SCORE.INTER.norm>
-1.39622

>  <SCORE.INTRA>
12.3445

>  <SCORE.INTRA.DIHEDRAL>
9.57734

>  <SCORE.INTRA.DIHEDRAL.0>
22.4324

>  <SCORE.INTRA.POLAR>
0.195516

>  <SCORE.INTRA.POLAR.0>
-1.83749

>  <SCORE.INTRA.REPUL>
0

>  <SCORE.INTRA.REPUL.0>
0

>  <SCORE.INTRA.SOLV>
1.15941

>  <SCORE.INTRA.SOLV.lig_0>
-160.638

>  <SCORE.INTRA.VDW>
6.31142

>  <SCORE.INTRA.VDW.0>
-7.61953

>  <SCORE.INTRA.norm>
0.293918

>  <SCORE.RESTR>
0

>  <SCORE.RESTR.CAVITY>
0

>  <SCORE.RESTR.norm>
0

>  <SCORE.SYSTEM>
0

>  <SCORE.SYSTEM.CONST>
0

>  <SCORE.SYSTEM.DIHEDRAL>
0

>  <SCORE.SYSTEM.SOLV>
0

>  <SCORE.SYSTEM.norm>
0

>  <SCORE.heavy>
42

>  <SCORE.norm>
-1.1023

>  <RMSD>
2.173

$$$$
1NEM.B
 OpenBabel11021811403D
libRbt.so/2013.1/901 2013/11/27
 42 45  0  0  0  0  0  0  0  0999 V2000
    2.3531   -4.6380    2.6354 O   0  0  0  0  0  0  0  0  0  0  0  0
    2.0713   -3.2587    2.8810 C   0  0  0  0  0  0  0  0  0  0  0  0
    2.0637   -2.4137    1.6080 C   0  0  1  0  0  0  0  0  0  0  0  0
    0.8114   -2.5239    0.9379 O   0  0  0  0  0  0  0  0  0  0  0  0
    2.2022   -0.9173    1.8389 C   0  0  1  0  0  0  0  0  0  0  0  0
    3.5546   -0.6715    2.2312 O   0  0  0  0  0  0  0  0  0  0  0  0
    1.7975   -0.4264    0.4616 C   0  0  1  0  0  0  0  0  0  0  0  0
    2.7822   -0.7313   -0.5317 O   0  0  0  0  0  0  0  0  0  0  0  0
    0.5522   -1.2968    0.2556 C   0  0  2  0  0  0  0  0  0  0  0  0
    3.7848    0.5037    2.9544 C   0  0  2  0  0  0  0  0  0  0  0  0
    4.9273    0.2686    3.9518 C   0  0  2  0  0  0  0  0  0  0  0  0
    4.6374   -0.9263    4.7875 N   0  3  0  0  0  0  0  0  0  0  0  0
    5.1672    1.5149    4.8101 C   0  0  1  0  0  0  0  0  0  0  0  0
    5.7452    2.5400    4.0127 O   0  0  0  0  0  0  0  0  0  0  0  0
    3.8600    2.0204    5.4284 C   0  0  2  0  0  0  0  0  0  0  0  0
    3.3868    1.1002    6.4038 O   0  0  0  0  0  0  0  0  0  0  0  0
    2.8122    2.2042    4.3343 C   0  0  1  0  0  0  0  0  0  0  0  0
    2.6213    0.9611    3.6313 O   0  0  0  0  0  0  0  0  0  0  0  0
    1.4628    2.6535    4.8666 C   0  0  0  0  0  0  0  0  0  0  0  0
    0.7915    3.5967    3.9448 N   0  3  0  0  0  0  0  0  0  0  0  0
   -0.7045   -4.6813    2.0038 C   0  0  0  0  0  0  0  0  0  0  0  0
   -2.8605   -2.4468   -0.0177 C   0  0  2  0  0  0  0  0  0  0  0  0
   -3.9682   -3.4093   -0.4392 C   0  0  2  0  0  0  0  0  0  0  0  0
   -5.1717   -2.6535   -0.8610 N   0  3  0  0  0  0  0  0  0  0  0  0
   -4.3311   -4.3307    0.7177 C   0  0  1  0  0  0  0  0  0  0  0  0
   -5.3054   -5.2702    0.2905 O   0  0  0  0  0  0  0  0  0  0  0  0
   -3.0791   -5.0568    1.2048 C   0  0  2  0  0  0  0  0  0  0  0  0
   -3.3963   -5.8668    2.3295 O   0  0  0  0  0  0  0  0  0  0  0  0
   -0.2811   -5.7153    1.0320 N   0  3  0  0  0  0  0  0  0  0  0  0
   -2.0144   -4.0322    1.5919 C   0  0  2  0  0  0  0  0  0  0  0  0
   -1.7321   -3.1643    0.4753 O   0  0  0  0  0  0  0  0  0  0  0  0
   -2.2068    2.0529   -1.0336 C   0  0  2  0  0  0  0  0  0  0  0  0
   -1.7883    3.4581   -1.2417 N   0  3  0  0  0  0  0  0  0  0  0  0
   -3.5499    2.0104   -0.3136 C   0  0  0  0  0  0  0  0  0  0  0  0
   -3.9920    0.5709   -0.0906 C   0  0  2  0  0  0  0  0  0  0  0  0
   -5.2755    0.5999    0.5963 N   0  3  0  0  0  0  0  0  0  0  0  0
   -2.9462   -0.1686    0.7404 C   0  0  1  0  0  0  0  0  0  0  0  0
   -3.3583   -1.5372    0.9230 O   0  0  0  0  0  0  0  0  0  0  0  0
   -1.5771   -0.1360    0.0470 C   0  0  2  0  0  0  0  0  0  0  0  0
   -0.5941   -0.7490    0.9029 O   0  0  0  0  0  0  0  0  0  0  0  0
   -1.1358    1.2948   -0.2509 C   0  0  1  0  0  0  0  0  0  0  0  0
    0.0716    1.2724   -1.0007 O   0  0  0  0  0  0  0  0  0  0  0  0
  1  2  1  0  0  0  0
  3  2  1  1  0  0  0
  3  5  1  0  0  0  0
  3  4  1  0  0  0  0
  4  9  1  0  0  0  0
  5  7  1  0  0  0  0
  5  6  1  6  0  0  0
  7  9  1  0  0  0  0
  7  8  1  6  0  0  0
  9 40  1  1  0  0  0
 10  6  1  1  0  0  0
 10 11  1  0  0  0  0
 10 18  1  0  0  0  0
 11 13  1  0  0  0  0
 11 12  1  1  0  0  0
 13 15  1  0  0  0  0
 13 14  1  6  0  0  0
 15 17  1  0  0  0  0
 15 16  1  1  0  0  0
 17 19  1  1  0  0  0
 17 18  1  0  0  0  0
 19 20  1  0  0  0  0
 21 29  1  0  0  0  0
 22 23  1  0  0  0  0
 22 31  1  0  0  0  0
 22 38  1  1  0  0  0
 23 25  1  0  0  0  0
 23 24  1  1  0  0  0
 25 27  1  0  0  0  0
 25 26  1  6  0  0  0
 27 30  1  0  0  0  0
 27 28  1  1  0  0  0
 30 21  1  6  0  0  0
 30 31  1  0  0  0  0
 32 34  1  0  0  0  0
 32 41  1  0  0  0  0
 32 33  1  1  0  0  0
 34 35  1  0  0  0  0
 35 37  1  0  0  0  0
 35 36  1  1  0  0  0
 37 39  1  0  0  0  0
 37 38  1  6  0  0  0
 39 41  1  0  0  0  0
 39 40  1  1  0  0  0
 41 42  1  6  0  0  0
M  CHG  6  12   1  20   1  24   1  29   1  33   1  36   1
M  END
>  <CHROM.1>
-111.58980877,81.94303472,-157.09183448,147.04503910,178.96640692,-139.53093263
-52.05408301,85.56968613,-99.13542944,143.76239066,-56.48149359,47.89608834
116.59347251,-137.46830557,-81.46954160,-164.80688286,-53.99417698,-84.11257362
2.03753849,93.31351885,155.08266432,-63.91541659,-0.05102047,-0.93278139
1.64900499,-0.40369626,0.50608185,3.04131040

>  <Name>
1NEM.B

>  <RI>
0

>  <Rbt.Current_Directory>
/home/itssahil/PROJECTS/Mol_Feturizer/New_Systems/rnas/1nem

>  <Rbt.Executable>
rbdock ($Id: //depot/dev/client3/rdock/2013.1/src/exe/rbdock.cxx#4 $)

>  <Rbt.Library>
libRbt.so (2013.1, Build901 2013/11/27)

>  <Rbt.Parameter_File>
/export/apps/rDock/src/rDock_2013.1_src/data/scripts/dock_solv.prm

>  <Rbt.Receptor>
prm/pocket_docking_4.prm

>  <SCORE>
-45.5301

>  <SCORE.INTER>
-79.4142

>  <SCORE.INTER.CONST>
1

>  <SCORE.INTER.POLAR>
-11.0284

>  <SCORE.INTER.ROT>
9

>  <SCORE.INTER.SOLV>
54.1707

>  <SCORE.INTER.VDW>
-43.8384

>  <SCORE.INTER.norm>
-1.89081

>  <SCORE.INTRA>
33.8709

>  <SCORE.INTRA.DIHEDRAL>
34.0783

>  <SCORE.INTRA.DIHEDRAL.0>
22.4324

>  <SCORE.INTRA.POLAR>
1.8163

>  <SCORE.INTRA.POLAR.0>
-1.83749

>  <SCORE.INTRA.REPUL>
0.551378

>  <SCORE.INTRA.REPUL.0>
0

>  <SCORE.INTRA.SOLV>
-0.550505

>  <SCORE.INTRA.SOLV.lig_0>
-160.638

>  <SCORE.INTRA.VDW>
8.17466

>  <SCORE.INTRA.VDW.0>
-7.61953

>  <SCORE.INTRA.norm>
0.80645

>  <SCORE.RESTR>
0.0131875

>  <SCORE.RESTR.CAVITY>
0.0131875

>  <SCORE.RESTR.norm>
0.000313988

>  <SCORE.SYSTEM>
0

>  <SCORE.SYSTEM.CONST>
0

>  <SCORE.SYSTEM.DIHEDRAL>
0

>  <SCORE.SYSTEM.SOLV>
0

>  <SCORE.SYSTEM.norm>
0

>  <SCORE.heavy>
42

>  <SCORE.norm>
-1.08405

>  <RMSD>
2.176

$$$$
1NEM.B
 OpenBabel11021811403D
libRbt.so/2013.1/901 2013/11/27
 42 45  0  0  0  0  0  0  0  0999 V2000
    2.2419   -5.6193    1.9076 O   0  0  0  0  0  0  0  0  0  0  0  0
    2.0656   -4.3548    2.5497 C   0  0  0  0  0  0  0  0  0  0  0  0
    1.7428   -3.2267    1.5711 C   0  0  1  0  0  0  0  0  0  0  0  0
    0.5151   -3.4823    0.8952 O   0  0  0  0  0  0  0  0  0  0  0  0
    1.5053   -1.8724    2.2200 C   0  0  1  0  0  0  0  0  0  0  0  0
    2.7732   -1.3882    2.6686 O   0  0  0  0  0  0  0  0  0  0  0  0
    0.8841   -1.1494    1.0397 C   0  0  1  0  0  0  0  0  0  0  0  0
    1.8362   -0.8909    0.0024 O   0  0  0  0  0  0  0  0  0  0  0  0
   -0.1045   -2.2323    0.5915 C   0  0  2  0  0  0  0  0  0  0  0  0
    2.7939   -0.0830    3.1720 C   0  0  2  0  0  0  0  0  0  0  0  0
    4.0512    0.6355    2.6639 C   0  0  2  0  0  0  0  0  0  0  0  0
    5.2611   -0.1691    2.9787 N   0  3  0  0  0  0  0  0  0  0  0  0
    4.1444    2.0494    3.2465 C   0  0  1  0  0  0  0  0  0  0  0  0
    3.1408    2.8722    2.6664 O   0  0  0  0  0  0  0  0  0  0  0  0
    3.9778    2.0321    4.7691 C   0  0  2  0  0  0  0  0  0  0  0  0
    5.0984    1.4066    5.3815 O   0  0  0  0  0  0  0  0  0  0  0  0
    2.6990    1.2849    5.1370 C   0  0  1  0  0  0  0  0  0  0  0  0
    2.7420   -0.0482    4.5922 O   0  0  0  0  0  0  0  0  0  0  0  0
    2.4812    1.1720    6.6356 C   0  0  0  0  0  0  0  0  0  0  0  0
    1.8297    2.3787    7.1917 N   0  3  0  0  0  0  0  0  0  0  0  0
   -5.5866   -2.9441    6.0723 C   0  0  0  0  0  0  0  0  0  0  0  0
   -3.3630   -3.4197    3.1472 C   0  0  2  0  0  0  0  0  0  0  0  0
   -3.4861   -4.9253    2.9259 C   0  0  2  0  0  0  0  0  0  0  0  0
   -3.0617   -5.2782    1.5501 N   0  3  0  0  0  0  0  0  0  0  0  0
   -4.9266   -5.3710    3.1393 C   0  0  1  0  0  0  0  0  0  0  0  0
   -5.0129   -6.7816    3.0072 O   0  0  0  0  0  0  0  0  0  0  0  0
   -5.3931   -4.9439    4.5291 C   0  0  2  0  0  0  0  0  0  0  0  0
   -6.7589   -5.2951    4.7102 O   0  0  0  0  0  0  0  0  0  0  0  0
   -4.6908   -1.8505    6.5137 N   0  3  0  0  0  0  0  0  0  0  0  0
   -5.2254   -3.4332    4.6806 C   0  0  2  0  0  0  0  0  0  0  0  0
   -3.8544   -3.0593    4.4355 O   0  0  0  0  0  0  0  0  0  0  0  0
   -3.0783    0.7955   -0.0409 C   0  0  2  0  0  0  0  0  0  0  0  0
   -2.5898    2.1610   -0.3413 N   0  3  0  0  0  0  0  0  0  0  0  0
   -4.1783    0.8557    1.0128 C   0  0  0  0  0  0  0  0  0  0  0  0
   -4.6889   -0.5421    1.3334 C   0  0  2  0  0  0  0  0  0  0  0  0
   -5.7333   -0.4154    2.3400 N   0  3  0  0  0  0  0  0  0  0  0  0
   -3.5402   -1.4074    1.8465 C   0  0  1  0  0  0  0  0  0  0  0  0
   -4.0257   -2.7361    2.1207 O   0  0  0  0  0  0  0  0  0  0  0  0
   -2.4093   -1.4808    0.8112 C   0  0  2  0  0  0  0  0  0  0  0  0
   -1.3014   -2.2151    1.3662 O   0  0  0  0  0  0  0  0  0  0  0  0
   -1.9203   -0.0889    0.4186 C   0  0  1  0  0  0  0  0  0  0  0  0
   -0.9648   -0.1995   -0.6280 O   0  0  0  0  0  0  0  0  0  0  0  0
  1  2  1  0  0  0  0
  3  2  1  1  0  0  0
  3  5  1  0  0  0  0
  3  4  1  0  0  0  0
  4  9  1  0  0  0  0
  5  7  1  0  0  0  0
  5  6  1  6  0  0  0
  7  9  1  0  0  0  0
  7  8  1  6  0  0  0
  9 40  1  1  0  0  0
 10  6  1  1  0  0  0
 10 11  1  0  0  0  0
 10 18  1  0  0  0  0
 11 13  1  0  0  0  0
 11 12  1  1  0  0  0
 13 15  1  0  0  0  0
 13 14  1  6  0  0  0
 15 17  1  0  0  0  0
 15 16  1  1  0  0  0
 17 19  1  1  0  0  0
 17 18  1  0  0  0  0
 19 20  1  0  0  0  0
 21 29  1  0  0  0  0
 22 23  1  0  0  0  0
 22 31  1  0  0  0  0
 22 38  1  6  0  0  0
 23 25  1  0  0  0  0
 23 24  1  6  0  0  0
 25 27  1  0  0  0  0
 25 26  1  1  0  0  0
 27 30  1  0  0  0  0
 27 28  1  6  0  0  0
 30 21  1  1  0  0  0
 30 31  1  0  0  0  0
 32 34  1  0  0  0  0
 32 41  1  0  0  0  0
 32 33  1  1  0  0  0
 34 35  1  0  0  0  0
 35 37  1  0  0  0  0
 35 36  1  1  0  0  0
 37 39  1  0  0  0  0
 37 38  1  6  0  0  0
 39 41  1  0  0  0  0
 39 40  1  1  0  0  0
 41 42  1  6  0  0  0
M  CHG  6  12   1  20   1  24   1  29   1  33   1  36   1
M  END
>  <CHROM.1>
-71.64071854,62.00406889,173.45195034,-138.64282795,6.39319080,-149.63938202
81.57246612,-167.99107895,-178.50997570,84.14645872,-175.75585370,142.93553736
-156.73964338,-154.00654267,119.43064800,-174.02749221,105.19992561,-66.91901235
55.05449624,-149.82596591,-172.51065783,-9.07673040,-0.80052621,-1.50915253
2.79660925,-0.47240933,-0.15948828,-2.75080578

>  <Name>
1NEM.B

>  <RI>
0

>  <Rbt.Current_Directory>
/home/itssahil/PROJECTS/Mol_Feturizer/New_Systems/rnas/1nem

>  <Rbt.Executable>
rbdock ($Id: //depot/dev/client3/rdock/2013.1/src/exe/rbdock.cxx#4 $)

>  <Rbt.Library>
libRbt.so (2013.1, Build901 2013/11/27)

>  <Rbt.Parameter_File>
/export/apps/rDock/src/rDock_2013.1_src/data/scripts/dock_solv.prm

>  <Rbt.Receptor>
prm/blind_docking_20.prm

>  <SCORE>
-9.96333

>  <SCORE.INTER>
-39.2042

>  <SCORE.INTER.CONST>
1

>  <SCORE.INTER.POLAR>
-4.51856

>  <SCORE.INTER.ROT>
9

>  <SCORE.INTER.SOLV>
42.8869

>  <SCORE.INTER.VDW>
-34.9699

>  <SCORE.INTER.norm>
-0.933434

>  <SCORE.INTRA>
23.1568

>  <SCORE.INTRA.DIHEDRAL>
26.7988

>  <SCORE.INTRA.DIHEDRAL.0>
22.4324

>  <SCORE.INTRA.POLAR>
1.60253

>  <SCORE.INTRA.POLAR.0>
-1.83749

>  <SCORE.INTRA.REPUL>
0

>  <SCORE.INTRA.REPUL.0>
0

>  <SCORE.INTRA.SOLV>
-6.78209

>  <SCORE.INTRA.SOLV.lig_0>
-160.638

>  <SCORE.INTRA.VDW>
7.69982

>  <SCORE.INTRA.VDW.0>
-7.61953

>  <SCORE.INTRA.norm>
0.551352

>  <SCORE.RESTR>
6.0841

>  <SCORE.RESTR.CAVITY>
6.0841

>  <SCORE.RESTR.norm>
0.14486

>  <SCORE.SYSTEM>
0

>  <SCORE.SYSTEM.CONST>
0

>  <SCORE.SYSTEM.DIHEDRAL>
0

>  <SCORE.SYSTEM.SOLV>
0

>  <SCORE.SYSTEM.norm>
0

>  <SCORE.heavy>
42

>  <SCORE.norm>
-0.237222

>  <RMSD>
2.204

$$$$
1NEM.B
 OpenBabel11021811403D
libRbt.so/2013.1/901 2013/11/27
 42 45  0  0  0  0  0  0  0  0999 V2000
    3.0023   -2.8143    3.5049 O   0  0  0  0  0  0  0  0  0  0  0  0
    2.6102   -1.4695    3.2226 C   0  0  0  0  0  0  0  0  0  0  0  0
    2.2597   -1.2445    1.7525 C   0  0  1  0  0  0  0  0  0  0  0  0
    1.0066   -1.8438    1.4361 O   0  0  0  0  0  0  0  0  0  0  0  0
    2.0549    0.2113    1.3647 C   0  0  1  0  0  0  0  0  0  0  0  0
    3.3415    0.8343    1.3588 O   0  0  0  0  0  0  0  0  0  0  0  0
    1.3963    0.0064    0.0134 C   0  0  1  0  0  0  0  0  0  0  0  0
    2.3120   -0.5021   -0.9625 O   0  0  0  0  0  0  0  0  0  0  0  0
    0.3849   -1.0777    0.4041 C   0  0  2  0  0  0  0  0  0  0  0  0
    3.9689    0.9692    2.6020 C   0  0  2  0  0  0  0  0  0  0  0  0
    4.3019    2.4479    2.8429 C   0  0  2  0  0  0  0  0  0  0  0  0
    5.0768    2.9899    1.6957 N   0  3  0  0  0  0  0  0  0  0  0  0
    5.0499    2.6297    4.1676 C   0  0  1  0  0  0  0  0  0  0  0  0
    4.1618    2.3986    5.2532 O   0  0  0  0  0  0  0  0  0  0  0  0
    6.2414    1.6721    4.2657 C   0  0  2  0  0  0  0  0  0  0  0  0
    7.2467    2.0369    3.3286 O   0  0  0  0  0  0  0  0  0  0  0  0
    5.7751    0.2436    3.9994 C   0  0  1  0  0  0  0  0  0  0  0  0
    5.1418    0.1727    2.7072 O   0  0  0  0  0  0  0  0  0  0  0  0
    6.9057   -0.7700    4.0234 C   0  0  0  0  0  0  0  0  0  0  0  0
    7.4471   -0.9614    5.3873 N   0  3  0  0  0  0  0  0  0  0  0  0
   -5.7864   -2.0796    4.3726 C   0  0  0  0  0  0  0  0  0  0  0  0
   -2.6813   -2.6404    2.4306 C   0  0  2  0  0  0  0  0  0  0  0  0
   -2.5376   -4.1567    2.5372 C   0  0  2  0  0  0  0  0  0  0  0  0
   -1.6428   -4.6637    1.4696 N   0  3  0  0  0  0  0  0  0  0  0  0
   -3.9011   -4.8232    2.4112 C   0  0  1  0  0  0  0  0  0  0  0  0
   -3.7642   -6.2246    2.5894 O   0  0  0  0  0  0  0  0  0  0  0  0
   -4.8491   -4.2500    3.4622 C   0  0  2  0  0  0  0  0  0  0  0  0
   -6.1437   -4.8170    3.3065 O   0  0  0  0  0  0  0  0  0  0  0  0
   -7.2046   -1.9941    3.9551 N   0  3  0  0  0  0  0  0  0  0  0  0
   -4.9287   -2.7330    3.3029 C   0  0  2  0  0  0  0  0  0  0  0  0
   -3.6109   -2.1548    3.3956 O   0  0  0  0  0  0  0  0  0  0  0  0
   -3.3429    1.3695   -1.0082 C   0  0  2  0  0  0  0  0  0  0  0  0
   -3.4852    2.8174   -1.2854 N   0  3  0  0  0  0  0  0  0  0  0  0
   -4.5671    0.8603   -0.2557 C   0  0  0  0  0  0  0  0  0  0  0  0
   -4.4336   -0.6273    0.0382 C   0  0  2  0  0  0  0  0  0  0  0  0
   -5.6296   -1.0497    0.7532 N   0  3  0  0  0  0  0  0  0  0  0  0
   -3.1815   -0.8790    0.8751 C   0  0  1  0  0  0  0  0  0  0  0  0
   -3.0471   -2.2917    1.1250 O   0  0  0  0  0  0  0  0  0  0  0  0
   -1.9294   -0.3678    0.1490 C   0  0  2  0  0  0  0  0  0  0  0  0
   -0.7831   -0.5247    1.0068 O   0  0  0  0  0  0  0  0  0  0  0  0
   -2.0608    1.1079   -0.2195 C   0  0  1  0  0  0  0  0  0  0  0  0
   -0.9381    1.5048   -0.9957 O   0  0  0  0  0  0  0  0  0  0  0  0
  1  2  1  0  0  0  0
  3  2  1  1  0  0  0
  3  5  1  0  0  0  0
  3  4  1  0  0  0  0
  4  9  1  0  0  0  0
  5  7  1  0  0  0  0
  5  6  1  6  0  0  0
  7  9  1  0  0  0  0
  7  8  1  6  0  0  0
  9 40  1  1  0  0  0
 10  6  1  6  0  0  0
 10 11  1  0  0  0  0
 10 18  1  0  0  0  0
 11 13  1  0  0  0  0
 11 12  1  6  0  0  0
 13 15  1  0  0  0  0
 13 14  1  1  0  0  0
 15 17  1  0  0  0  0
 15 16  1  6  0  0  0
 17 19  1  6  0  0  0
 17 18  1  0  0  0  0
 19 20  1  0  0  0  0
 21 29  1  0  0  0  0
 22 23  1  0  0  0  0
 22 31  1  0  0  0  0
 22 38  1  6  0  0  0
 23 25  1  0  0  0  0
 23 24  1  6  0  0  0
 25 27  1  0  0  0  0
 25 26  1  1  0  0  0
 27 30  1  0  0  0  0
 27 28  1  6  0  0  0
 30 21  1  1  0  0  0
 30 31  1  0  0  0  0
 32 34  1  0  0  0  0
 32 41  1  0  0  0  0
 32 33  1  1  0  0  0
 34 35  1  0  0  0  0
 35 37  1  0  0  0  0
 35 36  1  1  0  0  0
 37 39  1  0  0  0  0
 37 38  1  6  0  0  0
 39 41  1  0  0  0  0
 39 40  1  1  0  0  0
 41 42  1  6  0  0  0
M  CHG  6  12   1  20   1  24   1  29   1  33   1  36   1
M  END
>  <CHROM.1>
61.70520706,73.18125548,-67.62781660,-123.61271189,70.34465636,-146.32712934
51.81839602,-152.50100824,83.77937595,69.48299773,-39.75047178,-89.73162251
177.12608300,-178.35574450,-158.43510356,60.43426457,70.78666708,-17.13344440
-60.48765052,-137.06232287,134.43698193,73.49376815,-0.00181211,-0.79078396
2.05338168,-0.18530133,0.29624145,2.50620451

>  <Name>
1NEM.B

>  <RI>
0

>  <Rbt.Current_Directory>
/home/itssahil/PROJECTS/Mol_Feturizer/New_Systems/rnas/1nem

>  <Rbt.Executable>
rbdock ($Id: //depot/dev/client3/rdock/2013.1/src/exe/rbdock.cxx#4 $)

>  <Rbt.Library>
libRbt.so (2013.1, Build901 2013/11/27)

>  <Rbt.Parameter_File>
/export/apps/rDock/src/rDock_2013.1_src/data/scripts/dock_solv.prm

>  <Rbt.Receptor>
prm/pocket_docking_2.prm

>  <SCORE>
-31.7463

>  <SCORE.INTER>
-48.6814

>  <SCORE.INTER.CONST>
1

>  <SCORE.INTER.POLAR>
-6.94143

>  <SCORE.INTER.ROT>
9

>  <SCORE.INTER.SOLV>
33.8269

>  <SCORE.INTER.VDW>
-30.1918

>  <SCORE.INTER.norm>
-1.15908

>  <SCORE.INTRA>
13.5295

>  <SCORE.INTRA.DIHEDRAL>
18.1497

>  <SCORE.INTRA.DIHEDRAL.0>
22.4324

>  <SCORE.INTRA.POLAR>
0.898044

>  <SCORE.INTRA.POLAR.0>
-1.83749

>  <SCORE.INTRA.REPUL>
0

>  <SCORE.INTRA.REPUL.0>
0

>  <SCORE.INTRA.SOLV>
-2.79242

>  <SCORE.INTRA.SOLV.lig_0>
-160.638

>  <SCORE.INTRA.VDW>
2.79749

>  <SCORE.INTRA.VDW.0>
-7.61953

>  <SCORE.INTRA.norm>
0.32213

>  <SCORE.RESTR>
3.40562

>  <SCORE.RESTR.CAVITY>
3.40562

>  <SCORE.RESTR.norm>
0.0810862

>  <SCORE.SYSTEM>
0

>  <SCORE.SYSTEM.CONST>
0

>  <SCORE.SYSTEM.DIHEDRAL>
0

>  <SCORE.SYSTEM.SOLV>
0

>  <SCORE.SYSTEM.norm>
0

>  <SCORE.heavy>
42

>  <SCORE.norm>
-0.755865

>  <RMSD>
2.210

$$$$
1NEM.B
 OpenBabel11021811403D
libRbt.so/2013.1/901 2013/11/27
 42 45  0  0  0  0  0  0  0  0999 V2000
    2.1771   -5.5360    2.0358 O   0  0  0  0  0  0  0  0  0  0  0  0
    1.9271   -4.3119    2.7294 C   0  0  0  0  0  0  0  0  0  0  0  0
    1.9181   -3.0931    1.8079 C   0  0  1  0  0  0  0  0  0  0  0  0
    0.8212   -3.1557    0.9010 O   0  0  0  0  0  0  0  0  0  0  0  0
    1.7068   -1.7642    2.5156 C   0  0  1  0  0  0  0  0  0  0  0  0
    2.9104   -1.4655    3.2265 O   0  0  0  0  0  0  0  0  0  0  0  0
    1.4019   -0.8981    1.3077 C   0  0  1  0  0  0  0  0  0  0  0  0
    2.5558   -0.6906    0.4865 O   0  0  0  0  0  0  0  0  0  0  0  0
    0.4072   -1.8235    0.5970 C   0  0  2  0  0  0  0  0  0  0  0  0
    3.0934   -0.1294    3.5988 C   0  0  2  0  0  0  0  0  0  0  0  0
    4.4958    0.3268    3.1741 C   0  0  2  0  0  0  0  0  0  0  0  0
    5.5201   -0.6104    3.7060 N   0  3  0  0  0  0  0  0  0  0  0  0
    4.7598    1.7678    3.6227 C   0  0  1  0  0  0  0  0  0  0  0  0
    3.9676    2.6609    2.8511 O   0  0  0  0  0  0  0  0  0  0  0  0
    4.4405    1.9513    5.1095 C   0  0  2  0  0  0  0  0  0  0  0  0
    5.3766    1.2377    5.9075 O   0  0  0  0  0  0  0  0  0  0  0  0
    3.0264    1.4541    5.3960 C   0  0  1  0  0  0  0  0  0  0  0  0
    2.9055    0.0761    4.9929 O   0  0  0  0  0  0  0  0  0  0  0  0
    2.6436    1.5487    6.8625 C   0  0  0  0  0  0  0  0  0  0  0  0
    1.2877    1.0125    7.1152 N   0  3  0  0  0  0  0  0  0  0  0  0
   -7.8983   -2.8001    1.7159 C   0  0  0  0  0  0  0  0  0  0  0  0
   -4.3099   -2.5730    2.6098 C   0  0  2  0  0  0  0  0  0  0  0  0
   -4.0631   -3.9631    3.1910 C   0  0  2  0  0  0  0  0  0  0  0  0
   -2.6126   -4.2689    3.1916 N   0  3  0  0  0  0  0  0  0  0  0  0
   -4.7996   -5.0134    2.3703 C   0  0  1  0  0  0  0  0  0  0  0  0
   -4.6260   -6.2903    2.9651 O   0  0  0  0  0  0  0  0  0  0  0  0
   -6.2842   -4.6619    2.3045 C   0  0  2  0  0  0  0  0  0  0  0  0
   -6.9674   -5.5994    1.4825 O   0  0  0  0  0  0  0  0  0  0  0  0
   -8.7186   -3.6229    0.7977 N   0  3  0  0  0  0  0  0  0  0  0  0
   -6.4498   -3.2564    1.7298 C   0  0  2  0  0  0  0  0  0  0  0  0
   -5.7071   -2.3064    2.5209 O   0  0  0  0  0  0  0  0  0  0  0  0
   -2.5805    0.8482   -1.0612 C   0  0  2  0  0  0  0  0  0  0  0  0
   -2.1623    2.2123   -1.4580 N   0  3  0  0  0  0  0  0  0  0  0  0
   -3.8930    0.9099   -0.2880 C   0  0  0  0  0  0  0  0  0  0  0  0
   -4.3343   -0.4862    0.1287 C   0  0  2  0  0  0  0  0  0  0  0  0
   -5.5882   -0.3584    0.8578 N   0  3  0  0  0  0  0  0  0  0  0  0
   -3.2596   -1.1294    1.0019 C   0  0  1  0  0  0  0  0  0  0  0  0
   -3.6723   -2.4605    1.3686 O   0  0  0  0  0  0  0  0  0  0  0  0
   -1.9202   -1.1978    0.2552 C   0  0  2  0  0  0  0  0  0  0  0  0
   -0.9065   -1.7117    1.1401 O   0  0  0  0  0  0  0  0  0  0  0  0
   -1.4828    0.1803   -0.2346 C   0  0  1  0  0  0  0  0  0  0  0  0
   -0.3076    0.0522   -1.0239 O   0  0  0  0  0  0  0  0  0  0  0  0
  1  2  1  0  0  0  0
  3  2  1  1  0  0  0
  3  5  1  0  0  0  0
  3  4  1  0  0  0  0
  4  9  1  0  0  0  0
  5  7  1  0  0  0  0
  5  6  1  6  0  0  0
  7  9  1  0  0  0  0
  7  8  1  6  0  0  0
  9 40  1  1  0  0  0
 10  6  1  1  0  0  0
 10 11  1  0  0  0  0
 10 18  1  0  0  0  0
 11 13  1  0  0  0  0
 11 12  1  1  0  0  0
 13 15  1  0  0  0  0
 13 14  1  6  0  0  0
 15 17  1  0  0  0  0
 15 16  1  1  0  0  0
 17 19  1  1  0  0  0
 17 18  1  0  0  0  0
 19 20  1  0  0  0  0
 21 29  1  0  0  0  0
 22 23  1  0  0  0  0
 22 31  1  0  0  0  0
 22 38  1  6  0  0  0
 23 25  1  0  0  0  0
 23 24  1  6  0  0  0
 25 27  1  0  0  0  0
 25 26  1  1  0  0  0
 27 30  1  0  0  0  0
 27 28  1  6  0  0  0
 30 21  1  1  0  0  0
 30 31  1  0  0  0  0
 32 34  1  0  0  0  0
 32 41  1  0  0  0  0
 32 33  1  1  0  0  0
 34 35  1  0  0  0  0
 35 37  1  0  0  0  0
 35 36  1  1  0  0  0
 37 39  1  0  0  0  0
 37 38  1  6  0  0  0
 39 41  1  0  0  0  0
 39 40  1  1  0  0  0
 41 42  1  6  0  0  0
M  CHG  6  12   1  20   1  24   1  29   1  33   1  36   1
M  END
>  <CHROM.1>
-31.29525775,65.98428961,160.85592414,-130.33862221,171.14118622,-129.68229988
-59.69554849,66.33344174,-165.09677009,-177.84845017,-4.85091705,-65.32771657
38.29355274,-151.45314206,-154.07520050,-11.68986157,75.49227170,47.96246768
-10.93043671,-95.19353046,-179.34435690,76.38077190,-0.83496449,-1.42482387
2.23450926,-0.17423232,0.40961687,2.60053935

>  <Name>
1NEM.B

>  <RI>
0

>  <Rbt.Current_Directory>
/home/itssahil/PROJECTS/Mol_Feturizer/New_Systems/rnas/1nem

>  <Rbt.Executable>
rbdock ($Id: //depot/dev/client3/rdock/2013.1/src/exe/rbdock.cxx#4 $)

>  <Rbt.Library>
libRbt.so (2013.1, Build901 2013/11/27)

>  <Rbt.Parameter_File>
/export/apps/rDock/src/rDock_2013.1_src/data/scripts/dock_solv.prm

>  <Rbt.Receptor>
prm/blind_docking_60.prm

>  <SCORE>
-40.9278

>  <SCORE.INTER>
-64.6445

>  <SCORE.INTER.CONST>
1

>  <SCORE.INTER.POLAR>
-9.62881

>  <SCORE.INTER.ROT>
9

>  <SCORE.INTER.SOLV>
45.4323

>  <SCORE.INTER.VDW>
-35.7444

>  <SCORE.INTER.norm>
-1.53916

>  <SCORE.INTRA>
19.1515

>  <SCORE.INTRA.DIHEDRAL>
24.8873

>  <SCORE.INTRA.DIHEDRAL.0>
22.4324

>  <SCORE.INTRA.POLAR>
-0.525702

>  <SCORE.INTRA.POLAR.0>
-1.83749

>  <SCORE.INTRA.REPUL>
0

>  <SCORE.INTRA.REPUL.0>
0

>  <SCORE.INTRA.SOLV>
-1.68624

>  <SCORE.INTRA.SOLV.lig_0>
-160.638

>  <SCORE.INTRA.VDW>
9.3384

>  <SCORE.INTRA.VDW.0>
-7.61953

>  <SCORE.INTRA.norm>
0.455989

>  <SCORE.RESTR>
4.56524

>  <SCORE.RESTR.CAVITY>
4.56524

>  <SCORE.RESTR.norm>
0.108696

>  <SCORE.SYSTEM>
0

>  <SCORE.SYSTEM.CONST>
0

>  <SCORE.SYSTEM.DIHEDRAL>
0

>  <SCORE.SYSTEM.SOLV>
0

>  <SCORE.SYSTEM.norm>
0

>  <SCORE.heavy>
42

>  <SCORE.norm>
-0.974471

>  <RMSD>
2.211

$$$$
1NEM.B
 OpenBabel11021811403D
libRbt.so/2013.1/901 2013/11/27
 42 45  0  0  0  0  0  0  0  0999 V2000
    3.4139   -2.3616    0.2520 O   0  0  0  0  0  0  0  0  0  0  0  0
    3.1495   -1.2103    1.0562 C   0  0  0  0  0  0  0  0  0  0  0  0
    2.3844   -0.1202    0.3072 C   0  0  1  0  0  0  0  0  0  0  0  0
    1.3148   -0.6831   -0.4468 O   0  0  0  0  0  0  0  0  0  0  0  0
    1.6836    0.8910    1.2005 C   0  0  1  0  0  0  0  0  0  0  0  0
    2.6947    1.7203    1.7778 O   0  0  0  0  0  0  0  0  0  0  0  0
    0.7859    1.5408    0.1643 C   0  0  1  0  0  0  0  0  0  0  0  0
    1.5253    2.3349   -0.7695 O   0  0  0  0  0  0  0  0  0  0  0  0
    0.2584    0.2745   -0.5205 C   0  0  2  0  0  0  0  0  0  0  0  0
    3.4678    1.1396    2.7890 C   0  0  2  0  0  0  0  0  0  0  0  0
    2.6468    1.0828    4.0843 C   0  0  2  0  0  0  0  0  0  0  0  0
    2.1131    2.4317    4.4099 N   0  3  0  0  0  0  0  0  0  0  0  0
    3.4821    0.5117    5.2348 C   0  0  1  0  0  0  0  0  0  0  0  0
    3.7013   -0.8766    5.0227 O   0  0  0  0  0  0  0  0  0  0  0  0
    4.8286    1.2327    5.3513 C   0  0  2  0  0  0  0  0  0  0  0  0
    4.6356    2.5720    5.7884 O   0  0  0  0  0  0  0  0  0  0  0  0
    5.5347    1.2231    3.9985 C   0  0  1  0  0  0  0  0  0  0  0  0
    4.6889    1.8348    3.0053 O   0  0  0  0  0  0  0  0  0  0  0  0
    6.8588    1.9664    4.0086 C   0  0  0  0  0  0  0  0  0  0  0  0
    7.8117    1.3842    4.9796 N   0  3  0  0  0  0  0  0  0  0  0  0
   -4.4009   -2.9713    4.8049 C   0  0  0  0  0  0  0  0  0  0  0  0
   -2.1532   -2.3510    1.9257 C   0  0  2  0  0  0  0  0  0  0  0  0
   -1.5915   -3.7501    1.6844 C   0  0  2  0  0  0  0  0  0  0  0  0
   -1.0335   -3.8498    0.3146 N   0  3  0  0  0  0  0  0  0  0  0  0
   -2.6872   -4.7929    1.8598 C   0  0  1  0  0  0  0  0  0  0  0  0
   -2.1362   -6.0923    1.7096 O   0  0  0  0  0  0  0  0  0  0  0  0
   -3.3161   -4.6456    3.2435 C   0  0  2  0  0  0  0  0  0  0  0  0
   -4.3864   -5.5701    3.3894 O   0  0  0  0  0  0  0  0  0  0  0  0
   -4.6140   -1.5271    5.0536 N   0  3  0  0  0  0  0  0  0  0  0  0
   -3.8390   -3.2209    3.4161 C   0  0  2  0  0  0  0  0  0  0  0  0
   -2.7730   -2.2725    3.2065 O   0  0  0  0  0  0  0  0  0  0  0  0
   -3.7423    1.6209   -1.1923 C   0  0  2  0  0  0  0  0  0  0  0  0
   -3.9124    3.0674   -1.4606 N   0  3  0  0  0  0  0  0  0  0  0  0
   -4.7647    1.1586   -0.1602 C   0  0  0  0  0  0  0  0  0  0  0  0
   -4.6000   -0.3271    0.1273 C   0  0  2  0  0  0  0  0  0  0  0  0
   -5.6019   -0.7040    1.1145 N   0  3  0  0  0  0  0  0  0  0  0  0
   -3.1914   -0.6001    0.6495 C   0  0  1  0  0  0  0  0  0  0  0  0
   -3.0347   -2.0118    0.8923 O   0  0  0  0  0  0  0  0  0  0  0  0
   -2.1358   -0.1362   -0.3637 C   0  0  2  0  0  0  0  0  0  0  0  0
   -0.8226   -0.3112    0.2017 O   0  0  0  0  0  0  0  0  0  0  0  0
   -2.3162    1.3363   -0.7238 C   0  0  1  0  0  0  0  0  0  0  0  0
   -1.4007    1.6887   -1.7525 O   0  0  0  0  0  0  0  0  0  0  0  0
  1  2  1  0  0  0  0
  3  2  1  1  0  0  0
  3  5  1  0  0  0  0
  3  4  1  0  0  0  0
  4  9  1  0  0  0  0
  5  7  1  0  0  0  0
  5  6  1  6  0  0  0
  7  9  1  0  0  0  0
  7  8  1  6  0  0  0
  9 40  1  1  0  0  0
 10  6  1  6  0  0  0
 10 11  1  0  0  0  0
 10 18  1  0  0  0  0
 11 13  1  0  0  0  0
 11 12  1  1  0  0  0
 13 15  1  0  0  0  0
 13 14  1  6  0  0  0
 15 17  1  0  0  0  0
 15 16  1  6  0  0  0
 17 19  1  1  0  0  0
 17 18  1  0  0  0  0
 19 20  1  0  0  0  0
 21 29  1  0  0  0  0
 22 23  1  0  0  0  0
 22 31  1  0  0  0  0
 22 38  1  6  0  0  0
 23 25  1  0  0  0  0
 23 24  1  6  0  0  0
 25 27  1  0  0  0  0
 25 26  1  1  0  0  0
 27 30  1  0  0  0  0
 27 28  1  6  0  0  0
 30 21  1  1  0  0  0
 30 31  1  0  0  0  0
 32 34  1  0  0  0  0
 32 41  1  0  0  0  0
 32 33  1  1  0  0  0
 34 35  1  0  0  0  0
 35 37  1  0  0  0  0
 35 36  1  1  0  0  0
 37 39  1  0  0  0  0
 37 38  1  6  0  0  0
 39 41  1  0  0  0  0
 39 40  1  1  0  0  0
 41 42  1  6  0  0  0
M  CHG  6  12   1  20   1  24   1  29   1  33   1  36   1
M  END
>  <CHROM.1>
49.33209255,44.33523095,-73.90361308,-76.00916364,-50.67899757,-139.80464379
-140.33257850,60.60558523,61.09501944,59.82090885,-178.92653235,167.01669592
5.58992625,-154.34047873,-33.78483955,55.84856626,-58.65168920,79.65056657
-51.83254489,-149.49330561,-169.98776347,72.70466993,-0.01766612,-0.45816380
1.90858931,-0.10954713,0.43744075,2.41802298

>  <Name>
1NEM.B

>  <RI>
0

>  <Rbt.Current_Directory>
/home/itssahil/PROJECTS/Mol_Feturizer/New_Systems/rnas/1nem

>  <Rbt.Executable>
rbdock ($Id: //depot/dev/client3/rdock/2013.1/src/exe/rbdock.cxx#4 $)

>  <Rbt.Library>
libRbt.so (2013.1, Build901 2013/11/27)

>  <Rbt.Parameter_File>
/export/apps/rDock/src/rDock_2013.1_src/data/scripts/dock_solv.prm

>  <Rbt.Receptor>
prm/pocket_docking_2.prm

>  <SCORE>
-30.7671

>  <SCORE.INTER>
-46.3896

>  <SCORE.INTER.CONST>
1

>  <SCORE.INTER.POLAR>
-7.19386

>  <SCORE.INTER.ROT>
9

>  <SCORE.INTER.SOLV>
46.8643

>  <SCORE.INTER.VDW>
-32.1684

>  <SCORE.INTER.norm>
-1.10452

>  <SCORE.INTRA>
12.761

>  <SCORE.INTRA.DIHEDRAL>
4.63008

>  <SCORE.INTRA.DIHEDRAL.0>
22.4324

>  <SCORE.INTRA.POLAR>
1.68318

>  <SCORE.INTRA.POLAR.0>
-1.83749

>  <SCORE.INTRA.REPUL>
0

>  <SCORE.INTRA.REPUL.0>
0

>  <SCORE.INTRA.SOLV>
-4.32511

>  <SCORE.INTRA.SOLV.lig_0>
-160.638

>  <SCORE.INTRA.VDW>
6.88569

>  <SCORE.INTRA.VDW.0>
-7.61953

>  <SCORE.INTRA.norm>
0.303833

>  <SCORE.RESTR>
2.86157

>  <SCORE.RESTR.CAVITY>
2.86157

>  <SCORE.RESTR.norm>
0.0681325

>  <SCORE.SYSTEM>
0

>  <SCORE.SYSTEM.CONST>
0

>  <SCORE.SYSTEM.DIHEDRAL>
0

>  <SCORE.SYSTEM.SOLV>
0

>  <SCORE.SYSTEM.norm>
0

>  <SCORE.heavy>
42

>  <SCORE.norm>
-0.73255

>  <RMSD>
2.212

$$$$
1NEM.B
 OpenBabel11021811403D
libRbt.so/2013.1/901 2013/11/27
 42 45  0  0  0  0  0  0  0  0999 V2000
    1.2374   -2.7697    2.8697 O   0  0  0  0  0  0  0  0  0  0  0  0
    2.4418   -2.7480    2.1010 C   0  0  0  0  0  0  0  0  0  0  0  0
    2.3473   -1.8534    0.8659 C   0  0  1  0  0  0  0  0  0  0  0  0
    1.0627   -1.9652    0.2603 O   0  0  0  0  0  0  0  0  0  0  0  0
    2.4676   -0.3647    1.1502 C   0  0  1  0  0  0  0  0  0  0  0  0
    3.8341   -0.1041    1.4789 O   0  0  0  0  0  0  0  0  0  0  0  0
    1.9781    0.1715   -0.1820 C   0  0  1  0  0  0  0  0  0  0  0  0
    2.9129   -0.0712   -1.2386 O   0  0  0  0  0  0  0  0  0  0  0  0
    0.7415   -0.7180   -0.3561 C   0  0  2  0  0  0  0  0  0  0  0  0
    4.1711   -0.1885    2.8341 C   0  0  2  0  0  0  0  0  0  0  0  0
    3.5934    1.0246    3.5757 C   0  0  2  0  0  0  0  0  0  0  0  0
    4.0213    2.2822    2.9081 N   0  3  0  0  0  0  0  0  0  0  0  0
    3.9965    1.0030    5.0537 C   0  0  1  0  0  0  0  0  0  0  0  0
    3.3057   -0.0444    5.7219 O   0  0  0  0  0  0  0  0  0  0  0  0
    5.5072    0.8049    5.2119 C   0  0  2  0  0  0  0  0  0  0  0  0
    6.2069    1.9541    4.7516 O   0  0  0  0  0  0  0  0  0  0  0  0
    5.9491   -0.4244    4.4231 C   0  0  1  0  0  0  0  0  0  0  0  0
    5.5752   -0.2736    3.0398 O   0  0  0  0  0  0  0  0  0  0  0  0
    7.4472   -0.6661    4.4799 C   0  0  0  0  0  0  0  0  0  0  0  0
    7.8741   -1.1799    5.8004 N   0  3  0  0  0  0  0  0  0  0  0  0
   -6.1216   -1.8095    3.1417 C   0  0  0  0  0  0  0  0  0  0  0  0
   -2.8171   -1.9710    1.4739 C   0  0  2  0  0  0  0  0  0  0  0  0
   -2.6828   -3.4725    1.2321 C   0  0  2  0  0  0  0  0  0  0  0  0
   -1.6728   -3.7344    0.1791 N   0  3  0  0  0  0  0  0  0  0  0  0
   -4.0220   -4.0568    0.8028 C   0  0  1  0  0  0  0  0  0  0  0  0
   -3.9028   -5.4635    0.6566 O   0  0  0  0  0  0  0  0  0  0  0  0
   -5.0832   -3.7254    1.8496 C   0  0  2  0  0  0  0  0  0  0  0  0
   -6.3509   -4.2076    1.4229 O   0  0  0  0  0  0  0  0  0  0  0  0
   -5.5523   -2.0422    4.4888 N   0  3  0  0  0  0  0  0  0  0  0  0
   -5.1479   -2.2122    2.0478 C   0  0  2  0  0  0  0  0  0  0  0  0
   -3.8500   -1.7047    2.4190 O   0  0  0  0  0  0  0  0  0  0  0  0
   -2.3073    2.6124   -1.1897 C   0  0  2  0  0  0  0  0  0  0  0  0
   -2.0523    4.0712   -1.2036 N   0  3  0  0  0  0  0  0  0  0  0  0
   -3.6341    2.3219   -0.4974 C   0  0  0  0  0  0  0  0  0  0  0  0
   -3.9085    0.8248   -0.4737 C   0  0  2  0  0  0  0  0  0  0  0  0
   -5.1844    0.6158    0.1961 N   0  3  0  0  0  0  0  0  0  0  0  0
   -2.7821    0.1040    0.2632 C   0  0  1  0  0  0  0  0  0  0  0  0
   -3.0350   -1.3146    0.2566 O   0  0  0  0  0  0  0  0  0  0  0  0
   -1.4283    0.3841   -0.4039 C   0  0  2  0  0  0  0  0  0  0  0  0
   -0.3787   -0.2225    0.3739 O   0  0  0  0  0  0  0  0  0  0  0  0
   -1.1540    1.8826   -0.5030 C   0  0  1  0  0  0  0  0  0  0  0  0
    0.0453    2.0979   -1.2350 O   0  0  0  0  0  0  0  0  0  0  0  0
  1  2  1  0  0  0  0
  3  2  1  1  0  0  0
  3  5  1  0  0  0  0
  3  4  1  0  0  0  0
  4  9  1  0  0  0  0
  5  7  1  0  0  0  0
  5  6  1  6  0  0  0
  7  9  1  0  0  0  0
  7  8  1  6  0  0  0
  9 40  1  1  0  0  0
 10  6  1  6  0  0  0
 10 11  1  0  0  0  0
 10 18  1  0  0  0  0
 11 13  1  0  0  0  0
 11 12  1  6  0  0  0
 13 15  1  0  0  0  0
 13 14  1  1  0  0  0
 15 17  1  0  0  0  0
 15 16  1  6  0  0  0
 17 19  1  6  0  0  0
 17 18  1  0  0  0  0
 19 20  1  0  0  0  0
 21 29  1  0  0  0  0
 22 23  1  0  0  0  0
 22 31  1  0  0  0  0
 22 38  1  6  0  0  0
 23 25  1  0  0  0  0
 23 24  1  6  0  0  0
 25 27  1  0  0  0  0
 25 26  1  1  0  0  0
 27 30  1  0  0  0  0
 27 28  1  6  0  0  0
 30 21  1  1  0  0  0
 30 31  1  0  0  0  0
 32 34  1  0  0  0  0
 32 41  1  0  0  0  0
 32 33  1  1  0  0  0
 34 35  1  0  0  0  0
 35 37  1  0  0  0  0
 35 36  1  1  0  0  0
 37 39  1  0  0  0  0
 37 38  1  6  0  0  0
 39 41  1  0  0  0  0
 39 40  1  1  0  0  0
 41 42  1  6  0  0  0
M  CHG  6  12   1  20   1  24   1  29   1  33   1  36   1
M  END
>  <CHROM.1>
175.09506434,-38.78953159,-90.65436533,-72.80170330,64.70649945,-138.65610102
171.05105844,-55.46387721,172.39747939,73.27858250,-66.20767120,76.91182265
28.65009004,-162.03480870,68.80003108,65.15464572,60.81168907,165.54670538
124.29395099,-136.01815185,146.47079708,-55.19456314,0.09971386,-0.65916387
1.68753191,0.01391325,0.33940296,2.51245471

>  <Name>
1NEM.B

>  <RI>
0

>  <Rbt.Current_Directory>
/home/itssahil/PROJECTS/Mol_Feturizer/New_Systems/rnas/1nem

>  <Rbt.Executable>
rbdock ($Id: //depot/dev/client3/rdock/2013.1/src/exe/rbdock.cxx#4 $)

>  <Rbt.Library>
libRbt.so (2013.1, Build901 2013/11/27)

>  <Rbt.Parameter_File>
/export/apps/rDock/src/rDock_2013.1_src/data/scripts/dock_solv.prm

>  <Rbt.Receptor>
prm/pocket_docking_5.prm

>  <SCORE>
-46.7837

>  <SCORE.INTER>
-55.4985

>  <SCORE.INTER.CONST>
1

>  <SCORE.INTER.POLAR>
-8.24023

>  <SCORE.INTER.ROT>
9

>  <SCORE.INTER.SOLV>
35.5106

>  <SCORE.INTER.VDW>
-30.9685

>  <SCORE.INTER.norm>
-1.32139

>  <SCORE.INTRA>
8.71481

>  <SCORE.INTRA.DIHEDRAL>
10.2393

>  <SCORE.INTRA.DIHEDRAL.0>
22.4324

>  <SCORE.INTRA.POLAR>
0.541883

>  <SCORE.INTRA.POLAR.0>
-1.83749

>  <SCORE.INTRA.REPUL>
0.0667629

>  <SCORE.INTRA.REPUL.0>
0

>  <SCORE.INTRA.SOLV>
-2.92076

>  <SCORE.INTRA.SOLV.lig_0>
-160.638

>  <SCORE.INTRA.VDW>
2.87932

>  <SCORE.INTRA.VDW.0>
-7.61953

>  <SCORE.INTRA.norm>
0.207495

>  <SCORE.RESTR>
0

>  <SCORE.RESTR.CAVITY>
0

>  <SCORE.RESTR.norm>
0

>  <SCORE.SYSTEM>
0

>  <SCORE.SYSTEM.CONST>
0

>  <SCORE.SYSTEM.DIHEDRAL>
0

>  <SCORE.SYSTEM.SOLV>
0

>  <SCORE.SYSTEM.norm>
0

>  <SCORE.heavy>
42

>  <SCORE.norm>
-1.1139

>  <RMSD>
2.220

$$$$
1NEM.B
 OpenBabel11021811403D
libRbt.so/2013.1/901 2013/11/27
 42 45  0  0  0  0  0  0  0  0999 V2000
    2.4082   -4.1776    2.5314 O   0  0  0  0  0  0  0  0  0  0  0  0
    2.4742   -2.7653    2.7390 C   0  0  0  0  0  0  0  0  0  0  0  0
    2.4148   -1.9659    1.4381 C   0  0  1  0  0  0  0  0  0  0  0  0
    1.1571   -2.1458    0.7936 O   0  0  0  0  0  0  0  0  0  0  0  0
    2.5005   -0.4583    1.6154 C   0  0  1  0  0  0  0  0  0  0  0  0
    3.8486   -0.1490    1.9760 O   0  0  0  0  0  0  0  0  0  0  0  0
    2.0559   -0.0309    0.2292 C   0  0  1  0  0  0  0  0  0  0  0  0
    3.0356   -0.3335   -0.7697 O   0  0  0  0  0  0  0  0  0  0  0  0
    0.8412   -0.9536    0.0743 C   0  0  2  0  0  0  0  0  0  0  0  0
    4.1075   -0.0149    3.3443 C   0  0  2  0  0  0  0  0  0  0  0  0
    3.5277    1.3165    3.8409 C   0  0  2  0  0  0  0  0  0  0  0  0
    4.0306    2.4365    3.0025 N   0  3  0  0  0  0  0  0  0  0  0  0
    3.8477    1.5314    5.3238 C   0  0  1  0  0  0  0  0  0  0  0  0
    3.0889    0.6244    6.1125 O   0  0  0  0  0  0  0  0  0  0  0  0
    5.3404    1.3300    5.6021 C   0  0  2  0  0  0  0  0  0  0  0  0
    6.0997    2.3717    5.0018 O   0  0  0  0  0  0  0  0  0  0  0  0
    5.7869   -0.0223    5.0535 C   0  0  1  0  0  0  0  0  0  0  0  0
    5.4948   -0.0948    3.6445 O   0  0  0  0  0  0  0  0  0  0  0  0
    7.2714   -0.2832    5.2385 C   0  0  0  0  0  0  0  0  0  0  0  0
    7.5942   -0.6762    6.6282 N   0  3  0  0  0  0  0  0  0  0  0  0
   -7.0312   -2.1424    1.8151 C   0  0  0  0  0  0  0  0  0  0  0  0
   -3.3376   -1.9267    2.0097 C   0  0  2  0  0  0  0  0  0  0  0  0
   -2.9687   -3.3917    2.2303 C   0  0  2  0  0  0  0  0  0  0  0  0
   -1.5464   -3.6209    1.8810 N   0  3  0  0  0  0  0  0  0  0  0  0
   -3.8497   -4.2896    1.3720 C   0  0  1  0  0  0  0  0  0  0  0  0
   -3.5504   -5.6502    1.6435 O   0  0  0  0  0  0  0  0  0  0  0  0
   -5.3190   -4.0043    1.6751 C   0  0  2  0  0  0  0  0  0  0  0  0
   -6.1489   -4.7891    0.8285 O   0  0  0  0  0  0  0  0  0  0  0  0
   -7.1094   -1.5854    3.1851 N   0  3  0  0  0  0  0  0  0  0  0  0
   -5.6071   -2.5215    1.4479 C   0  0  2  0  0  0  0  0  0  0  0  0
   -4.7254   -1.7155    2.2557 O   0  0  0  0  0  0  0  0  0  0  0  0
   -2.2330    2.1740   -1.2167 C   0  0  2  0  0  0  0  0  0  0  0  0
   -1.9820    3.6198   -1.4165 N   0  3  0  0  0  0  0  0  0  0  0  0
   -3.5669    1.9699   -0.5073 C   0  0  0  0  0  0  0  0  0  0  0  0
   -3.8374    0.4873   -0.2931 C   0  0  2  0  0  0  0  0  0  0  0  0
   -5.1203    0.3613    0.3840 N   0  3  0  0  0  0  0  0  0  0  0  0
   -2.7175   -0.1273    0.5433 C   0  0  1  0  0  0  0  0  0  0  0  0
   -2.9663   -1.5359    0.7177 O   0  0  0  0  0  0  0  0  0  0  0  0
   -1.3569    0.0700   -0.1394 C   0  0  2  0  0  0  0  0  0  0  0  0
   -0.3146   -0.4265    0.7219 O   0  0  0  0  0  0  0  0  0  0  0  0
   -1.0857    1.5442   -0.4286 C   0  0  1  0  0  0  0  0  0  0  0  0
    0.1214    1.6681   -1.1690 O   0  0  0  0  0  0  0  0  0  0  0  0
  1  2  1  0  0  0  0
  3  2  1  1  0  0  0
  3  5  1  0  0  0  0
  3  4  1  0  0  0  0
  4  9  1  0  0  0  0
  5  7  1  0  0  0  0
  5  6  1  6  0  0  0
  7  9  1  0  0  0  0
  7  8  1  6  0  0  0
  9 40  1  1  0  0  0
 10  6  1  6  0  0  0
 10 11  1  0  0  0  0
 10 18  1  0  0  0  0
 11 13  1  0  0  0  0
 11 12  1  6  0  0  0
 13 15  1  0  0  0  0
 13 14  1  1  0  0  0
 15 17  1  0  0  0  0
 15 16  1  6  0  0  0
 17 19  1  6  0  0  0
 17 18  1  0  0  0  0
 19 20  1  0  0  0  0
 21 29  1  0  0  0  0
 22 23  1  0  0  0  0
 22 31  1  0  0  0  0
 22 38  1  6  0  0  0
 23 25  1  0  0  0  0
 23 24  1  6  0  0  0
 25 27  1  0  0  0  0
 25 26  1  1  0  0  0
 27 30  1  0  0  0  0
 27 28  1  6  0  0  0
 30 21  1  1  0  0  0
 30 31  1  0  0  0  0
 32 34  1  0  0  0  0
 32 41  1  0  0  0  0
 32 33  1  1  0  0  0
 34 35  1  0  0  0  0
 35 37  1  0  0  0  0
 35 36  1  1  0  0  0
 37 39  1  0  0  0  0
 37 38  1  6  0  0  0
 39 41  1  0  0  0  0
 39 40  1  1  0  0  0
 41 42  1  6  0  0  0
M  CHG  6  12   1  20   1  24   1  29   1  33   1  36   1
M  END
>  <CHROM.1>
-59.77924641,64.56227165,-95.91134587,-74.04594628,70.30128138,-137.09715270
48.17034499,-63.28173609,177.59373983,77.41868612,64.25311483,96.46594278
117.75540921,-154.75695937,-64.11518250,-64.16566458,179.17433680,-66.94415420
117.84268377,-109.21481489,149.15062568,74.84048552,0.03090527,-0.73012004
1.94265521,-0.02915391,0.38217579,2.58883370

>  <Name>
1NEM.B

>  <RI>
0

>  <Rbt.Current_Directory>
/home/itssahil/PROJECTS/Mol_Feturizer/New_Systems/rnas/1nem

>  <Rbt.Executable>
rbdock ($Id: //depot/dev/client3/rdock/2013.1/src/exe/rbdock.cxx#4 $)

>  <Rbt.Library>
libRbt.so (2013.1, Build901 2013/11/27)

>  <Rbt.Parameter_File>
/export/apps/rDock/src/rDock_2013.1_src/data/scripts/dock_solv.prm

>  <Rbt.Receptor>
prm/pocket_docking_3.prm

>  <SCORE>
-36.4507

>  <SCORE.INTER>
-48.6227

>  <SCORE.INTER.CONST>
1

>  <SCORE.INTER.POLAR>
-5.80372

>  <SCORE.INTER.ROT>
9

>  <SCORE.INTER.SOLV>
32.2987

>  <SCORE.INTER.VDW>
-33.4356

>  <SCORE.INTER.norm>
-1.15768

>  <SCORE.INTRA>
12.0454

>  <SCORE.INTRA.DIHEDRAL>
16.4995

>  <SCORE.INTRA.DIHEDRAL.0>
22.4324

>  <SCORE.INTRA.POLAR>
0.117396

>  <SCORE.INTRA.POLAR.0>
-1.83749

>  <SCORE.INTRA.REPUL>
0

>  <SCORE.INTRA.REPUL.0>
0

>  <SCORE.INTRA.SOLV>
-0.487022

>  <SCORE.INTRA.SOLV.lig_0>
-160.638

>  <SCORE.INTRA.VDW>
3.64

>  <SCORE.INTRA.VDW.0>
-7.61953

>  <SCORE.INTRA.norm>
0.286795

>  <SCORE.RESTR>
0.126582

>  <SCORE.RESTR.CAVITY>
0.126582

>  <SCORE.RESTR.norm>
0.00301385

>  <SCORE.SYSTEM>
0

>  <SCORE.SYSTEM.CONST>
0

>  <SCORE.SYSTEM.DIHEDRAL>
0

>  <SCORE.SYSTEM.SOLV>
0

>  <SCORE.SYSTEM.norm>
0

>  <SCORE.heavy>
42

>  <SCORE.norm>
-0.867874

>  <RMSD>
2.227

$$$$
1NEM.B
 OpenBabel11021811403D
libRbt.so/2013.1/901 2013/11/27
 42 45  0  0  0  0  0  0  0  0999 V2000
    3.3276   -2.9222    3.6506 O   0  0  0  0  0  0  0  0  0  0  0  0
    2.2292   -2.8230    2.7419 C   0  0  0  0  0  0  0  0  0  0  0  0
    2.5418   -1.9651    1.5167 C   0  0  1  0  0  0  0  0  0  0  0  0
    1.4236   -1.9198    0.6351 O   0  0  0  0  0  0  0  0  0  0  0  0
    2.8037   -0.4984    1.8193 C   0  0  1  0  0  0  0  0  0  0  0  0
    4.0841   -0.4168    2.4496 O   0  0  0  0  0  0  0  0  0  0  0  0
    2.7068    0.0555    0.4102 C   0  0  1  0  0  0  0  0  0  0  0  0
    3.8115   -0.3478   -0.4061 O   0  0  0  0  0  0  0  0  0  0  0  0
    1.4283   -0.6615   -0.0394 C   0  0  2  0  0  0  0  0  0  0  0  0
    4.0824   -0.1226    3.8174 C   0  0  2  0  0  0  0  0  0  0  0  0
    3.4495    1.2582    4.0373 C   0  0  2  0  0  0  0  0  0  0  0  0
    4.1274    2.2716    3.1864 N   0  3  0  0  0  0  0  0  0  0  0  0
    3.4880    1.6460    5.5190 C   0  0  1  0  0  0  0  0  0  0  0  0
    2.5733    0.8384    6.2481 O   0  0  0  0  0  0  0  0  0  0  0  0
    4.8962    1.4782    6.0980 C   0  0  2  0  0  0  0  0  0  0  0  0
    5.7789    2.4417    5.5373 O   0  0  0  0  0  0  0  0  0  0  0  0
    5.4074    0.0706    5.8045 C   0  0  1  0  0  0  0  0  0  0  0  0
    5.3857   -0.1672    4.3836 O   0  0  0  0  0  0  0  0  0  0  0  0
    6.8238   -0.1674    6.2978 C   0  0  0  0  0  0  0  0  0  0  0  0
    7.8136    0.6313    5.5414 N   0  3  0  0  0  0  0  0  0  0  0  0
   -5.7312   -0.8181    2.6693 C   0  0  0  0  0  0  0  0  0  0  0  0
   -2.3448   -1.4867    1.3232 C   0  0  2  0  0  0  0  0  0  0  0  0
   -2.3352   -3.0132    1.2960 C   0  0  2  0  0  0  0  0  0  0  0  0
   -1.2808   -3.5035    0.3765 N   0  3  0  0  0  0  0  0  0  0  0  0
   -3.6889   -3.5383    0.8368 C   0  0  1  0  0  0  0  0  0  0  0  0
   -3.6923   -4.9567    0.8901 O   0  0  0  0  0  0  0  0  0  0  0  0
   -4.7871   -2.9761    1.7366 C   0  0  2  0  0  0  0  0  0  0  0  0
   -6.0603   -3.4062    1.2725 O   0  0  0  0  0  0  0  0  0  0  0  0
   -7.1218   -1.0618    2.2222 N   0  3  0  0  0  0  0  0  0  0  0  0
   -4.7233   -1.4500    1.7251 C   0  0  2  0  0  0  0  0  0  0  0  0
   -3.4137   -1.0053    2.1336 O   0  0  0  0  0  0  0  0  0  0  0  0
   -1.2241    2.6430   -1.8343 C   0  0  2  0  0  0  0  0  0  0  0  0
   -0.8815    4.0727   -2.0133 N   0  3  0  0  0  0  0  0  0  0  0  0
   -2.6595    2.5093   -1.3384 C   0  0  0  0  0  0  0  0  0  0  0  0
   -3.0251    1.0440   -1.1476 C   0  0  2  0  0  0  0  0  0  0  0  0
   -4.4017    0.9855   -0.6768 N   0  3  0  0  0  0  0  0  0  0  0  0
   -2.0766    0.4013   -0.1383 C   0  0  1  0  0  0  0  0  0  0  0  0
   -2.4114   -0.9918    0.0153 O   0  0  0  0  0  0  0  0  0  0  0  0
   -0.6193    0.5276   -0.6037 C   0  0  2  0  0  0  0  0  0  0  0  0
    0.2540    0.0067    0.4164 O   0  0  0  0  0  0  0  0  0  0  0  0
   -0.2417    1.9830   -0.8682 C   0  0  1  0  0  0  0  0  0  0  0  0
    1.0698    2.0412   -1.4134 O   0  0  0  0  0  0  0  0  0  0  0  0
  1  2  1  0  0  0  0
  3  2  1  1  0  0  0
  3  5  1  0  0  0  0
  3  4  1  0  0  0  0
  4  9  1  0  0  0  0
  5  7  1  0  0  0  0
  5  6  1  6  0  0  0
  7  9  1  0  0  0  0
  7  8  1  6  0  0  0
  9 40  1  1  0  0  0
 10  6  1  6  0  0  0
 10 11  1  0  0  0  0
 10 18  1  0  0  0  0
 11 13  1  0  0  0  0
 11 12  1  6  0  0  0
 13 15  1  0  0  0  0
 13 14  1  1  0  0  0
 15 17  1  0  0  0  0
 15 16  1  6  0  0  0
 17 19  1  6  0  0  0
 17 18  1  0  0  0  0
 19 20  1  0  0  0  0
 21 29  1  0  0  0  0
 22 23  1  0  0  0  0
 22 31  1  0  0  0  0
 22 38  1  6  0  0  0
 23 25  1  0  0  0  0
 23 24  1  6  0  0  0
 25 27  1  0  0  0  0
 25 26  1  1  0  0  0
 27 30  1  0  0  0  0
 27 28  1  6  0  0  0
 30 21  1  1  0  0  0
 30 31  1  0  0  0  0
 32 34  1  0  0  0  0
 32 41  1  0  0  0  0
 32 33  1  1  0  0  0
 34 35  1  0  0  0  0
 35 37  1  0  0  0  0
 35 36  1  1  0  0  0
 37 39  1  0  0  0  0
 37 38  1  6  0  0  0
 39 41  1  0  0  0  0
 39 40  1  1  0  0  0
 41 42  1  6  0  0  0
M  CHG  6  12   1  20   1  24   1  29   1  33   1  36   1
M  END
>  <CHROM.1>
-47.75373862,178.96456492,-108.08726253,-61.76799024,53.59834459,-128.28920301
54.47527745,-59.51296940,67.71520885,-67.75785520,169.05053809,-66.54211816
-65.74433187,-164.31357463,50.81044532,57.13793950,-52.47633929,55.93629481
137.14470997,-140.05774662,145.06143187,-61.78649423,0.41131934,-0.32003945
1.81379365,0.14837801,0.42022323,2.38089177

>  <Name>
1NEM.B

>  <RI>
0

>  <Rbt.Current_Directory>
/home/itssahil/PROJECTS/Mol_Feturizer/New_Systems/rnas/1nem

>  <Rbt.Executable>
rbdock ($Id: //depot/dev/client3/rdock/2013.1/src/exe/rbdock.cxx#4 $)

>  <Rbt.Library>
libRbt.so (2013.1, Build901 2013/11/27)

>  <Rbt.Parameter_File>
/export/apps/rDock/src/rDock_2013.1_src/data/scripts/dock_solv.prm

>  <Rbt.Receptor>
prm/pocket_docking_3.prm

>  <SCORE>
-45.1192

>  <SCORE.INTER>
-48.0445

>  <SCORE.INTER.CONST>
1

>  <SCORE.INTER.POLAR>
-6.2767

>  <SCORE.INTER.ROT>
9

>  <SCORE.INTER.SOLV>
33.6478

>  <SCORE.INTER.VDW>
-31.9233

>  <SCORE.INTER.norm>
-1.14392

>  <SCORE.INTRA>
2.90342

>  <SCORE.INTRA.DIHEDRAL>
7.71631

>  <SCORE.INTRA.DIHEDRAL.0>
22.4324

>  <SCORE.INTRA.POLAR>
-1.03879

>  <SCORE.INTRA.POLAR.0>
-1.83749

>  <SCORE.INTRA.REPUL>
0

>  <SCORE.INTRA.REPUL.0>
0

>  <SCORE.INTRA.SOLV>
1.24061

>  <SCORE.INTRA.SOLV.lig_0>
-160.638

>  <SCORE.INTRA.VDW>
1.95685

>  <SCORE.INTRA.VDW.0>
-7.61953

>  <SCORE.INTRA.norm>
0.0691291

>  <SCORE.RESTR>
0.0218375

>  <SCORE.RESTR.CAVITY>
0.0218375

>  <SCORE.RESTR.norm>
0.00051994

>  <SCORE.SYSTEM>
0

>  <SCORE.SYSTEM.CONST>
0

>  <SCORE.SYSTEM.DIHEDRAL>
0

>  <SCORE.SYSTEM.SOLV>
0

>  <SCORE.SYSTEM.norm>
0

>  <SCORE.heavy>
42

>  <SCORE.norm>
-1.07427

>  <RMSD>
2.261

$$$$
1NEM.B
 OpenBabel11021811403D
libRbt.so/2013.1/901 2013/11/27
 42 45  0  0  0  0  0  0  0  0999 V2000
    1.1331   -5.6200    1.5002 O   0  0  0  0  0  0  0  0  0  0  0  0
    1.8558   -4.5761    2.1560 C   0  0  0  0  0  0  0  0  0  0  0  0
    1.8781   -3.2723    1.3595 C   0  0  1  0  0  0  0  0  0  0  0  0
    0.7651   -3.2046    0.4729 O   0  0  0  0  0  0  0  0  0  0  0  0
    1.7291   -2.0134    2.1989 C   0  0  1  0  0  0  0  0  0  0  0  0
    2.9545   -1.8306    2.9118 O   0  0  0  0  0  0  0  0  0  0  0  0
    1.4377   -1.0212    1.0887 C   0  0  1  0  0  0  0  0  0  0  0  0
    2.5852   -0.7751    0.2691 O   0  0  0  0  0  0  0  0  0  0  0  0
    0.3972   -1.8347    0.3102 C   0  0  2  0  0  0  0  0  0  0  0  0
    3.0988   -0.6171    3.5927 C   0  0  2  0  0  0  0  0  0  0  0  0
    3.4476    0.4889    2.5875 C   0  0  2  0  0  0  0  0  0  0  0  0
    4.6285    0.0887    1.7778 N   0  3  0  0  0  0  0  0  0  0  0  0
    3.6782    1.8237    3.3034 C   0  0  1  0  0  0  0  0  0  0  0  0
    2.4412    2.3215    3.7959 O   0  0  0  0  0  0  0  0  0  0  0  0
    4.6667    1.6656    4.4629 C   0  0  2  0  0  0  0  0  0  0  0  0
    5.9703    1.3896    3.9664 O   0  0  0  0  0  0  0  0  0  0  0  0
    4.2076    0.5340    5.3780 C   0  0  1  0  0  0  0  0  0  0  0  0
    4.0811   -0.6837    4.6182 O   0  0  0  0  0  0  0  0  0  0  0  0
    5.1615    0.2706    6.5299 C   0  0  0  0  0  0  0  0  0  0  0  0
    5.0910    1.3315    7.5591 N   0  3  0  0  0  0  0  0  0  0  0  0
   -4.5156   -4.0638    4.8690 C   0  0  0  0  0  0  0  0  0  0  0  0
   -3.0013   -2.7900    1.7367 C   0  0  2  0  0  0  0  0  0  0  0  0
   -3.4327   -3.8657    0.7428 C   0  0  2  0  0  0  0  0  0  0  0  0
   -3.3438   -3.3487   -0.6437 N   0  3  0  0  0  0  0  0  0  0  0  0
   -4.8641   -4.3002    1.0282 C   0  0  1  0  0  0  0  0  0  0  0  0
   -5.2262   -5.3536    0.1486 O   0  0  0  0  0  0  0  0  0  0  0  0
   -4.9776   -4.7643    2.4786 C   0  0  2  0  0  0  0  0  0  0  0  0
   -6.3259   -5.1063    2.7729 O   0  0  0  0  0  0  0  0  0  0  0  0
   -4.1951   -5.5015    5.0218 N   0  3  0  0  0  0  0  0  0  0  0  0
   -4.5154   -3.6447    3.4092 C   0  0  2  0  0  0  0  0  0  0  0  0
   -3.1699   -3.2468    3.0761 O   0  0  0  0  0  0  0  0  0  0  0  0
   -1.8191    1.6882   -0.4074 C   0  0  2  0  0  0  0  0  0  0  0  0
   -1.0000    2.9066   -0.6018 N   0  3  0  0  0  0  0  0  0  0  0  0
   -2.9304    1.9626    0.5996 C   0  0  0  0  0  0  0  0  0  0  0  0
   -3.7799    0.7173    0.8113 C   0  0  2  0  0  0  0  0  0  0  0  0
   -4.8186    1.0450    1.7776 N   0  3  0  0  0  0  0  0  0  0  0  0
   -2.9044   -0.4259    1.3194 C   0  0  1  0  0  0  0  0  0  0  0  0
   -3.7103   -1.6081    1.4902 O   0  0  0  0  0  0  0  0  0  0  0  0
   -1.7675   -0.7216    0.3314 C   0  0  2  0  0  0  0  0  0  0  0  0
   -0.9024   -1.7299    0.8876 O   0  0  0  0  0  0  0  0  0  0  0  0
   -0.9362    0.5269    0.0466 C   0  0  1  0  0  0  0  0  0  0  0  0
    0.0224    0.2384   -0.9626 O   0  0  0  0  0  0  0  0  0  0  0  0
  1  2  1  0  0  0  0
  3  2  1  1  0  0  0
  3  5  1  0  0  0  0
  3  4  1  0  0  0  0
  4  9  1  0  0  0  0
  5  7  1  0  0  0  0
  5  6  1  6  0  0  0
  7  9  1  0  0  0  0
  7  8  1  6  0  0  0
  9 40  1  1  0  0  0
 10  6  1  6  0  0  0
 10 11  1  0  0  0  0
 10 18  1  0  0  0  0
 11 13  1  0  0  0  0
 11 12  1  1  0  0  0
 13 15  1  0  0  0  0
 13 14  1  1  0  0  0
 15 17  1  0  0  0  0
 15 16  1  6  0  0  0
 17 19  1  1  0  0  0
 17 18  1  0  0  0  0
 19 20  1  0  0  0  0
 21 29  1  0  0  0  0
 22 23  1  0  0  0  0
 22 31  1  0  0  0  0
 22 38  1  1  0  0  0
 23 25  1  0  0  0  0
 23 24  1  6  0  0  0
 25 27  1  0  0  0  0
 25 26  1  6  0  0  0
 27 30  1  0  0  0  0
 27 28  1  1  0  0  0
 30 21  1  1  0  0  0
 30 31  1  0  0  0  0
 32 34  1  0  0  0  0
 32 41  1  0  0  0  0
 32 33  1  1  0  0  0
 34 35  1  0  0  0  0
 35 37  1  0  0  0  0
 35 36  1  1  0  0  0
 37 39  1  0  0  0  0
 37 38  1  6  0  0  0
 39 41  1  0  0  0  0
 39 40  1  1  0  0  0
 41 42  1  6  0  0  0
M  CHG  6  12   1  20   1  24   1  29   1  33   1  36   1
M  END
>  <CHROM.1>
-155.74078932,24.31101536,170.81705329,-77.35316009,67.03348770,-150.76634405
159.19556613,-158.96766150,72.41639726,73.12381066,-170.03235484,32.58731823
-58.70135488,-127.20499719,-166.73141555,-176.19539293,-59.61666127,73.84168932
-170.35728070,169.76460265,-161.68710497,75.16259940,-0.24832339,-1.36487443
2.14022941,-2.90116833,-0.44250247,-0.54441971

>  <Name>
1NEM.B

>  <RI>
0

>  <Rbt.Current_Directory>
/home/itssahil/PROJECTS/Mol_Feturizer/New_Systems/rnas/1nem

>  <Rbt.Executable>
rbdock ($Id: //depot/dev/client3/rdock/2013.1/src/exe/rbdock.cxx#4 $)

>  <Rbt.Library>
libRbt.so (2013.1, Build901 2013/11/27)

>  <Rbt.Parameter_File>
/export/apps/rDock/src/rDock_2013.1_src/data/scripts/dock_solv.prm

>  <Rbt.Receptor>
prm/blind_docking_60.prm

>  <SCORE>
-23.3441

>  <SCORE.INTER>
-50.3952

>  <SCORE.INTER.CONST>
1

>  <SCORE.INTER.POLAR>
-7.08402

>  <SCORE.INTER.ROT>
9

>  <SCORE.INTER.SOLV>
33.5308

>  <SCORE.INTER.VDW>
-30.7604

>  <SCORE.INTER.norm>
-1.19989

>  <SCORE.INTRA>
18.0988

>  <SCORE.INTRA.DIHEDRAL>
7.68767

>  <SCORE.INTRA.DIHEDRAL.0>
22.4324

>  <SCORE.INTRA.POLAR>
1.11591

>  <SCORE.INTRA.POLAR.0>
-1.83749

>  <SCORE.INTRA.REPUL>
0

>  <SCORE.INTRA.REPUL.0>
0

>  <SCORE.INTRA.SOLV>
-1.35854

>  <SCORE.INTRA.SOLV.lig_0>
-160.638

>  <SCORE.INTRA.VDW>
11.1401

>  <SCORE.INTRA.VDW.0>
-7.61953

>  <SCORE.INTRA.norm>
0.430924

>  <SCORE.RESTR>
8.95227

>  <SCORE.RESTR.CAVITY>
8.95227

>  <SCORE.RESTR.norm>
0.213149

>  <SCORE.SYSTEM>
0

>  <SCORE.SYSTEM.CONST>
0

>  <SCORE.SYSTEM.DIHEDRAL>
0

>  <SCORE.SYSTEM.SOLV>
0

>  <SCORE.SYSTEM.norm>
0

>  <SCORE.heavy>
42

>  <SCORE.norm>
-0.555813

>  <RMSD>
2.263

$$$$
1NEM.B
 OpenBabel11021811403D
libRbt.so/2013.1/901 2013/11/27
 42 45  0  0  0  0  0  0  0  0999 V2000
    3.7330   -2.1330    3.5538 O   0  0  0  0  0  0  0  0  0  0  0  0
    2.3786   -2.0499    3.1055 C   0  0  0  0  0  0  0  0  0  0  0  0
    2.2592   -1.6840    1.6268 C   0  0  1  0  0  0  0  0  0  0  0  0
    0.9252   -1.8780    1.1662 O   0  0  0  0  0  0  0  0  0  0  0  0
    2.5248   -0.2205    1.3120 C   0  0  1  0  0  0  0  0  0  0  0  0
    3.9302   -0.0032    1.4565 O   0  0  0  0  0  0  0  0  0  0  0  0
    1.9756   -0.1786   -0.1017 C   0  0  1  0  0  0  0  0  0  0  0  0
    2.7990   -0.9014   -1.0230 O   0  0  0  0  0  0  0  0  0  0  0  0
    0.6596   -0.9297    0.1324 C   0  0  2  0  0  0  0  0  0  0  0  0
    4.4235    0.0036    2.7656 C   0  0  2  0  0  0  0  0  0  0  0  0
    3.6834    1.0736    3.5798 C   0  0  2  0  0  0  0  0  0  0  0  0
    3.7557    2.3853    2.8837 N   0  3  0  0  0  0  0  0  0  0  0  0
    4.2408    1.1573    5.0044 C   0  0  1  0  0  0  0  0  0  0  0  0
    3.8683   -0.0055    5.7322 O   0  0  0  0  0  0  0  0  0  0  0  0
    5.7668    1.2902    4.9942 C   0  0  2  0  0  0  0  0  0  0  0  0
    6.1488    2.5569    4.4732 O   0  0  0  0  0  0  0  0  0  0  0  0
    6.3734    0.1746    4.1478 C   0  0  1  0  0  0  0  0  0  0  0  0
    5.8270    0.2244    2.8155 O   0  0  0  0  0  0  0  0  0  0  0  0
    7.8855    0.2609    4.0376 C   0  0  0  0  0  0  0  0  0  0  0  0
    8.3641   -0.1232    2.6911 N   0  3  0  0  0  0  0  0  0  0  0  0
   -5.6673   -1.8711    3.5568 C   0  0  0  0  0  0  0  0  0  0  0  0
   -2.5295   -1.9493    1.5882 C   0  0  2  0  0  0  0  0  0  0  0  0
   -2.3286   -3.4529    1.4148 C   0  0  2  0  0  0  0  0  0  0  0  0
   -1.4075   -3.7205    0.2846 N   0  3  0  0  0  0  0  0  0  0  0  0
   -3.6645   -4.1336    1.1487 C   0  0  1  0  0  0  0  0  0  0  0  0
   -3.4753   -5.5379    1.0668 O   0  0  0  0  0  0  0  0  0  0  0  0
   -4.6412   -3.7999    2.2741 C   0  0  2  0  0  0  0  0  0  0  0  0
   -5.9120   -4.3749    1.9983 O   0  0  0  0  0  0  0  0  0  0  0  0
   -7.0613   -1.6356    3.1158 N   0  3  0  0  0  0  0  0  0  0  0  0
   -4.7778   -2.2835    2.3969 C   0  0  2  0  0  0  0  0  0  0  0  0
   -3.4837   -1.6849    2.6132 O   0  0  0  0  0  0  0  0  0  0  0  0
   -2.2889    2.4694   -1.3280 C   0  0  2  0  0  0  0  0  0  0  0  0
   -2.1348    3.9381   -1.4397 N   0  3  0  0  0  0  0  0  0  0  0  0
   -3.6606    2.1315   -0.7548 C   0  0  0  0  0  0  0  0  0  0  0  0
   -3.8323    0.6239   -0.6322 C   0  0  2  0  0  0  0  0  0  0  0  0
   -5.1566    0.3692   -0.0830 N   0  3  0  0  0  0  0  0  0  0  0  0
   -2.7467    0.0517    0.2764 C   0  0  1  0  0  0  0  0  0  0  0  0
   -2.8992   -1.3784    0.3646 O   0  0  0  0  0  0  0  0  0  0  0  0
   -1.3504    0.3835   -0.2681 C   0  0  2  0  0  0  0  0  0  0  0  0
   -0.3533   -0.0780    0.6632 O   0  0  0  0  0  0  0  0  0  0  0  0
   -1.1705    1.8866   -0.4656 C   0  0  1  0  0  0  0  0  0  0  0  0
    0.0842    2.1368   -1.0850 O   0  0  0  0  0  0  0  0  0  0  0  0
  1  2  1  0  0  0  0
  3  2  1  1  0  0  0
  3  5  1  0  0  0  0
  3  4  1  0  0  0  0
  4  9  1  0  0  0  0
  5  7  1  0  0  0  0
  5  6  1  6  0  0  0
  7  9  1  0  0  0  0
  7  8  1  6  0  0  0
  9 40  1  1  0  0  0
 10  6  1  6  0  0  0
 10 11  1  0  0  0  0
 10 18  1  0  0  0  0
 11 13  1  0  0  0  0
 11 12  1  6  0  0  0
 13 15  1  0  0  0  0
 13 14  1  1  0  0  0
 15 17  1  0  0  0  0
 15 16  1  6  0  0  0
 17 19  1  6  0  0  0
 17 18  1  0  0  0  0
 19 20  1  0  0  0  0
 21 29  1  0  0  0  0
 22 23  1  0  0  0  0
 22 31  1  0  0  0  0
 22 38  1  6  0  0  0
 23 25  1  0  0  0  0
 23 24  1  6  0  0  0
 25 27  1  0  0  0  0
 25 26  1  1  0  0  0
 27 30  1  0  0  0  0
 27 28  1  6  0  0  0
 30 21  1  1  0  0  0
 30 31  1  0  0  0  0
 32 34  1  0  0  0  0
 32 41  1  0  0  0  0
 32 33  1  1  0  0  0
 34 35  1  0  0  0  0
 35 37  1  0  0  0  0
 35 36  1  1  0  0  0
 37 39  1  0  0  0  0
 37 38  1  6  0  0  0
 39 41  1  0  0  0  0
 39 40  1  1  0  0  0
 41 42  1  6  0  0  0
M  CHG  6  12   1  20   1  24   1  29   1  33   1  36   1
M  END
>  <CHROM.1>
-50.79734472,168.21414850,-72.40720208,-57.07733215,63.90012439,-143.36485671
62.65989216,49.94632403,64.38510753,-142.43848576,-58.76850114,-95.17101871
126.37810362,-162.71020989,-52.04065147,-178.93816115,-52.02299081,-56.57423203
-146.13961194,-147.43710840,126.43969769,-53.83406071,0.27315171,-0.55194164
1.68573629,-0.06416043,0.30890944,2.57327579

>  <Name>
1NEM.B

>  <RI>
0

>  <Rbt.Current_Directory>
/home/itssahil/PROJECTS/Mol_Feturizer/New_Systems/rnas/1nem

>  <Rbt.Executable>
rbdock ($Id: //depot/dev/client3/rdock/2013.1/src/exe/rbdock.cxx#4 $)

>  <Rbt.Library>
libRbt.so (2013.1, Build901 2013/11/27)

>  <Rbt.Parameter_File>
/export/apps/rDock/src/rDock_2013.1_src/data/scripts/dock_solv.prm

>  <Rbt.Receptor>
prm/pocket_docking_5.prm

>  <SCORE>
-42.8914

>  <SCORE.INTER>
-53.6063

>  <SCORE.INTER.CONST>
1

>  <SCORE.INTER.POLAR>
-7.74388

>  <SCORE.INTER.ROT>
9

>  <SCORE.INTER.SOLV>
39.379

>  <SCORE.INTER.VDW>
-32.6509

>  <SCORE.INTER.norm>
-1.27634

>  <SCORE.INTRA>
10.7149

>  <SCORE.INTRA.DIHEDRAL>
11.2635

>  <SCORE.INTRA.DIHEDRAL.0>
22.4324

>  <SCORE.INTRA.POLAR>
-0.500128

>  <SCORE.INTRA.POLAR.0>
-1.83749

>  <SCORE.INTRA.REPUL>
0

>  <SCORE.INTRA.REPUL.0>
0

>  <SCORE.INTRA.SOLV>
-1.24269

>  <SCORE.INTRA.SOLV.lig_0>
-160.638

>  <SCORE.INTRA.VDW>
7.40495

>  <SCORE.INTRA.VDW.0>
-7.61953

>  <SCORE.INTRA.norm>
0.255117

>  <SCORE.RESTR>
0

>  <SCORE.RESTR.CAVITY>
0

>  <SCORE.RESTR.norm>
0

>  <SCORE.SYSTEM>
0

>  <SCORE.SYSTEM.CONST>
0

>  <SCORE.SYSTEM.DIHEDRAL>
0

>  <SCORE.SYSTEM.SOLV>
0

>  <SCORE.SYSTEM.norm>
0

>  <SCORE.heavy>
42

>  <SCORE.norm>
-1.02122

>  <RMSD>
2.263

$$$$
1NEM.B
 OpenBabel11021811403D
libRbt.so/2013.1/901 2013/11/27
 42 45  0  0  0  0  0  0  0  0999 V2000
    2.3437   -5.5552    2.0806 O   0  0  0  0  0  0  0  0  0  0  0  0
    1.7923   -4.3616    2.6402 C   0  0  0  0  0  0  0  0  0  0  0  0
    1.7766   -3.1917    1.6573 C   0  0  1  0  0  0  0  0  0  0  0  0
    0.6139   -3.2401    0.8355 O   0  0  0  0  0  0  0  0  0  0  0  0
    1.6854   -1.8196    2.3057 C   0  0  1  0  0  0  0  0  0  0  0  0
    2.9517   -1.5513    2.9120 O   0  0  0  0  0  0  0  0  0  0  0  0
    1.3361   -0.9998    1.0777 C   0  0  1  0  0  0  0  0  0  0  0  0
    2.4351   -0.8964    0.1664 O   0  0  0  0  0  0  0  0  0  0  0  0
    0.2462   -1.9044    0.4905 C   0  0  2  0  0  0  0  0  0  0  0  0
    3.1810   -0.2286    3.3058 C   0  0  2  0  0  0  0  0  0  0  0  0
    4.6868   -0.0159    3.5125 C   0  0  2  0  0  0  0  0  0  0  0  0
    5.2238   -1.0418    4.4450 N   0  3  0  0  0  0  0  0  0  0  0  0
    4.9739    1.4052    4.0082 C   0  0  1  0  0  0  0  0  0  0  0  0
    4.7372    2.3341    2.9586 O   0  0  0  0  0  0  0  0  0  0  0  0
    4.0974    1.7578    5.2139 C   0  0  2  0  0  0  0  0  0  0  0  0
    4.4814    0.9876    6.3459 O   0  0  0  0  0  0  0  0  0  0  0  0
    2.6322    1.4947    4.8778 C   0  0  1  0  0  0  0  0  0  0  0  0
    2.4643    0.1191    4.4833 O   0  0  0  0  0  0  0  0  0  0  0  0
    1.6928    1.7671    6.0394 C   0  0  0  0  0  0  0  0  0  0  0  0
    2.1847    1.1676    7.2998 N   0  3  0  0  0  0  0  0  0  0  0  0
   -8.0081   -2.8057    1.5826 C   0  0  0  0  0  0  0  0  0  0  0  0
   -4.4690   -2.5626    2.6517 C   0  0  2  0  0  0  0  0  0  0  0  0
   -4.2447   -3.9518    3.2440 C   0  0  2  0  0  0  0  0  0  0  0  0
   -2.7946   -4.2510    3.3157 N   0  3  0  0  0  0  0  0  0  0  0  0
   -4.9352   -5.0051    2.3878 C   0  0  1  0  0  0  0  0  0  0  0  0
   -4.7851   -6.2814    2.9902 O   0  0  0  0  0  0  0  0  0  0  0  0
   -6.4163   -4.6603    2.2494 C   0  0  2  0  0  0  0  0  0  0  0  0
   -7.0541   -5.6006    1.3946 O   0  0  0  0  0  0  0  0  0  0  0  0
   -8.8259   -3.7529    0.7907 N   0  3  0  0  0  0  0  0  0  0  0  0
   -6.5599   -3.2553    1.6676 C   0  0  2  0  0  0  0  0  0  0  0  0
   -5.8614   -2.3024    2.4944 O   0  0  0  0  0  0  0  0  0  0  0  0
   -2.7737    0.9032   -0.9703 C   0  0  2  0  0  0  0  0  0  0  0  0
   -2.3701    2.2739   -1.3598 N   0  3  0  0  0  0  0  0  0  0  0  0
   -4.0546    0.9518   -0.1450 C   0  0  0  0  0  0  0  0  0  0  0  0
   -4.4804   -0.4511    0.2646 C   0  0  2  0  0  0  0  0  0  0  0  0
   -5.7044   -0.3356    1.0447 N   0  3  0  0  0  0  0  0  0  0  0  0
   -3.3727   -1.1095    1.0836 C   0  0  1  0  0  0  0  0  0  0  0  0
   -3.7717   -2.4466    1.4433 O   0  0  0  0  0  0  0  0  0  0  0  0
   -2.0638   -1.1653    0.2837 C   0  0  2  0  0  0  0  0  0  0  0  0
   -1.0165   -1.6946    1.1189 O   0  0  0  0  0  0  0  0  0  0  0  0
   -1.6448    0.2210   -0.1993 C   0  0  1  0  0  0  0  0  0  0  0  0
   -0.5017    0.1063   -1.0363 O   0  0  0  0  0  0  0  0  0  0  0  0
  1  2  1  0  0  0  0
  3  2  1  1  0  0  0
  3  5  1  0  0  0  0
  3  4  1  0  0  0  0
  4  9  1  0  0  0  0
  5  7  1  0  0  0  0
  5  6  1  6  0  0  0
  7  9  1  0  0  0  0
  7  8  1  6  0  0  0
  9 40  1  1  0  0  0
 10  6  1  1  0  0  0
 10 11  1  0  0  0  0
 10 18  1  0  0  0  0
 11 13  1  0  0  0  0
 11 12  1  1  0  0  0
 13 15  1  0  0  0  0
 13 14  1  6  0  0  0
 15 17  1  0  0  0  0
 15 16  1  1  0  0  0
 17 19  1  1  0  0  0
 17 18  1  0  0  0  0
 19 20  1  0  0  0  0
 21 29  1  0  0  0  0
 22 23  1  0  0  0  0
 22 31  1  0  0  0  0
 22 38  1  6  0  0  0
 23 25  1  0  0  0  0
 23 24  1  6  0  0  0
 25 27  1  0  0  0  0
 25 26  1  1  0  0  0
 27 30  1  0  0  0  0
 27 28  1  6  0  0  0
 30 21  1  1  0  0  0
 30 31  1  0  0  0  0
 32 34  1  0  0  0  0
 32 41  1  0  0  0  0
 32 33  1  1  0  0  0
 34 35  1  0  0  0  0
 35 37  1  0  0  0  0
 35 36  1  1  0  0  0
 37 39  1  0  0  0  0
 37 38  1  6  0  0  0
 39 41  1  0  0  0  0
 39 40  1  1  0  0  0
 41 42  1  6  0  0  0
M  CHG  6  12   1  20   1  24   1  29   1  33   1  36   1
M  END
>  <CHROM.1>
-36.01931505,84.81679724,166.31320224,-162.26943173,-39.00437587,-129.97688459
-141.67514543,-165.04206139,-64.19473818,-46.75254642,-174.68125950,-56.56411110
163.38741153,-152.72698235,75.66928430,77.64428324,65.47882500,45.48018397
-126.73124431,-89.60266068,175.48275973,72.75617940,-0.94558948,-1.47489019
2.22917698,-0.18344991,0.38966842,2.66366612

>  <Name>
1NEM.B

>  <RI>
0

>  <Rbt.Current_Directory>
/home/itssahil/PROJECTS/Mol_Feturizer/New_Systems/rnas/1nem

>  <Rbt.Executable>
rbdock ($Id: //depot/dev/client3/rdock/2013.1/src/exe/rbdock.cxx#4 $)

>  <Rbt.Library>
libRbt.so (2013.1, Build901 2013/11/27)

>  <Rbt.Parameter_File>
/export/apps/rDock/src/rDock_2013.1_src/data/scripts/dock_solv.prm

>  <Rbt.Receptor>
prm/blind_docking_60.prm

>  <SCORE>
-35.6063

>  <SCORE.INTER>
-56.5882

>  <SCORE.INTER.CONST>
1

>  <SCORE.INTER.POLAR>
-7.40073

>  <SCORE.INTER.ROT>
9

>  <SCORE.INTER.SOLV>
42.0124

>  <SCORE.INTER.VDW>
-36.6605

>  <SCORE.INTER.norm>
-1.34734

>  <SCORE.INTRA>
17.2186

>  <SCORE.INTRA.DIHEDRAL>
12.1203

>  <SCORE.INTRA.DIHEDRAL.0>
22.4324

>  <SCORE.INTRA.POLAR>
0.0330122

>  <SCORE.INTRA.POLAR.0>
-1.83749

>  <SCORE.INTRA.REPUL>
0

>  <SCORE.INTRA.REPUL.0>
0

>  <SCORE.INTRA.SOLV>
2.30171

>  <SCORE.INTRA.SOLV.lig_0>
-160.638

>  <SCORE.INTRA.VDW>
9.89533

>  <SCORE.INTRA.VDW.0>
-7.61953

>  <SCORE.INTRA.norm>
0.409966

>  <SCORE.RESTR>
3.76343

>  <SCORE.RESTR.CAVITY>
3.76343

>  <SCORE.RESTR.norm>
0.0896054

>  <SCORE.SYSTEM>
0

>  <SCORE.SYSTEM.CONST>
0

>  <SCORE.SYSTEM.DIHEDRAL>
0

>  <SCORE.SYSTEM.SOLV>
0

>  <SCORE.SYSTEM.norm>
0

>  <SCORE.heavy>
42

>  <SCORE.norm>
-0.847768

>  <RMSD>
2.268

$$$$
1NEM.B
 OpenBabel11021811403D
libRbt.so/2013.1/901 2013/11/27
 42 45  0  0  0  0  0  0  0  0999 V2000
    2.9370   -3.8704    3.0016 O   0  0  0  0  0  0  0  0  0  0  0  0
    2.3533   -2.5738    2.8599 C   0  0  0  0  0  0  0  0  0  0  0  0
    2.1877   -2.1483    1.4018 C   0  0  1  0  0  0  0  0  0  0  0  0
    0.8207   -2.2231    1.0075 O   0  0  0  0  0  0  0  0  0  0  0  0
    2.5508   -0.6993    1.1185 C   0  0  1  0  0  0  0  0  0  0  0  0
    3.9745   -0.5957    1.1942 O   0  0  0  0  0  0  0  0  0  0  0  0
    1.9352   -0.5660   -0.2617 C   0  0  1  0  0  0  0  0  0  0  0  0
    2.6513   -1.3173   -1.2477 O   0  0  0  0  0  0  0  0  0  0  0  0
    0.5781   -1.2217    0.0192 C   0  0  2  0  0  0  0  0  0  0  0  0
    4.5281    0.6238    0.7899 C   0  0  2  0  0  0  0  0  0  0  0  0
    5.8253    0.8743    1.5709 C   0  0  2  0  0  0  0  0  0  0  0  0
    5.5712    0.7632    3.0315 N   0  3  0  0  0  0  0  0  0  0  0  0
    6.4294    2.2335    1.2033 C   0  0  1  0  0  0  0  0  0  0  0  0
    6.9458    2.1845   -0.1202 O   0  0  0  0  0  0  0  0  0  0  0  0
    5.3846    3.3489    1.3062 C   0  0  2  0  0  0  0  0  0  0  0  0
    5.0248    3.5649    2.6648 O   0  0  0  0  0  0  0  0  0  0  0  0
    4.1490    2.9713    0.4941 C   0  0  1  0  0  0  0  0  0  0  0  0
    3.6283    1.7112    0.9602 O   0  0  0  0  0  0  0  0  0  0  0  0
    3.0357    4.0002    0.5836 C   0  0  0  0  0  0  0  0  0  0  0  0
    2.0880    3.8884   -0.5474 N   0  3  0  0  0  0  0  0  0  0  0  0
   -5.3824   -2.3557    3.9712 C   0  0  0  0  0  0  0  0  0  0  0  0
   -2.4011   -2.1872    1.7779 C   0  0  2  0  0  0  0  0  0  0  0  0
   -2.1160   -3.6704    1.5547 C   0  0  2  0  0  0  0  0  0  0  0  0
   -1.2660   -3.8546    0.3543 N   0  3  0  0  0  0  0  0  0  0  0  0
   -3.4208   -4.4336    1.3706 C   0  0  1  0  0  0  0  0  0  0  0  0
   -3.1471   -5.8204    1.2418 O   0  0  0  0  0  0  0  0  0  0  0  0
   -4.3309   -4.1871    2.5718 C   0  0  2  0  0  0  0  0  0  0  0  0
   -5.5784   -4.8404    2.3758 O   0  0  0  0  0  0  0  0  0  0  0  0
   -6.7667   -2.8679    3.8505 N   0  3  0  0  0  0  0  0  0  0  0  0
   -4.5565   -2.6858    2.7401 C   0  0  2  0  0  0  0  0  0  0  0  0
   -3.2917   -2.0064    2.8757 O   0  0  0  0  0  0  0  0  0  0  0  0
   -2.4727    2.2263   -1.1552 C   0  0  2  0  0  0  0  0  0  0  0  0
   -2.3338    3.6950   -1.2849 N   0  3  0  0  0  0  0  0  0  0  0  0
   -3.7770    1.8871   -0.4426 C   0  0  0  0  0  0  0  0  0  0  0  0
   -3.9322    0.3795   -0.3001 C   0  0  2  0  0  0  0  0  0  0  0  0
   -5.1921    0.1236    0.3835 N   0  3  0  0  0  0  0  0  0  0  0  0
   -2.7574   -0.1890    0.4923 C   0  0  1  0  0  0  0  0  0  0  0  0
   -2.8972   -1.6192    0.5983 O   0  0  0  0  0  0  0  0  0  0  0  0
   -1.4255    0.1441   -0.1943 C   0  0  2  0  0  0  0  0  0  0  0  0
   -0.3365   -0.3138    0.6297 O   0  0  0  0  0  0  0  0  0  0  0  0
   -1.2699    1.6471   -0.4121 C   0  0  1  0  0  0  0  0  0  0  0  0
   -0.0865    1.8983   -1.1584 O   0  0  0  0  0  0  0  0  0  0  0  0
  1  2  1  0  0  0  0
  3  2  1  1  0  0  0
  3  5  1  0  0  0  0
  3  4  1  0  0  0  0
  4  9  1  0  0  0  0
  5  7  1  0  0  0  0
  5  6  1  6  0  0  0
  7  9  1  0  0  0  0
  7  8  1  6  0  0  0
  9 40  1  1  0  0  0
 10  6  1  1  0  0  0
 10 11  1  0  0  0  0
 10 18  1  0  0  0  0
 11 13  1  0  0  0  0
 11 12  1  1  0  0  0
 13 15  1  0  0  0  0
 13 14  1  6  0  0  0
 15 17  1  0  0  0  0
 15 16  1  1  0  0  0
 17 19  1  1  0  0  0
 17 18  1  0  0  0  0
 19 20  1  0  0  0  0
 21 29  1  0  0  0  0
 22 23  1  0  0  0  0
 22 31  1  0  0  0  0
 22 38  1  6  0  0  0
 23 25  1  0  0  0  0
 23 24  1  6  0  0  0
 25 27  1  0  0  0  0
 25 26  1  1  0  0  0
 27 30  1  0  0  0  0
 27 28  1  6  0  0  0
 30 21  1  1  0  0  0
 30 31  1  0  0  0  0
 32 34  1  0  0  0  0
 32 41  1  0  0  0  0
 32 33  1  1  0  0  0
 34 35  1  0  0  0  0
 35 37  1  0  0  0  0
 35 36  1  1  0  0  0
 37 39  1  0  0  0  0
 37 38  1  6  0  0  0
 39 41  1  0  0  0  0
 39 40  1  1  0  0  0
 41 42  1  6  0  0  0
M  CHG  6  12   1  20   1  24   1  29   1  33   1  36   1
M  END
>  <CHROM.1>
60.08776115,105.72699178,171.82522445,150.19724444,-56.65713570,-136.93619529
162.83573289,-60.42726248,-175.89807736,159.15943393,62.36716778,-65.84871665
168.44129929,-158.42592800,70.49131964,-66.66450403,49.80363515,67.03493495
102.28963441,-147.46792284,123.19608169,50.21438976,0.08992628,-0.44282385
1.02293182,-0.47699733,0.10151429,2.75953724

>  <Name>
1NEM.B

>  <RI>
0

>  <Rbt.Current_Directory>
/home/itssahil/PROJECTS/Mol_Feturizer/New_Systems/rnas/1nem

>  <Rbt.Executable>
rbdock ($Id: //depot/dev/client3/rdock/2013.1/src/exe/rbdock.cxx#4 $)

>  <Rbt.Library>
libRbt.so (2013.1, Build901 2013/11/27)

>  <Rbt.Parameter_File>
/export/apps/rDock/src/rDock_2013.1_src/data/scripts/dock_solv.prm

>  <Rbt.Receptor>
prm/pocket_docking_4.prm

>  <SCORE>
-40.7059

>  <SCORE.INTER>
-45.1919

>  <SCORE.INTER.CONST>
1

>  <SCORE.INTER.POLAR>
-6.07974

>  <SCORE.INTER.ROT>
9

>  <SCORE.INTER.SOLV>
31.3471

>  <SCORE.INTER.VDW>
-29.9112

>  <SCORE.INTER.norm>
-1.076

>  <SCORE.INTRA>
4.4523

>  <SCORE.INTRA.DIHEDRAL>
13.0299

>  <SCORE.INTRA.DIHEDRAL.0>
22.4324

>  <SCORE.INTRA.POLAR>
-1.73456

>  <SCORE.INTRA.POLAR.0>
-1.83749

>  <SCORE.INTRA.REPUL>
0.00246271

>  <SCORE.INTRA.REPUL.0>
0

>  <SCORE.INTRA.SOLV>
0.983233

>  <SCORE.INTRA.SOLV.lig_0>
-160.638

>  <SCORE.INTRA.VDW>
3.33091

>  <SCORE.INTRA.VDW.0>
-7.61953

>  <SCORE.INTRA.norm>
0.106007

>  <SCORE.RESTR>
0.0337091

>  <SCORE.RESTR.CAVITY>
0.0337091

>  <SCORE.RESTR.norm>
0.000802597

>  <SCORE.SYSTEM>
0

>  <SCORE.SYSTEM.CONST>
0

>  <SCORE.SYSTEM.DIHEDRAL>
0

>  <SCORE.SYSTEM.SOLV>
0

>  <SCORE.SYSTEM.norm>
0

>  <SCORE.heavy>
42

>  <SCORE.norm>
-0.969188

>  <RMSD>
2.292

$$$$
1NEM.B
 OpenBabel11021811403D
libRbt.so/2013.1/901 2013/11/27
 42 45  0  0  0  0  0  0  0  0999 V2000
    1.1676   -5.5257    1.5847 O   0  0  0  0  0  0  0  0  0  0  0  0
    1.7991   -4.4304    2.2507 C   0  0  0  0  0  0  0  0  0  0  0  0
    1.7627   -3.1357    1.4399 C   0  0  1  0  0  0  0  0  0  0  0  0
    0.6392   -3.1215    0.5641 O   0  0  0  0  0  0  0  0  0  0  0  0
    1.5728   -1.8743    2.2671 C   0  0  1  0  0  0  0  0  0  0  0  0
    2.7971   -1.6359    2.9652 O   0  0  0  0  0  0  0  0  0  0  0  0
    1.2321   -0.9067    1.1492 C   0  0  1  0  0  0  0  0  0  0  0  0
    2.3610   -0.6254    0.3152 O   0  0  0  0  0  0  0  0  0  0  0  0
    0.2164   -1.7689    0.3902 C   0  0  2  0  0  0  0  0  0  0  0  0
    2.9572   -0.3593    3.5147 C   0  0  2  0  0  0  0  0  0  0  0  0
    4.4328    0.0516    3.4187 C   0  0  2  0  0  0  0  0  0  0  0  0
    5.2949   -0.9966    4.0255 N   0  3  0  0  0  0  0  0  0  0  0  0
    4.6615    1.4195    4.0699 C   0  0  1  0  0  0  0  0  0  0  0  0
    4.0719    2.4346    3.2684 O   0  0  0  0  0  0  0  0  0  0  0  0
    4.0653    1.4671    5.4801 C   0  0  2  0  0  0  0  0  0  0  0  0
    4.7979    0.6187    6.3550 O   0  0  0  0  0  0  0  0  0  0  0  0
    2.6037    1.0306    5.4344 C   0  0  1  0  0  0  0  0  0  0  0  0
    2.5088   -0.2883    4.8619 O   0  0  0  0  0  0  0  0  0  0  0  0
    1.9458    0.9960    6.8026 C   0  0  0  0  0  0  0  0  0  0  0  0
    1.7658    2.3535    7.3634 N   0  3  0  0  0  0  0  0  0  0  0  0
   -8.0710   -2.7845    1.6138 C   0  0  0  0  0  0  0  0  0  0  0  0
   -4.4993   -2.5349    2.5664 C   0  0  2  0  0  0  0  0  0  0  0  0
   -4.2548   -3.9214    3.1570 C   0  0  2  0  0  0  0  0  0  0  0  0
   -2.8029   -4.2195    3.1829 N   0  3  0  0  0  0  0  0  0  0  0  0
   -4.9720   -4.9787    2.3281 C   0  0  1  0  0  0  0  0  0  0  0  0
   -4.8015   -6.2524    2.9307 O   0  0  0  0  0  0  0  0  0  0  0  0
   -6.4571   -4.6354    2.2364 C   0  0  2  0  0  0  0  0  0  0  0  0
   -7.1216   -5.5797    1.4068 O   0  0  0  0  0  0  0  0  0  0  0  0
   -8.8873   -3.6611    0.7430 N   0  3  0  0  0  0  0  0  0  0  0  0
   -6.6205   -3.2330    1.6536 C   0  0  2  0  0  0  0  0  0  0  0  0
   -5.8961   -2.2761    2.4532 O   0  0  0  0  0  0  0  0  0  0  0  0
   -2.8264    0.9128   -1.0896 C   0  0  2  0  0  0  0  0  0  0  0  0
   -2.4091    2.2780   -1.4837 N   0  3  0  0  0  0  0  0  0  0  0  0
   -4.0971    0.9784   -0.2499 C   0  0  0  0  0  0  0  0  0  0  0  0
   -4.5369   -0.4187    0.1647 C   0  0  2  0  0  0  0  0  0  0  0  0
   -5.7504   -0.2870    0.9586 N   0  3  0  0  0  0  0  0  0  0  0  0
   -3.4289   -1.0919    0.9712 C   0  0  1  0  0  0  0  0  0  0  0  0
   -3.8416   -2.4235    1.3355 O   0  0  0  0  0  0  0  0  0  0  0  0
   -2.1300   -1.1651    0.1565 C   0  0  2  0  0  0  0  0  0  0  0  0
   -1.0804   -1.7083    0.9798 O   0  0  0  0  0  0  0  0  0  0  0  0
   -1.6981    0.2155   -0.3313 C   0  0  1  0  0  0  0  0  0  0  0  0
   -0.5661    0.0857   -1.1812 O   0  0  0  0  0  0  0  0  0  0  0  0
  1  2  1  0  0  0  0
  3  2  1  1  0  0  0
  3  5  1  0  0  0  0
  3  4  1  0  0  0  0
  4  9  1  0  0  0  0
  5  7  1  0  0  0  0
  5  6  1  6  0  0  0
  7  9  1  0  0  0  0
  7  8  1  6  0  0  0
  9 40  1  1  0  0  0
 10  6  1  1  0  0  0
 10 11  1  0  0  0  0
 10 18  1  0  0  0  0
 11 13  1  0  0  0  0
 11 12  1  1  0  0  0
 13 15  1  0  0  0  0
 13 14  1  6  0  0  0
 15 17  1  0  0  0  0
 15 16  1  1  0  0  0
 17 19  1  1  0  0  0
 17 18  1  0  0  0  0
 19 20  1  0  0  0  0
 21 29  1  0  0  0  0
 22 23  1  0  0  0  0
 22 31  1  0  0  0  0
 22 38  1  6  0  0  0
 23 25  1  0  0  0  0
 23 24  1  6  0  0  0
 25 27  1  0  0  0  0
 25 26  1  1  0  0  0
 27 30  1  0  0  0  0
 27 28  1  6  0  0  0
 30 21  1  1  0  0  0
 30 31  1  0  0  0  0
 32 34  1  0  0  0  0
 32 41  1  0  0  0  0
 32 33  1  1  0  0  0
 34 35  1  0  0  0  0
 35 37  1  0  0  0  0
 35 36  1  1  0  0  0
 37 39  1  0  0  0  0
 37 38  1  6  0  0  0
 39 41  1  0  0  0  0
 39 40  1  1  0  0  0
 41 42  1  6  0  0  0
M  CHG  6  12   1  20   1  24   1  29   1  33   1  36   1
M  END
>  <CHROM.1>
-157.87623464,27.16564747,164.45474749,-144.78323633,-23.65941610,-127.55710623
172.07793863,177.14437743,79.50897708,69.06792894,-116.24405635,-62.18879751
168.50929293,-151.39804620,-50.41865089,164.40813349,79.50284504,45.77982871
-6.17511964,-91.02705636,-176.45790506,95.93067482,-1.04259555,-1.46724826
2.20449680,-0.15004233,0.42318747,2.60794332

>  <Name>
1NEM.B

>  <RI>
0

>  <Rbt.Current_Directory>
/home/itssahil/PROJECTS/Mol_Feturizer/New_Systems/rnas/1nem

>  <Rbt.Executable>
rbdock ($Id: //depot/dev/client3/rdock/2013.1/src/exe/rbdock.cxx#4 $)

>  <Rbt.Library>
libRbt.so (2013.1, Build901 2013/11/27)

>  <Rbt.Parameter_File>
/export/apps/rDock/src/rDock_2013.1_src/data/scripts/dock_solv.prm

>  <Rbt.Receptor>
prm/blind_docking_40.prm

>  <SCORE>
-34.0891

>  <SCORE.INTER>
-57.5792

>  <SCORE.INTER.CONST>
1

>  <SCORE.INTER.POLAR>
-8.29308

>  <SCORE.INTER.ROT>
9

>  <SCORE.INTER.SOLV>
43.9996

>  <SCORE.INTER.VDW>
-35.0091

>  <SCORE.INTER.norm>
-1.37093

>  <SCORE.INTRA>
18.1254

>  <SCORE.INTRA.DIHEDRAL>
25.2541

>  <SCORE.INTRA.DIHEDRAL.0>
22.4324

>  <SCORE.INTRA.POLAR>
-0.366413

>  <SCORE.INTRA.POLAR.0>
-1.83749

>  <SCORE.INTRA.REPUL>
0

>  <SCORE.INTRA.REPUL.0>
0

>  <SCORE.INTRA.SOLV>
-2.07787

>  <SCORE.INTRA.SOLV.lig_0>
-160.638

>  <SCORE.INTRA.VDW>
7.78314

>  <SCORE.INTRA.VDW.0>
-7.61953

>  <SCORE.INTRA.norm>
0.431558

>  <SCORE.RESTR>
5.36471

>  <SCORE.RESTR.CAVITY>
5.36471

>  <SCORE.RESTR.norm>
0.127731

>  <SCORE.SYSTEM>
0

>  <SCORE.SYSTEM.CONST>
0

>  <SCORE.SYSTEM.DIHEDRAL>
0

>  <SCORE.SYSTEM.SOLV>
0

>  <SCORE.SYSTEM.norm>
0

>  <SCORE.heavy>
42

>  <SCORE.norm>
-0.811645

>  <RMSD>
2.293

$$$$
1NEM.B
 OpenBabel11021811403D
libRbt.so/2013.1/901 2013/11/27
 42 45  0  0  0  0  0  0  0  0999 V2000
    1.6861   -5.3971    2.0979 O   0  0  0  0  0  0  0  0  0  0  0  0
    1.7635   -4.0630    2.6043 C   0  0  0  0  0  0  0  0  0  0  0  0
    1.3935   -3.0060    1.5647 C   0  0  1  0  0  0  0  0  0  0  0  0
    0.0499   -3.1811    1.1248 O   0  0  0  0  0  0  0  0  0  0  0  0
    1.4050   -1.5763    2.0817 C   0  0  1  0  0  0  0  0  0  0  0  0
    2.7723   -1.2023    2.2659 O   0  0  0  0  0  0  0  0  0  0  0  0
    0.6680   -0.9047    0.9382 C   0  0  1  0  0  0  0  0  0  0  0  0
    1.4517   -0.8622   -0.2589 O   0  0  0  0  0  0  0  0  0  0  0  0
   -0.4848   -1.9030    0.7798 C   0  0  2  0  0  0  0  0  0  0  0  0
    3.0028    0.1130    2.6834 C   0  0  2  0  0  0  0  0  0  0  0  0
    4.5150    0.3696    2.7361 C   0  0  2  0  0  0  0  0  0  0  0  0
    5.1803   -0.6693    3.5658 N   0  3  0  0  0  0  0  0  0  0  0  0
    4.8109    1.7814    3.2524 C   0  0  1  0  0  0  0  0  0  0  0  0
    4.4342    2.7378    2.2705 O   0  0  0  0  0  0  0  0  0  0  0  0
    4.0595    2.0616    4.5575 C   0  0  2  0  0  0  0  0  0  0  0  0
    4.5866    1.2659    5.6116 O   0  0  0  0  0  0  0  0  0  0  0  0
    2.5752    1.7605    4.3700 C   0  0  1  0  0  0  0  0  0  0  0  0
    2.4073    0.3946    3.9432 O   0  0  0  0  0  0  0  0  0  0  0  0
    1.7590    1.9599    5.6350 C   0  0  0  0  0  0  0  0  0  0  0  0
    2.3630    1.2702    6.7966 N   0  3  0  0  0  0  0  0  0  0  0  0
   -5.5480   -3.1962    6.3329 C   0  0  0  0  0  0  0  0  0  0  0  0
   -3.2617   -3.4981    3.4331 C   0  0  2  0  0  0  0  0  0  0  0  0
   -3.1701   -5.0152    3.2876 C   0  0  2  0  0  0  0  0  0  0  0  0
   -2.6917   -5.3726    1.9308 N   0  3  0  0  0  0  0  0  0  0  0  0
   -4.5347   -5.6484    3.5243 C   0  0  1  0  0  0  0  0  0  0  0  0
   -4.4207   -7.0618    3.4630 O   0  0  0  0  0  0  0  0  0  0  0  0
   -5.0653   -5.2228    4.8914 C   0  0  2  0  0  0  0  0  0  0  0  0
   -6.3690   -5.7538    5.0911 O   0  0  0  0  0  0  0  0  0  0  0  0
   -4.4265   -2.5592    7.0605 N   0  3  0  0  0  0  0  0  0  0  0  0
   -5.1131   -3.6980    4.9670 C   0  0  2  0  0  0  0  0  0  0  0  0
   -3.8068   -3.1472    4.7022 O   0  0  0  0  0  0  0  0  0  0  0  0
   -4.0502    0.8276    0.4653 C   0  0  2  0  0  0  0  0  0  0  0  0
   -3.9534    2.2917    0.2646 N   0  3  0  0  0  0  0  0  0  0  0  0
   -5.1328    0.5128    1.4915 C   0  0  0  0  0  0  0  0  0  0  0  0
   -5.2421   -0.9898    1.7098 C   0  0  2  0  0  0  0  0  0  0  0  0
   -6.2891   -1.2223    2.6946 N   0  3  0  0  0  0  0  0  0  0  0  0
   -3.9040   -1.5404    2.1973 C   0  0  1  0  0  0  0  0  0  0  0  0
   -4.0077   -2.9667    2.3743 O   0  0  0  0  0  0  0  0  0  0  0  0
   -2.7882   -1.2311    1.1895 C   0  0  2  0  0  0  0  0  0  0  0  0
   -1.5257   -1.6700    1.7261 O   0  0  0  0  0  0  0  0  0  0  0  0
   -2.6975    0.2648    0.8984 C   0  0  1  0  0  0  0  0  0  0  0  0
   -1.7401    0.4912   -0.1276 O   0  0  0  0  0  0  0  0  0  0  0  0
  1  2  1  0  0  0  0
  3  2  1  1  0  0  0
  3  5  1  0  0  0  0
  3  4  1  0  0  0  0
  4  9  1  0  0  0  0
  5  7  1  0  0  0  0
  5  6  1  6  0  0  0
  7  9  1  0  0  0  0
  7  8  1  6  0  0  0
  9 40  1  1  0  0  0
 10  6  1  1  0  0  0
 10 11  1  0  0  0  0
 10 18  1  0  0  0  0
 11 13  1  0  0  0  0
 11 12  1  1  0  0  0
 13 15  1  0  0  0  0
 13 14  1  6  0  0  0
 15 17  1  0  0  0  0
 15 16  1  1  0  0  0
 17 19  1  1  0  0  0
 17 18  1  0  0  0  0
 19 20  1  0  0  0  0
 21 29  1  0  0  0  0
 22 23  1  0  0  0  0
 22 31  1  0  0  0  0
 22 38  1  6  0  0  0
 23 25  1  0  0  0  0
 23 24  1  6  0  0  0
 25 27  1  0  0  0  0
 25 26  1  1  0  0  0
 27 30  1  0  0  0  0
 27 28  1  6  0  0  0
 30 21  1  1  0  0  0
 30 31  1  0  0  0  0
 32 34  1  0  0  0  0
 32 41  1  0  0  0  0
 32 33  1  1  0  0  0
 34 35  1  0  0  0  0
 35 37  1  0  0  0  0
 35 36  1  1  0  0  0
 37 39  1  0  0  0  0
 37 38  1  6  0  0  0
 39 41  1  0  0  0  0
 39 40  1  1  0  0  0
 41 42  1  6  0  0  0
M  CHG  6  12   1  20   1  24   1  29   1  33   1  36   1
M  END
>  <CHROM.1>
42.28928873,61.27569012,177.16610563,-176.12746060,-169.16754324,-131.72022525
-55.00037622,163.62505353,65.62958490,-49.93645644,-75.54027555,109.67913455
-62.45065170,-165.40449176,146.98575333,49.83720033,-51.25772485,88.40177360
-172.57226604,-145.56877585,158.41782230,-54.04808017,-0.91917681,-1.54859544
2.92643124,-0.44089354,0.22504347,2.66736057

>  <Name>
1NEM.B

>  <RI>
0

>  <Rbt.Current_Directory>
/home/itssahil/PROJECTS/Mol_Feturizer/New_Systems/rnas/1nem

>  <Rbt.Executable>
rbdock ($Id: //depot/dev/client3/rdock/2013.1/src/exe/rbdock.cxx#4 $)

>  <Rbt.Library>
libRbt.so (2013.1, Build901 2013/11/27)

>  <Rbt.Parameter_File>
/export/apps/rDock/src/rDock_2013.1_src/data/scripts/dock_solv.prm

>  <Rbt.Receptor>
prm/blind_docking_40.prm

>  <SCORE>
-34.4256

>  <SCORE.INTER>
-47.4789

>  <SCORE.INTER.CONST>
1

>  <SCORE.INTER.POLAR>
-6.46083

>  <SCORE.INTER.ROT>
9

>  <SCORE.INTER.SOLV>
41.1503

>  <SCORE.INTER.VDW>
-33.4333

>  <SCORE.INTER.norm>
-1.13045

>  <SCORE.INTRA>
8.46816

>  <SCORE.INTRA.DIHEDRAL>
6.66162

>  <SCORE.INTRA.DIHEDRAL.0>
22.4324

>  <SCORE.INTRA.POLAR>
0.880659

>  <SCORE.INTRA.POLAR.0>
-1.83749

>  <SCORE.INTRA.REPUL>
0

>  <SCORE.INTRA.REPUL.0>
0

>  <SCORE.INTRA.SOLV>
-2.58639

>  <SCORE.INTRA.SOLV.lig_0>
-160.638

>  <SCORE.INTRA.VDW>
3.43631

>  <SCORE.INTRA.VDW.0>
-7.61953

>  <SCORE.INTRA.norm>
0.201623

>  <SCORE.RESTR>
4.58521

>  <SCORE.RESTR.CAVITY>
4.58521

>  <SCORE.RESTR.norm>
0.109172

>  <SCORE.SYSTEM>
0

>  <SCORE.SYSTEM.CONST>
0

>  <SCORE.SYSTEM.DIHEDRAL>
0

>  <SCORE.SYSTEM.SOLV>
0

>  <SCORE.SYSTEM.norm>
0

>  <SCORE.heavy>
42

>  <SCORE.norm>
-0.819657

>  <RMSD>
2.298

$$$$
1NEM.B
 OpenBabel11021811403D
libRbt.so/2013.1/901 2013/11/27
 42 45  0  0  0  0  0  0  0  0999 V2000
    3.6304   -2.0137    3.6074 O   0  0  0  0  0  0  0  0  0  0  0  0
    2.6662   -2.7425    2.8450 C   0  0  0  0  0  0  0  0  0  0  0  0
    2.4897   -2.1993    1.4277 C   0  0  1  0  0  0  0  0  0  0  0  0
    1.1345   -2.3230    1.0062 O   0  0  0  0  0  0  0  0  0  0  0  0
    2.7638   -0.7112    1.2798 C   0  0  1  0  0  0  0  0  0  0  0  0
    4.1772   -0.5269    1.3876 O   0  0  0  0  0  0  0  0  0  0  0  0
    2.1559   -0.4933   -0.0930 C   0  0  1  0  0  0  0  0  0  0  0  0
    2.9284   -1.1077   -1.1298 O   0  0  0  0  0  0  0  0  0  0  0  0
    0.8398   -1.2542    0.1066 C   0  0  2  0  0  0  0  0  0  0  0  0
    4.6822    0.6826    0.8983 C   0  0  2  0  0  0  0  0  0  0  0  0
    6.1040    0.8921    1.4368 C   0  0  2  0  0  0  0  0  0  0  0  0
    6.1115    0.7718    2.9186 N   0  3  0  0  0  0  0  0  0  0  0  0
    6.6689    2.2395    0.9754 C   0  0  1  0  0  0  0  0  0  0  0  0
    6.9396    2.1916   -0.4192 O   0  0  0  0  0  0  0  0  0  0  0  0
    5.6892    3.3797    1.2698 C   0  0  2  0  0  0  0  0  0  0  0  0
    5.5832    3.5902    2.6721 O   0  0  0  0  0  0  0  0  0  0  0  0
    4.3190    3.0418    0.6890 C   0  0  1  0  0  0  0  0  0  0  0  0
    3.8564    1.7904    1.2330 O   0  0  0  0  0  0  0  0  0  0  0  0
    3.2673    4.0974    0.9819 C   0  0  0  0  0  0  0  0  0  0  0  0
    3.4756    5.3225    0.1784 N   0  3  0  0  0  0  0  0  0  0  0  0
   -4.2849   -2.1729    4.9071 C   0  0  0  0  0  0  0  0  0  0  0  0
   -1.9839   -2.2132    2.0035 C   0  0  2  0  0  0  0  0  0  0  0  0
   -1.8340   -3.7142    1.7678 C   0  0  2  0  0  0  0  0  0  0  0  0
   -1.3401   -3.9711    0.3940 N   0  3  0  0  0  0  0  0  0  0  0  0
   -3.1737   -4.4120    1.9609 C   0  0  1  0  0  0  0  0  0  0  0  0
   -3.0055   -5.8139    1.8157 O   0  0  0  0  0  0  0  0  0  0  0  0
   -3.7225   -4.0897    3.3489 C   0  0  2  0  0  0  0  0  0  0  0  0
   -5.0053   -4.6810    3.5113 O   0  0  0  0  0  0  0  0  0  0  0  0
   -5.7548   -2.0036    4.9696 N   0  3  0  0  0  0  0  0  0  0  0  0
   -3.8288   -2.5750    3.5153 C   0  0  2  0  0  0  0  0  0  0  0  0
   -2.5442   -1.9599    3.2891 O   0  0  0  0  0  0  0  0  0  0  0  0
   -2.2601    2.0473   -1.0613 C   0  0  2  0  0  0  0  0  0  0  0  0
   -2.0666    3.4961   -1.3000 N   0  3  0  0  0  0  0  0  0  0  0  0
   -3.5356    1.8172   -0.2587 C   0  0  0  0  0  0  0  0  0  0  0  0
   -3.7463    0.3314   -0.0037 C   0  0  2  0  0  0  0  0  0  0  0  0
   -4.9756    0.1802    0.7619 N   0  3  0  0  0  0  0  0  0  0  0  0
   -2.5540   -0.2362    0.7629 C   0  0  1  0  0  0  0  0  0  0  0  0
   -2.7480   -1.6481    0.9754 O   0  0  0  0  0  0  0  0  0  0  0  0
   -1.2498   -0.0116   -0.0149 C   0  0  2  0  0  0  0  0  0  0  0  0
   -0.1367   -0.4629    0.7800 O   0  0  0  0  0  0  0  0  0  0  0  0
   -1.0432    1.4646   -0.3446 C   0  0  1  0  0  0  0  0  0  0  0  0
    0.1061    1.6103   -1.1682 O   0  0  0  0  0  0  0  0  0  0  0  0
  1  2  1  0  0  0  0
  3  2  1  1  0  0  0
  3  5  1  0  0  0  0
  3  4  1  0  0  0  0
  4  9  1  0  0  0  0
  5  7  1  0  0  0  0
  5  6  1  6  0  0  0
  7  9  1  0  0  0  0
  7  8  1  6  0  0  0
  9 40  1  1  0  0  0
 10  6  1  1  0  0  0
 10 11  1  0  0  0  0
 10 18  1  0  0  0  0
 11 13  1  0  0  0  0
 11 12  1  1  0  0  0
 13 15  1  0  0  0  0
 13 14  1  6  0  0  0
 15 17  1  0  0  0  0
 15 16  1  1  0  0  0
 17 19  1  1  0  0  0
 17 18  1  0  0  0  0
 19 20  1  0  0  0  0
 21 29  1  0  0  0  0
 22 23  1  0  0  0  0
 22 31  1  0  0  0  0
 22 38  1  6  0  0  0
 23 25  1  0  0  0  0
 23 24  1  6  0  0  0
 25 27  1  0  0  0  0
 25 26  1  1  0  0  0
 27 30  1  0  0  0  0
 27 28  1  6  0  0  0
 30 21  1  1  0  0  0
 30 31  1  0  0  0  0
 32 34  1  0  0  0  0
 32 41  1  0  0  0  0
 32 33  1  1  0  0  0
 34 35  1  0  0  0  0
 35 37  1  0  0  0  0
 35 36  1  1  0  0  0
 37 39  1  0  0  0  0
 37 38  1  6  0  0  0
 39 41  1  0  0  0  0
 39 40  1  1  0  0  0
 41 42  1  6  0  0  0
M  CHG  6  12   1  20   1  24   1  29   1  33   1  36   1
M  END
>  <CHROM.1>
-179.78854703,-145.05873249,161.86499131,164.07507590,-57.53266090,-136.38769287
44.06898500,178.43666695,-173.56581427,72.93028680,-40.92874235,-93.09367633
3.02306309,-156.99838491,72.28175567,65.77667050,174.43849981,52.49876872
149.45162396,-160.34726695,134.53179995,67.75668052,0.45129650,-0.33416328
1.29758989,-0.51106010,0.09347163,2.69659293

>  <Name>
1NEM.B

>  <RI>
0

>  <Rbt.Current_Directory>
/home/itssahil/PROJECTS/Mol_Feturizer/New_Systems/rnas/1nem

>  <Rbt.Executable>
rbdock ($Id: //depot/dev/client3/rdock/2013.1/src/exe/rbdock.cxx#4 $)

>  <Rbt.Library>
libRbt.so (2013.1, Build901 2013/11/27)

>  <Rbt.Parameter_File>
/export/apps/rDock/src/rDock_2013.1_src/data/scripts/dock_solv.prm

>  <Rbt.Receptor>
prm/pocket_docking_6.prm

>  <SCORE>
-42.3827

>  <SCORE.INTER>
-49.5066

>  <SCORE.INTER.CONST>
1

>  <SCORE.INTER.POLAR>
-6.20786

>  <SCORE.INTER.ROT>
9

>  <SCORE.INTER.SOLV>
34.4125

>  <SCORE.INTER.VDW>
-33.3824

>  <SCORE.INTER.norm>
-1.17873

>  <SCORE.INTRA>
7.1239

>  <SCORE.INTRA.DIHEDRAL>
12.2315

>  <SCORE.INTRA.DIHEDRAL.0>
22.4324

>  <SCORE.INTRA.POLAR>
-0.127127

>  <SCORE.INTRA.POLAR.0>
-1.83749

>  <SCORE.INTRA.REPUL>
0.0475126

>  <SCORE.INTRA.REPUL.0>
0

>  <SCORE.INTRA.SOLV>
-4.00788

>  <SCORE.INTRA.SOLV.lig_0>
-160.638

>  <SCORE.INTRA.VDW>
3.20678

>  <SCORE.INTRA.VDW.0>
-7.61953

>  <SCORE.INTRA.norm>
0.169617

>  <SCORE.RESTR>
0

>  <SCORE.RESTR.CAVITY>
0

>  <SCORE.RESTR.norm>
0

>  <SCORE.SYSTEM>
0

>  <SCORE.SYSTEM.CONST>
0

>  <SCORE.SYSTEM.DIHEDRAL>
0

>  <SCORE.SYSTEM.SOLV>
0

>  <SCORE.SYSTEM.norm>
0

>  <SCORE.heavy>
42

>  <SCORE.norm>
-1.00911

>  <RMSD>
2.302

$$$$
1NEM.B
 OpenBabel11021811403D
libRbt.so/2013.1/901 2013/11/27
 42 45  0  0  0  0  0  0  0  0999 V2000
    1.3452   -4.9743    1.9873 O   0  0  0  0  0  0  0  0  0  0  0  0
    1.8536   -3.7318    2.4771 C   0  0  0  0  0  0  0  0  0  0  0  0
    2.0361   -2.6854    1.3788 C   0  0  1  0  0  0  0  0  0  0  0  0
    0.8729   -2.6065    0.5601 O   0  0  0  0  0  0  0  0  0  0  0  0
    2.2028   -1.2603    1.8816 C   0  0  1  0  0  0  0  0  0  0  0  0
    3.5049   -1.1649    2.4638 O   0  0  0  0  0  0  0  0  0  0  0  0
    1.9908   -0.5210    0.5738 C   0  0  1  0  0  0  0  0  0  0  0  0
    3.0781   -0.7121   -0.3375 O   0  0  0  0  0  0  0  0  0  0  0  0
    0.7477   -1.2687    0.0772 C   0  0  2  0  0  0  0  0  0  0  0  0
    3.7768    0.0042    3.1824 C   0  0  2  0  0  0  0  0  0  0  0  0
    5.2841    0.0894    3.4585 C   0  0  2  0  0  0  0  0  0  0  0  0
    5.7553   -1.1615    4.1092 N   0  3  0  0  0  0  0  0  0  0  0  0
    5.6151    1.3253    4.3014 C   0  0  1  0  0  0  0  0  0  0  0  0
    5.4430    2.4984    3.5173 O   0  0  0  0  0  0  0  0  0  0  0  0
    4.7226    1.4023    5.5440 C   0  0  2  0  0  0  0  0  0  0  0  0
    5.0461    0.3552    6.4501 O   0  0  0  0  0  0  0  0  0  0  0  0
    3.2573    1.2989    5.1306 C   0  0  1  0  0  0  0  0  0  0  0  0
    3.0445    0.0762    4.3988 O   0  0  0  0  0  0  0  0  0  0  0  0
    2.2999    1.3123    6.3093 C   0  0  0  0  0  0  0  0  0  0  0  0
    1.7644    2.6668    6.5707 N   0  3  0  0  0  0  0  0  0  0  0  0
   -1.4392   -4.1438    1.5147 C   0  0  0  0  0  0  0  0  0  0  0  0
   -3.7282   -1.3440    0.7091 C   0  0  2  0  0  0  0  0  0  0  0  0
   -5.0109   -1.8057    1.3964 C   0  0  2  0  0  0  0  0  0  0  0  0
   -5.9226   -0.6560    1.6072 N   0  3  0  0  0  0  0  0  0  0  0  0
   -4.6856   -2.4443    2.7401 C   0  0  1  0  0  0  0  0  0  0  0  0
   -5.8767   -2.9385    3.3331 O   0  0  0  0  0  0  0  0  0  0  0  0
   -3.6884   -3.5828    2.5368 C   0  0  2  0  0  0  0  0  0  0  0  0
   -3.3265   -4.1393    3.7941 O   0  0  0  0  0  0  0  0  0  0  0  0
   -2.0515   -5.2257    0.7099 N   0  3  0  0  0  0  0  0  0  0  0  0
   -2.4428   -3.0489    1.8322 C   0  0  2  0  0  0  0  0  0  0  0  0
   -2.8079   -2.4250    0.5843 O   0  0  0  0  0  0  0  0  0  0  0  0
   -1.5284    1.6531   -2.0017 C   0  0  2  0  0  0  0  0  0  0  0  0
   -0.7463    2.5980   -2.8316 N   0  3  0  0  0  0  0  0  0  0  0  0
   -2.5325    2.4183   -1.1470 C   0  0  0  0  0  0  0  0  0  0  0  0
   -3.3427    1.4592   -0.2862 C   0  0  2  0  0  0  0  0  0  0  0  0
   -4.2794    2.2489    0.5006 N   0  3  0  0  0  0  0  0  0  0  0  0
   -2.4078    0.6613    0.6197 C   0  0  1  0  0  0  0  0  0  0  0  0
   -3.1795   -0.2636    1.4104 O   0  0  0  0  0  0  0  0  0  0  0  0
   -1.3760   -0.1145   -0.2108 C   0  0  2  0  0  0  0  0  0  0  0  0
   -0.4478   -0.7706    0.6738 O   0  0  0  0  0  0  0  0  0  0  0  0
   -0.5915    0.8132   -1.1351 C   0  0  1  0  0  0  0  0  0  0  0  0
    0.2607    0.0409   -1.9705 O   0  0  0  0  0  0  0  0  0  0  0  0
  1  2  1  0  0  0  0
  3  2  1  1  0  0  0
  3  5  1  0  0  0  0
  3  4  1  0  0  0  0
  4  9  1  0  0  0  0
  5  7  1  0  0  0  0
  5  6  1  6  0  0  0
  7  9  1  0  0  0  0
  7  8  1  6  0  0  0
  9 40  1  1  0  0  0
 10  6  1  1  0  0  0
 10 11  1  0  0  0  0
 10 18  1  0  0  0  0
 11 13  1  0  0  0  0
 11 12  1  1  0  0  0
 13 15  1  0  0  0  0
 13 14  1  6  0  0  0
 15 17  1  0  0  0  0
 15 16  1  1  0  0  0
 17 19  1  1  0  0  0
 17 18  1  0  0  0  0
 19 20  1  0  0  0  0
 21 29  1  0  0  0  0
 22 23  1  0  0  0  0
 22 31  1  0  0  0  0
 22 38  1  1  0  0  0
 23 25  1  0  0  0  0
 23 24  1  1  0  0  0
 25 27  1  0  0  0  0
 25 26  1  6  0  0  0
 27 30  1  0  0  0  0
 27 28  1  1  0  0  0
 30 21  1  6  0  0  0
 30 31  1  0  0  0  0
 32 34  1  0  0  0  0
 32 41  1  0  0  0  0
 32 33  1  1  0  0  0
 34 35  1  0  0  0  0
 35 37  1  0  0  0  0
 35 36  1  1  0  0  0
 37 39  1  0  0  0  0
 37 38  1  6  0  0  0
 39 41  1  0  0  0  0
 39 40  1  1  0  0  0
 41 42  1  6  0  0  0
M  CHG  6  12   1  20   1  24   1  29   1  33   1  36   1
M  END
>  <CHROM.1>
44.05971360,47.84611713,-169.87980901,-167.20087156,-57.80660306,-131.71420127
-39.18009023,-68.51876071,-77.81386000,96.09017309,35.84673400,55.83267687
16.16924011,-151.39024423,-46.08038320,58.71435578,64.92479140,-137.14116901
36.67782792,70.99011174,-165.69625967,69.98341506,0.05991704,-0.73196304
1.88177220,0.06980858,0.43951228,2.48038170

>  <Name>
1NEM.B

>  <RI>
0

>  <Rbt.Current_Directory>
/home/itssahil/PROJECTS/Mol_Feturizer/New_Systems/rnas/1nem

>  <Rbt.Executable>
rbdock ($Id: //depot/dev/client3/rdock/2013.1/src/exe/rbdock.cxx#4 $)

>  <Rbt.Library>
libRbt.so (2013.1, Build901 2013/11/27)

>  <Rbt.Parameter_File>
/export/apps/rDock/src/rDock_2013.1_src/data/scripts/dock_solv.prm

>  <Rbt.Receptor>
prm/pocket_docking_2.prm

>  <SCORE>
-29.0756

>  <SCORE.INTER>
-47.7402

>  <SCORE.INTER.CONST>
1

>  <SCORE.INTER.POLAR>
-5.63175

>  <SCORE.INTER.ROT>
9

>  <SCORE.INTER.SOLV>
45.5251

>  <SCORE.INTER.VDW>
-37.8294

>  <SCORE.INTER.norm>
-1.13667

>  <SCORE.INTRA>
17.6064

>  <SCORE.INTRA.DIHEDRAL>
8.38468

>  <SCORE.INTRA.DIHEDRAL.0>
22.4324

>  <SCORE.INTRA.POLAR>
1.76984

>  <SCORE.INTRA.POLAR.0>
-1.83749

>  <SCORE.INTRA.REPUL>
0

>  <SCORE.INTRA.REPUL.0>
0

>  <SCORE.INTRA.SOLV>
-2.50271

>  <SCORE.INTRA.SOLV.lig_0>
-160.638

>  <SCORE.INTRA.VDW>
8.64796

>  <SCORE.INTRA.VDW.0>
-7.61953

>  <SCORE.INTRA.norm>
0.4192

>  <SCORE.RESTR>
1.05822

>  <SCORE.RESTR.CAVITY>
1.05822

>  <SCORE.RESTR.norm>
0.0251957

>  <SCORE.SYSTEM>
0

>  <SCORE.SYSTEM.CONST>
0

>  <SCORE.SYSTEM.DIHEDRAL>
0

>  <SCORE.SYSTEM.SOLV>
0

>  <SCORE.SYSTEM.norm>
0

>  <SCORE.heavy>
42

>  <SCORE.norm>
-0.692277

>  <RMSD>
2.313

$$$$
1NEM.B
 OpenBabel11021811403D
libRbt.so/2013.1/901 2013/11/27
 42 45  0  0  0  0  0  0  0  0999 V2000
    2.2762   -5.5172    1.9847 O   0  0  0  0  0  0  0  0  0  0  0  0
    1.4576   -4.4705    2.5104 C   0  0  0  0  0  0  0  0  0  0  0  0
    1.4961   -3.1987    1.6644 C   0  0  1  0  0  0  0  0  0  0  0  0
    0.4136   -3.1769    0.7385 O   0  0  0  0  0  0  0  0  0  0  0  0
    1.3074   -1.9095    2.4480 C   0  0  1  0  0  0  0  0  0  0  0  0
    2.5060   -1.6868    3.1943 O   0  0  0  0  0  0  0  0  0  0  0  0
    1.0458   -0.9644    1.2903 C   0  0  1  0  0  0  0  0  0  0  0  0
    2.2186   -0.7391    0.5010 O   0  0  0  0  0  0  0  0  0  0  0  0
    0.0396   -1.8181    0.5095 C   0  0  2  0  0  0  0  0  0  0  0  0
    2.7586   -0.3656    3.5788 C   0  0  2  0  0  0  0  0  0  0  0  0
    4.1430    0.0546    3.0668 C   0  0  2  0  0  0  0  0  0  0  0  0
    5.1696   -0.9260    3.5082 N   0  3  0  0  0  0  0  0  0  0  0  0
    4.4850    1.4765    3.5239 C   0  0  1  0  0  0  0  0  0  0  0  0
    3.6720    2.4109    2.8265 O   0  0  0  0  0  0  0  0  0  0  0  0
    4.2748    1.6378    5.0326 C   0  0  2  0  0  0  0  0  0  0  0  0
    5.2392    0.8777    5.7497 O   0  0  0  0  0  0  0  0  0  0  0  0
    2.8679    1.1800    5.4066 C   0  0  1  0  0  0  0  0  0  0  0  0
    2.6738   -0.1844    4.9863 O   0  0  0  0  0  0  0  0  0  0  0  0
    2.5902    1.2550    6.8977 C   0  0  0  0  0  0  0  0  0  0  0  0
    1.1850    0.9170    7.2155 N   0  3  0  0  0  0  0  0  0  0  0  0
   -7.0299   -5.3327    1.7007 C   0  0  0  0  0  0  0  0  0  0  0  0
   -4.9201   -2.3631    2.3773 C   0  0  2  0  0  0  0  0  0  0  0  0
   -4.1210   -2.8397    3.5878 C   0  0  2  0  0  0  0  0  0  0  0  0
   -2.9003   -2.0153    3.7538 N   0  3  0  0  0  0  0  0  0  0  0  0
   -3.7238   -4.2994    3.4127 C   0  0  1  0  0  0  0  0  0  0  0  0
   -3.0497   -4.7522    4.5768 O   0  0  0  0  0  0  0  0  0  0  0  0
   -4.9728   -5.1430    3.1672 C   0  0  2  0  0  0  0  0  0  0  0  0
   -4.6044   -6.4962    2.9339 O   0  0  0  0  0  0  0  0  0  0  0  0
   -7.9686   -5.1826    2.8362 N   0  3  0  0  0  0  0  0  0  0  0  0
   -5.7253   -4.5977    1.9549 C   0  0  2  0  0  0  0  0  0  0  0  0
   -6.0474   -3.2065    2.1557 O   0  0  0  0  0  0  0  0  0  0  0  0
   -2.8067    1.0091   -1.0857 C   0  0  2  0  0  0  0  0  0  0  0  0
   -2.3105    2.3570   -1.4465 N   0  3  0  0  0  0  0  0  0  0  0  0
   -4.1116    1.1257   -0.3061 C   0  0  0  0  0  0  0  0  0  0  0  0
   -4.6326   -0.2533    0.0738 C   0  0  2  0  0  0  0  0  0  0  0  0
   -5.8752   -0.0730    0.8110 N   0  3  0  0  0  0  0  0  0  0  0  0
   -3.5953   -0.9819    0.9249 C   0  0  1  0  0  0  0  0  0  0  0  0
   -4.0840   -2.2963    1.2564 O   0  0  0  0  0  0  0  0  0  0  0  0
   -2.2638   -1.1075    0.1714 C   0  0  2  0  0  0  0  0  0  0  0  0
   -1.2798   -1.7038    1.0379 O   0  0  0  0  0  0  0  0  0  0  0  0
   -1.7479    0.2559   -0.2820 C   0  0  1  0  0  0  0  0  0  0  0  0
   -0.5839    0.0815   -1.0790 O   0  0  0  0  0  0  0  0  0  0  0  0
  1  2  1  0  0  0  0
  3  2  1  1  0  0  0
  3  5  1  0  0  0  0
  3  4  1  0  0  0  0
  4  9  1  0  0  0  0
  5  7  1  0  0  0  0
  5  6  1  6  0  0  0
  7  9  1  0  0  0  0
  7  8  1  6  0  0  0
  9 40  1  1  0  0  0
 10  6  1  1  0  0  0
 10 11  1  0  0  0  0
 10 18  1  0  0  0  0
 11 13  1  0  0  0  0
 11 12  1  1  0  0  0
 13 15  1  0  0  0  0
 13 14  1  6  0  0  0
 15 17  1  0  0  0  0
 15 16  1  1  0  0  0
 17 19  1  1  0  0  0
 17 18  1  0  0  0  0
 19 20  1  0  0  0  0
 21 29  1  0  0  0  0
 22 23  1  0  0  0  0
 22 31  1  0  0  0  0
 22 38  1  6  0  0  0
 23 25  1  0  0  0  0
 23 24  1  6  0  0  0
 25 27  1  0  0  0  0
 25 26  1  1  0  0  0
 27 30  1  0  0  0  0
 27 28  1  6  0  0  0
 30 21  1  1  0  0  0
 30 31  1  0  0  0  0
 32 34  1  0  0  0  0
 32 41  1  0  0  0  0
 32 33  1  1  0  0  0
 34 35  1  0  0  0  0
 35 37  1  0  0  0  0
 35 36  1  1  0  0  0
 37 39  1  0  0  0  0
 37 38  1  6  0  0  0
 39 41  1  0  0  0  0
 39 40  1  1  0  0  0
 41 42  1  6  0  0  0
M  CHG  6  12   1  20   1  24   1  29   1  33   1  36   1
M  END
>  <CHROM.1>
-50.46314131,94.59457574,157.04764295,-124.46127440,-77.96389070,-129.82491517
87.50748035,178.31358346,-82.27019623,175.08128996,121.14218531,62.19419328
-52.68989484,-99.79593618,60.28311496,70.28300625,62.43012366,-68.54587740
142.74929239,-84.60606416,-176.44186295,82.57851371,-0.85456390,-1.51146339
2.38697465,-0.15626376,0.42305642,2.46545249

>  <Name>
1NEM.B

>  <RI>
0

>  <Rbt.Current_Directory>
/home/itssahil/PROJECTS/Mol_Feturizer/New_Systems/rnas/1nem

>  <Rbt.Executable>
rbdock ($Id: //depot/dev/client3/rdock/2013.1/src/exe/rbdock.cxx#4 $)

>  <Rbt.Library>
libRbt.so (2013.1, Build901 2013/11/27)

>  <Rbt.Parameter_File>
/export/apps/rDock/src/rDock_2013.1_src/data/scripts/dock_solv.prm

>  <Rbt.Receptor>
prm/blind_docking_20.prm

>  <SCORE>
-18.7796

>  <SCORE.INTER>
-41.2741

>  <SCORE.INTER.CONST>
1

>  <SCORE.INTER.POLAR>
-7.56023

>  <SCORE.INTER.ROT>
9

>  <SCORE.INTER.SOLV>
50.0191

>  <SCORE.INTER.VDW>
-28.5883

>  <SCORE.INTER.norm>
-0.982716

>  <SCORE.INTRA>
17.4334

>  <SCORE.INTRA.DIHEDRAL>
20.2302

>  <SCORE.INTRA.DIHEDRAL.0>
22.4324

>  <SCORE.INTRA.POLAR>
0.806506

>  <SCORE.INTRA.POLAR.0>
-1.83749

>  <SCORE.INTRA.REPUL>
0

>  <SCORE.INTRA.REPUL.0>
0

>  <SCORE.INTRA.SOLV>
-3.37822

>  <SCORE.INTRA.SOLV.lig_0>
-160.638

>  <SCORE.INTRA.VDW>
6.26524

>  <SCORE.INTRA.VDW.0>
-7.61953

>  <SCORE.INTRA.norm>
0.41508

>  <SCORE.RESTR>
5.06107

>  <SCORE.RESTR.CAVITY>
5.06107

>  <SCORE.RESTR.norm>
0.120502

>  <SCORE.SYSTEM>
0

>  <SCORE.SYSTEM.CONST>
0

>  <SCORE.SYSTEM.DIHEDRAL>
0

>  <SCORE.SYSTEM.SOLV>
0

>  <SCORE.SYSTEM.norm>
0

>  <SCORE.heavy>
42

>  <SCORE.norm>
-0.447133

>  <RMSD>
2.327

$$$$
1NEM.B
 OpenBabel11021811403D
libRbt.so/2013.1/901 2013/11/27
 42 45  0  0  0  0  0  0  0  0999 V2000
    3.1113   -4.1732    1.8370 O   0  0  0  0  0  0  0  0  0  0  0  0
    2.7885   -3.0317    2.6338 C   0  0  0  0  0  0  0  0  0  0  0  0
    2.7274   -1.7361    1.8260 C   0  0  1  0  0  0  0  0  0  0  0  0
    1.8829   -1.8909    0.6893 O   0  0  0  0  0  0  0  0  0  0  0  0
    2.1065   -0.5590    2.5610 C   0  0  1  0  0  0  0  0  0  0  0  0
    3.0466   -0.1315    3.5493 O   0  0  0  0  0  0  0  0  0  0  0  0
    1.8944    0.3718    1.3817 C   0  0  1  0  0  0  0  0  0  0  0  0
    3.1292    0.8792    0.8649 O   0  0  0  0  0  0  0  0  0  0  0  0
    1.2811   -0.6297    0.3961 C   0  0  2  0  0  0  0  0  0  0  0  0
    4.3020    0.2666    3.0774 C   0  0  2  0  0  0  0  0  0  0  0  0
    5.3069   -0.8741    3.2879 C   0  0  2  0  0  0  0  0  0  0  0  0
    5.2898   -1.3136    4.7080 N   0  3  0  0  0  0  0  0  0  0  0  0
    6.7111   -0.4530    2.8425 C   0  0  1  0  0  0  0  0  0  0  0  0
    6.7517   -0.3492    1.4254 O   0  0  0  0  0  0  0  0  0  0  0  0
    7.1107    0.8872    3.4676 C   0  0  2  0  0  0  0  0  0  0  0  0
    7.2975    0.7421    4.8698 O   0  0  0  0  0  0  0  0  0  0  0  0
    6.0271    1.9257    3.1914 C   0  0  1  0  0  0  0  0  0  0  0  0
    4.7641    1.4570    3.7023 O   0  0  0  0  0  0  0  0  0  0  0  0
    6.3164    3.2759    3.8235 C   0  0  0  0  0  0  0  0  0  0  0  0
    6.5506    3.1649    5.2804 N   0  3  0  0  0  0  0  0  0  0  0  0
   -2.0344   -4.1211    3.6037 C   0  0  0  0  0  0  0  0  0  0  0  0
   -2.3530   -2.0339    0.5592 C   0  0  2  0  0  0  0  0  0  0  0  0
   -3.3620   -2.8456   -0.2496 C   0  0  2  0  0  0  0  0  0  0  0  0
   -3.9917   -1.9944   -1.2871 N   0  3  0  0  0  0  0  0  0  0  0  0
   -4.4416   -3.4045    0.6676 C   0  0  1  0  0  0  0  0  0  0  0  0
   -5.3284   -4.2200   -0.0828 O   0  0  0  0  0  0  0  0  0  0  0  0
   -3.7924   -4.2217    1.7822 C   0  0  2  0  0  0  0  0  0  0  0  0
   -4.7886   -4.6895    2.6824 O   0  0  0  0  0  0  0  0  0  0  0  0
   -2.8975   -4.4159    4.7704 N   0  3  0  0  0  0  0  0  0  0  0  0
   -2.7877   -3.3503    2.5336 C   0  0  2  0  0  0  0  0  0  0  0  0
   -1.8093   -2.8189    1.6171 O   0  0  0  0  0  0  0  0  0  0  0  0
   -1.1778    2.3521   -1.1001 C   0  0  2  0  0  0  0  0  0  0  0  0
   -0.4375    3.6045   -1.3771 N   0  3  0  0  0  0  0  0  0  0  0  0
   -2.3773    2.6428   -0.2052 C   0  0  0  0  0  0  0  0  0  0  0  0
   -3.1471    1.3631    0.0899 C   0  0  2  0  0  0  0  0  0  0  0  0
   -4.2753    1.7081    0.9433 N   0  3  0  0  0  0  0  0  0  0  0  0
   -2.2305    0.3554    0.7797 C   0  0  1  0  0  0  0  0  0  0  0  0
   -2.9585   -0.8627    1.0300 O   0  0  0  0  0  0  0  0  0  0  0  0
   -1.0053    0.0478   -0.0924 C   0  0  2  0  0  0  0  0  0  0  0  0
   -0.1124   -0.8220    0.6293 O   0  0  0  0  0  0  0  0  0  0  0  0
   -0.2485    1.3212   -0.4615 C   0  0  1  0  0  0  0  0  0  0  0  0
    0.8003    1.0041   -1.3670 O   0  0  0  0  0  0  0  0  0  0  0  0
  1  2  1  0  0  0  0
  3  2  1  1  0  0  0
  3  5  1  0  0  0  0
  3  4  1  0  0  0  0
  4  9  1  0  0  0  0
  5  7  1  0  0  0  0
  5  6  1  1  0  0  0
  7  9  1  0  0  0  0
  7  8  1  6  0  0  0
  9 40  1  1  0  0  0
 10  6  1  1  0  0  0
 10 11  1  0  0  0  0
 10 18  1  0  0  0  0
 11 13  1  0  0  0  0
 11 12  1  1  0  0  0
 13 15  1  0  0  0  0
 13 14  1  6  0  0  0
 15 17  1  0  0  0  0
 15 16  1  1  0  0  0
 17 19  1  1  0  0  0
 17 18  1  0  0  0  0
 19 20  1  0  0  0  0
 21 29  1  0  0  0  0
 22 23  1  0  0  0  0
 22 31  1  0  0  0  0
 22 38  1  1  0  0  0
 23 25  1  0  0  0  0
 23 24  1  6  0  0  0
 25 27  1  0  0  0  0
 25 26  1  6  0  0  0
 27 30  1  0  0  0  0
 27 28  1  1  0  0  0
 30 21  1  1  0  0  0
 30 31  1  0  0  0  0
 32 34  1  0  0  0  0
 32 41  1  0  0  0  0
 32 33  1  1  0  0  0
 34 35  1  0  0  0  0
 35 37  1  0  0  0  0
 35 36  1  1  0  0  0
 37 39  1  0  0  0  0
 37 38  1  6  0  0  0
 39 41  1  0  0  0  0
 39 40  1  1  0  0  0
 41 42  1  6  0  0  0
M  CHG  6  12   1  20   1  24   1  29   1  33   1  36   1
M  END
>  <CHROM.1>
44.92002872,51.46996453,59.04571759,-100.71812425,-170.39451748,-154.67008659
-157.32905979,62.15370330,65.67762059,-55.01010103,22.10046906,-73.07725065
53.50540043,-129.99885421,-78.58651537,-62.72491066,64.83197143,68.39967590
72.51095220,127.35757534,-145.74420836,64.35551048,0.80682904,-0.66466050
1.70625301,-0.13773768,0.37403962,2.65167020

>  <Name>
1NEM.B

>  <RI>
0

>  <Rbt.Current_Directory>
/home/itssahil/PROJECTS/Mol_Feturizer/New_Systems/rnas/1nem

>  <Rbt.Executable>
rbdock ($Id: //depot/dev/client3/rdock/2013.1/src/exe/rbdock.cxx#4 $)

>  <Rbt.Library>
libRbt.so (2013.1, Build901 2013/11/27)

>  <Rbt.Parameter_File>
/export/apps/rDock/src/rDock_2013.1_src/data/scripts/dock_solv.prm

>  <Rbt.Receptor>
prm/pocket_docking_2.prm

>  <SCORE>
6.38165

>  <SCORE.INTER>
-23.8352

>  <SCORE.INTER.CONST>
1

>  <SCORE.INTER.POLAR>
-5.49164

>  <SCORE.INTER.ROT>
9

>  <SCORE.INTER.SOLV>
42.8004

>  <SCORE.INTER.VDW>
-21.4514

>  <SCORE.INTER.norm>
-0.567504

>  <SCORE.INTRA>
22.5081

>  <SCORE.INTRA.DIHEDRAL>
12.5492

>  <SCORE.INTRA.DIHEDRAL.0>
22.4324

>  <SCORE.INTRA.POLAR>
0.0715088

>  <SCORE.INTRA.POLAR.0>
-1.83749

>  <SCORE.INTRA.REPUL>
0

>  <SCORE.INTRA.REPUL.0>
0

>  <SCORE.INTRA.SOLV>
-0.228068

>  <SCORE.INTRA.SOLV.lig_0>
-160.638

>  <SCORE.INTRA.VDW>
16.1044

>  <SCORE.INTRA.VDW.0>
-7.61953

>  <SCORE.INTRA.norm>
0.535907

>  <SCORE.RESTR>
7.70873

>  <SCORE.RESTR.CAVITY>
7.70873

>  <SCORE.RESTR.norm>
0.183541

>  <SCORE.SYSTEM>
0

>  <SCORE.SYSTEM.CONST>
0

>  <SCORE.SYSTEM.DIHEDRAL>
0

>  <SCORE.SYSTEM.SOLV>
0

>  <SCORE.SYSTEM.norm>
0

>  <SCORE.heavy>
42

>  <SCORE.norm>
0.151944

>  <RMSD>
2.373

$$$$
1NEM.B
 OpenBabel11021811403D
libRbt.so/2013.1/901 2013/11/27
 42 45  0  0  0  0  0  0  0  0999 V2000
    2.4389   -4.7345    2.9160 O   0  0  0  0  0  0  0  0  0  0  0  0
    1.1537   -4.2644    2.5043 C   0  0  0  0  0  0  0  0  0  0  0  0
    1.2299   -3.0805    1.5413 C   0  0  1  0  0  0  0  0  0  0  0  0
    0.0076   -2.9352    0.8242 O   0  0  0  0  0  0  0  0  0  0  0  0
    1.4007   -1.7270    2.2123 C   0  0  1  0  0  0  0  0  0  0  0  0
    2.7398   -1.6648    2.7084 O   0  0  0  0  0  0  0  0  0  0  0  0
    1.0750   -0.8335    1.0301 C   0  0  1  0  0  0  0  0  0  0  0  0
    2.0957   -0.8709    0.0271 O   0  0  0  0  0  0  0  0  0  0  0  0
   -0.1839   -1.5514    0.5296 C   0  0  2  0  0  0  0  0  0  0  0  0
    3.2476   -0.3855    2.9594 C   0  0  2  0  0  0  0  0  0  0  0  0
    4.6599   -0.5079    3.5473 C   0  0  2  0  0  0  0  0  0  0  0  0
    4.6445   -1.4110    4.7282 N   0  3  0  0  0  0  0  0  0  0  0  0
    5.2264    0.8719    3.8974 C   0  0  1  0  0  0  0  0  0  0  0  0
    5.5193    1.5850    2.7031 O   0  0  0  0  0  0  0  0  0  0  0  0
    4.2376    1.6763    4.7468 C   0  0  2  0  0  0  0  0  0  0  0  0
    4.1088    1.0950    6.0381 O   0  0  0  0  0  0  0  0  0  0  0  0
    2.8781    1.7135    4.0545 C   0  0  1  0  0  0  0  0  0  0  0  0
    2.4121    0.3692    3.8275 O   0  0  0  0  0  0  0  0  0  0  0  0
    1.8177    2.4480    4.8558 C   0  0  0  0  0  0  0  0  0  0  0  0
    1.0577    3.4043    4.0204 N   0  3  0  0  0  0  0  0  0  0  0  0
   -7.2335   -4.8406    1.5735 C   0  0  0  0  0  0  0  0  0  0  0  0
   -4.9088   -2.3322    2.9983 C   0  0  2  0  0  0  0  0  0  0  0  0
   -4.3683   -3.0871    4.2103 C   0  0  2  0  0  0  0  0  0  0  0  0
   -3.0967   -2.4785    4.6688 N   0  3  0  0  0  0  0  0  0  0  0  0
   -4.1285   -4.5482    3.8543 C   0  0  1  0  0  0  0  0  0  0  0  0
   -3.7006   -5.2553    5.0081 O   0  0  0  0  0  0  0  0  0  0  0  0
   -5.4179   -5.1601    3.3111 C   0  0  2  0  0  0  0  0  0  0  0  0
   -5.1846   -6.5045    2.9117 O   0  0  0  0  0  0  0  0  0  0  0  0
   -8.1483   -5.2449    2.6656 N   0  3  0  0  0  0  0  0  0  0  0  0
   -5.9041   -4.3443    2.1147 C   0  0  2  0  0  0  0  0  0  0  0  0
   -6.0824   -2.9647    2.4947 O   0  0  0  0  0  0  0  0  0  0  0  0
   -3.6676    0.8138   -0.9332 C   0  0  2  0  0  0  0  0  0  0  0  0
   -3.5142    2.1492   -1.5548 N   0  3  0  0  0  0  0  0  0  0  0  0
   -4.8528    0.8184    0.0256 C   0  0  0  0  0  0  0  0  0  0  0  0
   -5.0214   -0.5484    0.6742 C   0  0  2  0  0  0  0  0  0  0  0  0
   -6.1651   -0.4777    1.5726 N   0  3  0  0  0  0  0  0  0  0  0  0
   -3.7518   -0.9191    1.4372 C   0  0  1  0  0  0  0  0  0  0  0  0
   -3.9088   -2.2256    2.0242 O   0  0  0  0  0  0  0  0  0  0  0  0
   -2.5354   -0.9232    0.5008 C   0  0  2  0  0  0  0  0  0  0  0  0
   -1.3429   -1.1730    1.2690 O   0  0  0  0  0  0  0  0  0  0  0  0
   -2.3784    0.4152   -0.2167 C   0  0  1  0  0  0  0  0  0  0  0  0
   -1.3200    0.3257   -1.1613 O   0  0  0  0  0  0  0  0  0  0  0  0
  1  2  1  0  0  0  0
  3  2  1  1  0  0  0
  3  5  1  0  0  0  0
  3  4  1  0  0  0  0
  4  9  1  0  0  0  0
  5  7  1  0  0  0  0
  5  6  1  6  0  0  0
  7  9  1  0  0  0  0
  7  8  1  6  0  0  0
  9 40  1  1  0  0  0
 10  6  1  1  0  0  0
 10 11  1  0  0  0  0
 10 18  1  0  0  0  0
 11 13  1  0  0  0  0
 11 12  1  1  0  0  0
 13 15  1  0  0  0  0
 13 14  1  6  0  0  0
 15 17  1  0  0  0  0
 15 16  1  1  0  0  0
 17 19  1  1  0  0  0
 17 18  1  0  0  0  0
 19 20  1  0  0  0  0
 21 29  1  0  0  0  0
 22 23  1  0  0  0  0
 22 31  1  0  0  0  0
 22 38  1  6  0  0  0
 23 25  1  0  0  0  0
 23 24  1  6  0  0  0
 25 27  1  0  0  0  0
 25 26  1  1  0  0  0
 27 30  1  0  0  0  0
 27 28  1  6  0  0  0
 30 21  1  1  0  0  0
 30 31  1  0  0  0  0
 32 34  1  0  0  0  0
 32 41  1  0  0  0  0
 32 33  1  1  0  0  0
 34 35  1  0  0  0  0
 35 37  1  0  0  0  0
 35 36  1  1  0  0  0
 37 39  1  0  0  0  0
 37 38  1  6  0  0  0
 39 41  1  0  0  0  0
 39 40  1  1  0  0  0
 41 42  1  6  0  0  0
M  CHG  6  12   1  20   1  24   1  29   1  33   1  36   1
M  END
>  <CHROM.1>
58.52654522,160.59231662,159.58263508,177.24890754,-178.88652710,-108.47623098
-104.70317105,-63.66239143,-90.34171011,133.06237869,161.79397106,39.02090410
-174.95790684,-133.79438423,84.86649598,-168.91550236,-90.66296475,100.01708825
164.86860197,-64.14971431,164.28748488,73.88557172,-1.05827013,-1.42066989
2.37801827,-0.25267836,0.32594682,2.59901609

>  <Name>
1NEM.B

>  <RI>
0

>  <Rbt.Current_Directory>
/home/itssahil/PROJECTS/Mol_Feturizer/New_Systems/rnas/1nem

>  <Rbt.Executable>
rbdock ($Id: //depot/dev/client3/rdock/2013.1/src/exe/rbdock.cxx#4 $)

>  <Rbt.Library>
libRbt.so (2013.1, Build901 2013/11/27)

>  <Rbt.Parameter_File>
/export/apps/rDock/src/rDock_2013.1_src/data/scripts/dock_solv.prm

>  <Rbt.Receptor>
prm/blind_docking_60.prm

>  <SCORE>
-17.9473

>  <SCORE.INTER>
-39.4332

>  <SCORE.INTER.CONST>
1

>  <SCORE.INTER.POLAR>
-6.295

>  <SCORE.INTER.ROT>
9

>  <SCORE.INTER.SOLV>
52.5098

>  <SCORE.INTER.VDW>
-32.4087

>  <SCORE.INTER.norm>
-0.938885

>  <SCORE.INTRA>
17.9932

>  <SCORE.INTRA.DIHEDRAL>
18.8359

>  <SCORE.INTRA.DIHEDRAL.0>
22.4324

>  <SCORE.INTRA.POLAR>
0.334209

>  <SCORE.INTRA.POLAR.0>
-1.83749

>  <SCORE.INTRA.REPUL>
0.032022

>  <SCORE.INTRA.REPUL.0>
0

>  <SCORE.INTRA.SOLV>
-3.8974

>  <SCORE.INTRA.SOLV.lig_0>
-160.638

>  <SCORE.INTRA.VDW>
9.22751

>  <SCORE.INTRA.VDW.0>
-7.61953

>  <SCORE.INTRA.norm>
0.428409

>  <SCORE.RESTR>
3.49268

>  <SCORE.RESTR.CAVITY>
3.49268

>  <SCORE.RESTR.norm>
0.083159

>  <SCORE.SYSTEM>
0

>  <SCORE.SYSTEM.CONST>
0

>  <SCORE.SYSTEM.DIHEDRAL>
0

>  <SCORE.SYSTEM.SOLV>
0

>  <SCORE.SYSTEM.norm>
0

>  <SCORE.heavy>
42

>  <SCORE.norm>
-0.427317

>  <RMSD>
2.419

$$$$
1NEM.B
 OpenBabel11021811403D
libRbt.so/2013.1/901 2013/11/27
 42 45  0  0  0  0  0  0  0  0999 V2000
    2.4468   -2.5823    0.3697 O   0  0  0  0  0  0  0  0  0  0  0  0
    3.0348   -1.9099   -0.7457 C   0  0  0  0  0  0  0  0  0  0  0  0
    2.5084   -0.4877   -0.9325 C   0  0  1  0  0  0  0  0  0  0  0  0
    1.1658   -0.5062   -1.4087 O   0  0  0  0  0  0  0  0  0  0  0  0
    2.4102    0.3257    0.3482 C   0  0  1  0  0  0  0  0  0  0  0  0
    3.7431    0.6586    0.7431 O   0  0  0  0  0  0  0  0  0  0  0  0
    1.5505    1.4674   -0.1612 C   0  0  1  0  0  0  0  0  0  0  0  0
    2.2599    2.3129   -1.0728 O   0  0  0  0  0  0  0  0  0  0  0  0
    0.4924    0.6509   -0.9125 C   0  0  2  0  0  0  0  0  0  0  0  0
    4.2681   -0.0649    1.8192 C   0  0  2  0  0  0  0  0  0  0  0  0
    3.3273    0.0664    3.0246 C   0  0  2  0  0  0  0  0  0  0  0  0
    3.0638    1.5010    3.3124 N   0  3  0  0  0  0  0  0  0  0  0  0
    3.9007   -0.6598    4.2457 C   0  0  1  0  0  0  0  0  0  0  0  0
    3.8387   -2.0647    4.0386 O   0  0  0  0  0  0  0  0  0  0  0  0
    5.3512   -0.2424    4.5065 C   0  0  2  0  0  0  0  0  0  0  0  0
    5.4055    1.1111    4.9394 O   0  0  0  0  0  0  0  0  0  0  0  0
    6.1720   -0.4146    3.2316 C   0  0  1  0  0  0  0  0  0  0  0  0
    5.5812    0.3550    2.1664 O   0  0  0  0  0  0  0  0  0  0  0  0
    7.6164    0.0285    3.3845 C   0  0  0  0  0  0  0  0  0  0  0  0
    7.7279    1.4915    3.5777 N   0  3  0  0  0  0  0  0  0  0  0  0
   -4.4051   -3.8665    4.0473 C   0  0  0  0  0  0  0  0  0  0  0  0
   -2.0016   -1.7229    2.2155 C   0  0  2  0  0  0  0  0  0  0  0  0
   -0.8507   -2.6999    1.9874 C   0  0  2  0  0  0  0  0  0  0  0  0
    0.0199   -2.2196    0.8880 N   0  3  0  0  0  0  0  0  0  0  0  0
   -1.3944   -4.0780    1.6349 C   0  0  1  0  0  0  0  0  0  0  0  0
   -0.3187   -4.9944    1.5018 O   0  0  0  0  0  0  0  0  0  0  0  0
   -2.3505   -4.5457    2.7299 C   0  0  2  0  0  0  0  0  0  0  0  0
   -2.9157   -5.8011    2.3750 O   0  0  0  0  0  0  0  0  0  0  0  0
   -5.8179   -3.6222    3.6768 N   0  3  0  0  0  0  0  0  0  0  0  0
   -3.4616   -3.5132    2.9108 C   0  0  2  0  0  0  0  0  0  0  0  0
   -2.8944   -2.2212    3.2083 O   0  0  0  0  0  0  0  0  0  0  0  0
   -3.5489    2.0084   -1.2669 C   0  0  2  0  0  0  0  0  0  0  0  0
   -3.7373    3.4332   -1.6246 N   0  3  0  0  0  0  0  0  0  0  0  0
   -4.4626    1.6379   -0.1042 C   0  0  0  0  0  0  0  0  0  0  0  0
   -4.2780    0.1755    0.2761 C   0  0  2  0  0  0  0  0  0  0  0  0
   -5.1754   -0.1135    1.3857 N   0  3  0  0  0  0  0  0  0  0  0  0
   -2.8248   -0.0769    0.6711 C   0  0  1  0  0  0  0  0  0  0  0  0
   -2.6522   -1.4686    1.0022 O   0  0  0  0  0  0  0  0  0  0  0  0
   -1.8760    0.2962   -0.4764 C   0  0  2  0  0  0  0  0  0  0  0  0
   -0.5128    0.1461   -0.0362 O   0  0  0  0  0  0  0  0  0  0  0  0
   -2.0840    1.7402   -0.9261 C   0  0  1  0  0  0  0  0  0  0  0  0
   -1.2768    2.0030   -2.0663 O   0  0  0  0  0  0  0  0  0  0  0  0
  1  2  1  0  0  0  0
  3  2  1  1  0  0  0
  3  5  1  0  0  0  0
  3  4  1  0  0  0  0
  4  9  1  0  0  0  0
  5  7  1  0  0  0  0
  5  6  1  6  0  0  0
  7  9  1  0  0  0  0
  7  8  1  6  0  0  0
  9 40  1  1  0  0  0
 10  6  1  6  0  0  0
 10 11  1  0  0  0  0
 10 18  1  0  0  0  0
 11 13  1  0  0  0  0
 11 12  1  1  0  0  0
 13 15  1  0  0  0  0
 13 14  1  6  0  0  0
 15 17  1  0  0  0  0
 15 16  1  6  0  0  0
 17 19  1  1  0  0  0
 17 18  1  0  0  0  0
 19 20  1  0  0  0  0
 21 29  1  0  0  0  0
 22 23  1  0  0  0  0
 22 31  1  0  0  0  0
 22 38  1  6  0  0  0
 23 25  1  0  0  0  0
 23 24  1  6  0  0  0
 25 27  1  0  0  0  0
 25 26  1  1  0  0  0
 27 30  1  0  0  0  0
 27 28  1  6  0  0  0
 30 21  1  1  0  0  0
 30 31  1  0  0  0  0
 32 34  1  0  0  0  0
 32 41  1  0  0  0  0
 32 33  1  1  0  0  0
 34 35  1  0  0  0  0
 35 37  1  0  0  0  0
 35 36  1  1  0  0  0
 37 39  1  0  0  0  0
 37 38  1  6  0  0  0
 39 41  1  0  0  0  0
 39 40  1  1  0  0  0
 41 42  1  6  0  0  0
M  CHG  6  12   1  20   1  24   1  29   1  33   1  36   1
M  END
>  <CHROM.1>
155.90340903,-71.62120232,-104.58214369,-55.43310515,174.57993916,-110.97038678
-63.91472350,67.32704790,66.11686559,-67.41672841,-61.35415012,-137.67331195
-158.48087106,-128.49423936,-86.05937501,81.05586863,154.42017064,-38.14258312
123.02567682,-130.53376956,-170.54927289,-56.70681641,0.41396668,-0.67728831
1.40263687,-0.04767397,0.24827356,2.48171560

>  <Name>
1NEM.B

>  <RI>
0

>  <Rbt.Current_Directory>
/home/itssahil/PROJECTS/Mol_Feturizer/New_Systems/rnas/1nem

>  <Rbt.Executable>
rbdock ($Id: //depot/dev/client3/rdock/2013.1/src/exe/rbdock.cxx#4 $)

>  <Rbt.Library>
libRbt.so (2013.1, Build901 2013/11/27)

>  <Rbt.Parameter_File>
/export/apps/rDock/src/rDock_2013.1_src/data/scripts/dock_solv.prm

>  <Rbt.Receptor>
prm/pocket_docking_7.prm

>  <SCORE>
-37.7001

>  <SCORE.INTER>
-55.436

>  <SCORE.INTER.CONST>
1

>  <SCORE.INTER.POLAR>
-7.37392

>  <SCORE.INTER.ROT>
9

>  <SCORE.INTER.SOLV>
31.9115

>  <SCORE.INTER.VDW>
-32.6148

>  <SCORE.INTER.norm>
-1.31991

>  <SCORE.INTRA>
17.7359

>  <SCORE.INTRA.DIHEDRAL>
24.5754

>  <SCORE.INTRA.DIHEDRAL.0>
22.4324

>  <SCORE.INTRA.POLAR>
-1.02656

>  <SCORE.INTRA.POLAR.0>
-1.83749

>  <SCORE.INTRA.REPUL>
0

>  <SCORE.INTRA.REPUL.0>
0

>  <SCORE.INTRA.SOLV>
6.87573

>  <SCORE.INTRA.SOLV.lig_0>
-160.638

>  <SCORE.INTRA.VDW>
5.50068

>  <SCORE.INTRA.VDW.0>
-7.61953

>  <SCORE.INTRA.norm>
0.422284

>  <SCORE.RESTR>
0

>  <SCORE.RESTR.CAVITY>
0

>  <SCORE.RESTR.norm>
0

>  <SCORE.SYSTEM>
0

>  <SCORE.SYSTEM.CONST>
0

>  <SCORE.SYSTEM.DIHEDRAL>
0

>  <SCORE.SYSTEM.SOLV>
0

>  <SCORE.SYSTEM.norm>
0

>  <SCORE.heavy>
42

>  <SCORE.norm>
-0.897622

>  <RMSD>
2.423

$$$$
1NEM.B
 OpenBabel11021811403D
libRbt.so/2013.1/901 2013/11/27
 42 45  0  0  0  0  0  0  0  0999 V2000
    4.0757   -1.0123   -1.0503 O   0  0  0  0  0  0  0  0  0  0  0  0
    3.5532   -0.4167    0.1390 C   0  0  0  0  0  0  0  0  0  0  0  0
    2.6619    0.7928   -0.1395 C   0  0  1  0  0  0  0  0  0  0  0  0
    1.5227    0.4131   -0.9059 O   0  0  0  0  0  0  0  0  0  0  0  0
    2.0499    1.4283    1.0987 C   0  0  1  0  0  0  0  0  0  0  0  0
    3.0994    2.1108    1.7887 O   0  0  0  0  0  0  0  0  0  0  0  0
    1.0045    2.2986    0.4266 C   0  0  1  0  0  0  0  0  0  0  0  0
    1.5900    3.3916   -0.2887 O   0  0  0  0  0  0  0  0  0  0  0  0
    0.4347    1.2689   -0.5563 C   0  0  2  0  0  0  0  0  0  0  0  0
    3.8469    1.3453    2.6901 C   0  0  2  0  0  0  0  0  0  0  0  0
    2.9762    1.0027    3.9066 C   0  0  2  0  0  0  0  0  0  0  0  0
    2.3930    2.2432    4.4823 N   0  3  0  0  0  0  0  0  0  0  0  0
    3.7799    0.2185    4.9490 C   0  0  1  0  0  0  0  0  0  0  0  0
    4.0456   -1.0901    4.4617 O   0  0  0  0  0  0  0  0  0  0  0  0
    5.1003    0.9236    5.2742 C   0  0  2  0  0  0  0  0  0  0  0  0
    4.8531    2.1376    5.9721 O   0  0  0  0  0  0  0  0  0  0  0  0
    5.8603    1.2112    3.9824 C   0  0  1  0  0  0  0  0  0  0  0  0
    5.0387    2.0020    3.1017 O   0  0  0  0  0  0  0  0  0  0  0  0
    7.1620    1.9601    4.2073 C   0  0  0  0  0  0  0  0  0  0  0  0
    6.9736    3.4265    4.1440 N   0  3  0  0  0  0  0  0  0  0  0  0
   -4.2815   -3.9715    3.7658 C   0  0  0  0  0  0  0  0  0  0  0  0
   -1.8689   -1.8072    1.9707 C   0  0  2  0  0  0  0  0  0  0  0  0
   -0.7132   -2.7791    1.7453 C   0  0  2  0  0  0  0  0  0  0  0  0
    0.1654   -2.2880    0.6569 N   0  3  0  0  0  0  0  0  0  0  0  0
   -1.2496   -4.1561    1.3778 C   0  0  1  0  0  0  0  0  0  0  0  0
   -0.1701   -5.0683    1.2471 O   0  0  0  0  0  0  0  0  0  0  0  0
   -2.2137   -4.6348    2.4611 C   0  0  2  0  0  0  0  0  0  0  0  0
   -2.7721   -5.8891    2.0919 O   0  0  0  0  0  0  0  0  0  0  0  0
   -5.3783   -2.9845    3.8912 N   0  3  0  0  0  0  0  0  0  0  0  0
   -3.3294   -3.6070    2.6400 C   0  0  2  0  0  0  0  0  0  0  0  0
   -2.7686   -2.3155    2.9521 O   0  0  0  0  0  0  0  0  0  0  0  0
   -3.6586    1.9720   -1.3315 C   0  0  2  0  0  0  0  0  0  0  0  0
   -4.0054    3.3866   -1.6001 N   0  3  0  0  0  0  0  0  0  0  0  0
   -4.6165    1.3876   -0.2995 C   0  0  0  0  0  0  0  0  0  0  0  0
   -4.2704   -0.0666   -0.0117 C   0  0  2  0  0  0  0  0  0  0  0  0
   -5.2185   -0.5638    0.9752 N   0  3  0  0  0  0  0  0  0  0  0  0
   -2.8390   -0.1641    0.5107 C   0  0  1  0  0  0  0  0  0  0  0  0
   -2.5098   -1.5457    0.7538 O   0  0  0  0  0  0  0  0  0  0  0  0
   -1.8482    0.4260   -0.5024 C   0  0  2  0  0  0  0  0  0  0  0  0
   -0.5236    0.4140    0.0633 O   0  0  0  0  0  0  0  0  0  0  0  0
   -2.2084    1.8651   -0.8627 C   0  0  1  0  0  0  0  0  0  0  0  0
   -1.3431    2.3274   -1.8913 O   0  0  0  0  0  0  0  0  0  0  0  0
  1  2  1  0  0  0  0
  3  2  1  1  0  0  0
  3  5  1  0  0  0  0
  3  4  1  0  0  0  0
  4  9  1  0  0  0  0
  5  7  1  0  0  0  0
  5  6  1  6  0  0  0
  7  9  1  0  0  0  0
  7  8  1  6  0  0  0
  9 40  1  1  0  0  0
 10  6  1  6  0  0  0
 10 11  1  0  0  0  0
 10 18  1  0  0  0  0
 11 13  1  0  0  0  0
 11 12  1  1  0  0  0
 13 15  1  0  0  0  0
 13 14  1  6  0  0  0
 15 17  1  0  0  0  0
 15 16  1  6  0  0  0
 17 19  1  1  0  0  0
 17 18  1  0  0  0  0
 19 20  1  0  0  0  0
 21 29  1  0  0  0  0
 22 23  1  0  0  0  0
 22 31  1  0  0  0  0
 22 38  1  6  0  0  0
 23 25  1  0  0  0  0
 23 24  1  6  0  0  0
 25 27  1  0  0  0  0
 25 26  1  1  0  0  0
 27 30  1  0  0  0  0
 27 28  1  6  0  0  0
 30 21  1  1  0  0  0
 30 31  1  0  0  0  0
 32 34  1  0  0  0  0
 32 41  1  0  0  0  0
 32 33  1  1  0  0  0
 34 35  1  0  0  0  0
 35 37  1  0  0  0  0
 35 36  1  1  0  0  0
 37 39  1  0  0  0  0
 37 38  1  6  0  0  0
 39 41  1  0  0  0  0
 39 40  1  1  0  0  0
 41 42  1  6  0  0  0
M  CHG  6  12   1  20   1  24   1  29   1  33   1  36   1
M  END
>  <CHROM.1>
-52.88490346,61.94389236,-86.62457650,-70.24539699,68.93424375,-124.84543892
147.84993898,-144.31668702,173.43538782,-90.82263106,58.01288664,-178.14997684
59.66111609,-136.19317532,-75.29765053,-68.39177608,-53.14073727,83.60731959
176.17016366,-134.37086534,-161.95382520,70.84276551,0.35526470,-0.09515936
1.62796708,0.15196370,-0.43646803,-0.61315404

>  <Name>
1NEM.B

>  <RI>
0

>  <Rbt.Current_Directory>
/home/itssahil/PROJECTS/Mol_Feturizer/New_Systems/rnas/1nem

>  <Rbt.Executable>
rbdock ($Id: //depot/dev/client3/rdock/2013.1/src/exe/rbdock.cxx#4 $)

>  <Rbt.Library>
libRbt.so (2013.1, Build901 2013/11/27)

>  <Rbt.Parameter_File>
/export/apps/rDock/src/rDock_2013.1_src/data/scripts/dock_solv.prm

>  <Rbt.Receptor>
prm/pocket_docking_2.prm

>  <SCORE>
-35.459

>  <SCORE.INTER>
-53.7672

>  <SCORE.INTER.CONST>
1

>  <SCORE.INTER.POLAR>
-7.38383

>  <SCORE.INTER.ROT>
9

>  <SCORE.INTER.SOLV>
36.8303

>  <SCORE.INTER.VDW>
-33.1088

>  <SCORE.INTER.norm>
-1.28017

>  <SCORE.INTRA>
14.7619

>  <SCORE.INTRA.DIHEDRAL>
15.4235

>  <SCORE.INTRA.DIHEDRAL.0>
22.4324

>  <SCORE.INTRA.POLAR>
0.0923668

>  <SCORE.INTRA.POLAR.0>
-1.83749

>  <SCORE.INTRA.REPUL>
0

>  <SCORE.INTRA.REPUL.0>
0

>  <SCORE.INTRA.SOLV>
1.76949

>  <SCORE.INTRA.SOLV.lig_0>
-160.638

>  <SCORE.INTRA.VDW>
5.85132

>  <SCORE.INTRA.VDW.0>
-7.61953

>  <SCORE.INTRA.norm>
0.351473

>  <SCORE.RESTR>
3.54628

>  <SCORE.RESTR.CAVITY>
3.54628

>  <SCORE.RESTR.norm>
0.0844352

>  <SCORE.SYSTEM>
0

>  <SCORE.SYSTEM.CONST>
0

>  <SCORE.SYSTEM.DIHEDRAL>
0

>  <SCORE.SYSTEM.SOLV>
0

>  <SCORE.SYSTEM.norm>
0

>  <SCORE.heavy>
42

>  <SCORE.norm>
-0.844263

>  <RMSD>
2.445

$$$$
1NEM.B
 OpenBabel11021811403D
libRbt.so/2013.1/901 2013/11/27
 42 45  0  0  0  0  0  0  0  0999 V2000
    2.3220   -4.9422    2.4755 O   0  0  0  0  0  0  0  0  0  0  0  0
    1.9227   -3.6018    2.7689 C   0  0  0  0  0  0  0  0  0  0  0  0
    1.9192   -2.6957    1.5386 C   0  0  1  0  0  0  0  0  0  0  0  0
    0.6436   -2.7125    0.9045 O   0  0  0  0  0  0  0  0  0  0  0  0
    2.1384   -1.2209    1.8363 C   0  0  1  0  0  0  0  0  0  0  0  0
    3.5124   -1.0600    2.1964 O   0  0  0  0  0  0  0  0  0  0  0  0
    1.7178   -0.6437    0.4977 C   0  0  1  0  0  0  0  0  0  0  0  0
    2.6563   -0.9462   -0.5401 O   0  0  0  0  0  0  0  0  0  0  0  0
    0.4254   -1.4421    0.2904 C   0  0  2  0  0  0  0  0  0  0  0  0
    3.8328    0.0996    2.9106 C   0  0  2  0  0  0  0  0  0  0  0  0
    4.9777   -0.2067    3.8856 C   0  0  2  0  0  0  0  0  0  0  0  0
    4.6280   -1.3784    4.7313 N   0  3  0  0  0  0  0  0  0  0  0  0
    5.3150    1.0234    4.7344 C   0  0  1  0  0  0  0  0  0  0  0  0
    5.9418    2.0070    3.9219 O   0  0  0  0  0  0  0  0  0  0  0  0
    4.0561    1.6139    5.3770 C   0  0  2  0  0  0  0  0  0  0  0  0
    3.5442    0.7285    6.3650 O   0  0  0  0  0  0  0  0  0  0  0  0
    3.0003    1.8627    4.3035 C   0  0  1  0  0  0  0  0  0  0  0  0
    2.7152    0.6329    3.6090 O   0  0  0  0  0  0  0  0  0  0  0  0
    1.6939    2.3996    4.8612 C   0  0  0  0  0  0  0  0  0  0  0  0
    1.0577    3.3689    3.9416 N   0  3  0  0  0  0  0  0  0  0  0  0
   -2.6421   -4.4029    1.1935 C   0  0  0  0  0  0  0  0  0  0  0  0
   -4.2920   -1.1008    1.5112 C   0  0  2  0  0  0  0  0  0  0  0  0
   -5.3359   -1.3958    2.5855 C   0  0  2  0  0  0  0  0  0  0  0  0
   -5.8034   -0.1338    3.2070 N   0  3  0  0  0  0  0  0  0  0  0  0
   -4.7430   -2.2976    3.6598 C   0  0  1  0  0  0  0  0  0  0  0  0
   -5.7441   -2.6273    4.6104 O   0  0  0  0  0  0  0  0  0  0  0  0
   -4.1927   -3.5675    3.0145 C   0  0  2  0  0  0  0  0  0  0  0  0
   -3.5755   -4.3835    4.0017 O   0  0  0  0  0  0  0  0  0  0  0  0
   -1.5484   -4.0332    0.2661 N   0  3  0  0  0  0  0  0  0  0  0  0
   -3.1702   -3.1924    1.9435 C   0  0  2  0  0  0  0  0  0  0  0  0
   -3.7702   -2.3122    0.9715 O   0  0  0  0  0  0  0  0  0  0  0  0
   -2.0829    1.3708   -1.6800 C   0  0  2  0  0  0  0  0  0  0  0  0
   -1.4119    2.2467   -2.6679 N   0  3  0  0  0  0  0  0  0  0  0  0
   -2.9671    2.2050   -0.7599 C   0  0  0  0  0  0  0  0  0  0  0  0
   -3.6621    1.3174    0.2630 C   0  0  2  0  0  0  0  0  0  0  0  0
   -4.4881    2.1706    1.1057 N   0  3  0  0  0  0  0  0  0  0  0  0
   -2.6203    0.5742    1.0958 C   0  0  1  0  0  0  0  0  0  0  0  0
   -3.2860   -0.2846    2.0422 O   0  0  0  0  0  0  0  0  0  0  0  0
   -1.7055   -0.2692    0.1969 C   0  0  2  0  0  0  0  0  0  0  0  0
   -0.6727   -0.8725    0.9995 O   0  0  0  0  0  0  0  0  0  0  0  0
   -1.0442    0.5829   -0.8835 C   0  0  1  0  0  0  0  0  0  0  0  0
   -0.3082   -0.2553   -1.7644 O   0  0  0  0  0  0  0  0  0  0  0  0
  1  2  1  0  0  0  0
  3  2  1  1  0  0  0
  3  5  1  0  0  0  0
  3  4  1  0  0  0  0
  4  9  1  0  0  0  0
  5  7  1  0  0  0  0
  5  6  1  6  0  0  0
  7  9  1  0  0  0  0
  7  8  1  6  0  0  0
  9 40  1  1  0  0  0
 10  6  1  1  0  0  0
 10 11  1  0  0  0  0
 10 18  1  0  0  0  0
 11 13  1  0  0  0  0
 11 12  1  1  0  0  0
 13 15  1  0  0  0  0
 13 14  1  6  0  0  0
 15 17  1  0  0  0  0
 15 16  1  1  0  0  0
 17 19  1  1  0  0  0
 17 18  1  0  0  0  0
 19 20  1  0  0  0  0
 21 29  1  0  0  0  0
 22 23  1  0  0  0  0
 22 31  1  0  0  0  0
 22 38  1  1  0  0  0
 23 25  1  0  0  0  0
 23 24  1  1  0  0  0
 25 27  1  0  0  0  0
 25 26  1  1  0  0  0
 27 30  1  0  0  0  0
 27 28  1  1  0  0  0
 30 21  1  6  0  0  0
 30 31  1  0  0  0  0
 32 34  1  0  0  0  0
 32 41  1  0  0  0  0
 32 33  1  6  0  0  0
 34 35  1  0  0  0  0
 35 37  1  0  0  0  0
 35 36  1  1  0  0  0
 37 39  1  0  0  0  0
 37 38  1  1  0  0  0
 39 41  1  0  0  0  0
 39 40  1  1  0  0  0
 41 42  1  6  0  0  0
M  CHG  6  12   1  20   1  24   1  29   1  33   1  36   1
M  END
>  <CHROM.1>
-145.66614588,90.61962057,-160.14633126,146.83333433,174.30606638,-134.51141364
79.77678123,-173.06388502,-74.87325418,144.50713362,175.89633399,-173.78529761
61.42608869,-151.68244294,107.31078658,-166.11250695,67.40162100,-170.66832209
21.05208714,49.15148753,-166.60373622,57.54880776,-0.25874728,-0.66959871
2.04963297,-0.02061317,0.33635198,2.57843584

>  <Name>
1NEM.B

>  <RI>
0

>  <Rbt.Current_Directory>
/home/itssahil/PROJECTS/Mol_Feturizer/New_Systems/rnas/1nem

>  <Rbt.Executable>
rbdock ($Id: //depot/dev/client3/rdock/2013.1/src/exe/rbdock.cxx#4 $)

>  <Rbt.Library>
libRbt.so (2013.1, Build901 2013/11/27)

>  <Rbt.Parameter_File>
/export/apps/rDock/src/rDock_2013.1_src/data/scripts/dock_solv.prm

>  <Rbt.Receptor>
prm/blind_docking_60.prm

>  <SCORE>
-15.3221

>  <SCORE.INTER>
-41.859

>  <SCORE.INTER.CONST>
1

>  <SCORE.INTER.POLAR>
-5.58468

>  <SCORE.INTER.ROT>
9

>  <SCORE.INTER.SOLV>
52.5488

>  <SCORE.INTER.VDW>
-36.4067

>  <SCORE.INTER.norm>
-0.996643

>  <SCORE.INTRA>
19.8257

>  <SCORE.INTRA.DIHEDRAL>
15.2852

>  <SCORE.INTRA.DIHEDRAL.0>
22.4324

>  <SCORE.INTRA.POLAR>
0.599403

>  <SCORE.INTRA.POLAR.0>
-1.83749

>  <SCORE.INTRA.REPUL>
0

>  <SCORE.INTRA.REPUL.0>
0

>  <SCORE.INTRA.SOLV>
1.26199

>  <SCORE.INTRA.SOLV.lig_0>
-160.638

>  <SCORE.INTRA.VDW>
9.51412

>  <SCORE.INTRA.VDW.0>
-7.61953

>  <SCORE.INTRA.norm>
0.47204

>  <SCORE.RESTR>
6.71116

>  <SCORE.RESTR.CAVITY>
6.71116

>  <SCORE.RESTR.norm>
0.159789

>  <SCORE.SYSTEM>
0

>  <SCORE.SYSTEM.CONST>
0

>  <SCORE.SYSTEM.DIHEDRAL>
0

>  <SCORE.SYSTEM.SOLV>
0

>  <SCORE.SYSTEM.norm>
0

>  <SCORE.heavy>
42

>  <SCORE.norm>
-0.364813

>  <RMSD>
2.468

$$$$
1NEM.B
 OpenBabel11021811403D
libRbt.so/2013.1/901 2013/11/27
 42 45  0  0  0  0  0  0  0  0999 V2000
    3.3816   -1.7679    0.4744 O   0  0  0  0  0  0  0  0  0  0  0  0
    3.5777   -0.5290    1.1592 C   0  0  0  0  0  0  0  0  0  0  0  0
    2.8106    0.6317    0.5277 C   0  0  1  0  0  0  0  0  0  0  0  0
    1.7318    0.1488   -0.2677 O   0  0  0  0  0  0  0  0  0  0  0  0
    2.1222    1.5530    1.5221 C   0  0  1  0  0  0  0  0  0  0  0  0
    3.1420    2.3184    2.1683 O   0  0  0  0  0  0  0  0  0  0  0  0
    1.2179    2.3041    0.5629 C   0  0  1  0  0  0  0  0  0  0  0  0
    1.9522    3.1833   -0.2956 O   0  0  0  0  0  0  0  0  0  0  0  0
    0.6788    1.1126   -0.2375 C   0  0  2  0  0  0  0  0  0  0  0  0
    3.9321    1.6350    3.0988 C   0  0  2  0  0  0  0  0  0  0  0  0
    3.0617    1.2168    4.2916 C   0  0  2  0  0  0  0  0  0  0  0  0
    2.3431    2.3980    4.8380 N   0  3  0  0  0  0  0  0  0  0  0  0
    3.9053    0.5211    5.3649 C   0  0  1  0  0  0  0  0  0  0  0  0
    4.3119   -0.7584    4.8979 O   0  0  0  0  0  0  0  0  0  0  0  0
    5.1401    1.3536    5.7232 C   0  0  2  0  0  0  0  0  0  0  0  0
    4.7546    2.5420    6.4022 O   0  0  0  0  0  0  0  0  0  0  0  0
    5.9081    1.7058    4.4524 C   0  0  1  0  0  0  0  0  0  0  0  0
    5.0411    2.4072    3.5401 O   0  0  0  0  0  0  0  0  0  0  0  0
    7.1233    2.5794    4.7094 C   0  0  0  0  0  0  0  0  0  0  0  0
    8.1664    1.8630    5.4766 N   0  3  0  0  0  0  0  0  0  0  0  0
   -3.7214   -4.2957    3.8325 C   0  0  0  0  0  0  0  0  0  0  0  0
   -1.5681   -1.9116    1.9868 C   0  0  2  0  0  0  0  0  0  0  0  0
   -0.3518   -2.7846    1.6878 C   0  0  2  0  0  0  0  0  0  0  0  0
    0.4357   -2.2035    0.5744 N   0  3  0  0  0  0  0  0  0  0  0  0
   -0.7957   -4.1917    1.3109 C   0  0  1  0  0  0  0  0  0  0  0  0
    0.3445   -5.0131    1.1114 O   0  0  0  0  0  0  0  0  0  0  0  0
   -1.6695   -4.7670    2.4233 C   0  0  2  0  0  0  0  0  0  0  0  0
   -2.1449   -6.0535    2.0487 O   0  0  0  0  0  0  0  0  0  0  0  0
   -2.9961   -4.2189    5.1214 N   0  3  0  0  0  0  0  0  0  0  0  0
   -2.8525   -3.8342    2.6755 C   0  0  2  0  0  0  0  0  0  0  0  0
   -2.3802   -2.5093    2.9939 O   0  0  0  0  0  0  0  0  0  0  0  0
   -3.4793    1.8540   -1.2305 C   0  0  2  0  0  0  0  0  0  0  0  0
   -3.9084    3.2510   -1.4706 N   0  3  0  0  0  0  0  0  0  0  0  0
   -4.4929    1.1432   -0.3409 C   0  0  0  0  0  0  0  0  0  0  0  0
   -4.0633   -0.2944   -0.0836 C   0  0  2  0  0  0  0  0  0  0  0  0
   -5.0693   -0.9151    0.7666 N   0  3  0  0  0  0  0  0  0  0  0  0
   -2.6938   -0.3122    0.5913 C   0  0  1  0  0  0  0  0  0  0  0  0
   -2.2820   -1.6763    0.8056 O   0  0  0  0  0  0  0  0  0  0  0  0
   -1.6501    0.4058   -0.2756 C   0  0  2  0  0  0  0  0  0  0  0  0
   -0.3981    0.4627    0.4341 O   0  0  0  0  0  0  0  0  0  0  0  0
   -2.0846    1.8312   -0.6072 C   0  0  1  0  0  0  0  0  0  0  0  0
   -1.1532    2.4133   -1.5095 O   0  0  0  0  0  0  0  0  0  0  0  0
  1  2  1  0  0  0  0
  3  2  1  1  0  0  0
  3  5  1  0  0  0  0
  3  4  1  0  0  0  0
  4  9  1  0  0  0  0
  5  7  1  0  0  0  0
  5  6  1  6  0  0  0
  7  9  1  0  0  0  0
  7  8  1  6  0  0  0
  9 40  1  1  0  0  0
 10  6  1  6  0  0  0
 10 11  1  0  0  0  0
 10 18  1  0  0  0  0
 11 13  1  0  0  0  0
 11 12  1  1  0  0  0
 13 15  1  0  0  0  0
 13 14  1  6  0  0  0
 15 17  1  0  0  0  0
 15 16  1  6  0  0  0
 17 19  1  1  0  0  0
 17 18  1  0  0  0  0
 19 20  1  0  0  0  0
 21 29  1  0  0  0  0
 22 23  1  0  0  0  0
 22 31  1  0  0  0  0
 22 38  1  6  0  0  0
 23 25  1  0  0  0  0
 23 24  1  6  0  0  0
 25 27  1  0  0  0  0
 25 26  1  1  0  0  0
 27 30  1  0  0  0  0
 27 28  1  6  0  0  0
 30 21  1  1  0  0  0
 30 31  1  0  0  0  0
 32 34  1  0  0  0  0
 32 41  1  0  0  0  0
 32 33  1  1  0  0  0
 34 35  1  0  0  0  0
 35 37  1  0  0  0  0
 35 36  1  1  0  0  0
 37 39  1  0  0  0  0
 37 38  1  6  0  0  0
 39 41  1  0  0  0  0
 39 40  1  1  0  0  0
 41 42  1  6  0  0  0
M  CHG  6  12   1  20   1  24   1  29   1  33   1  36   1
M  END
>  <CHROM.1>
173.47314445,20.97744183,-73.16738373,-65.96384381,62.10834451,-124.39397336
13.79702312,-177.48414224,-166.17811825,66.79015545,-165.20450777,66.35441542
-76.26448104,-134.41921345,36.93990312,-68.36086936,-66.36825918,-160.36247770
-57.29335407,-144.03205325,-179.54308225,-66.29082738,0.62980249,-0.18111640
1.94869374,-0.14019845,0.51745410,2.60978012

>  <Name>
1NEM.B

>  <RI>
0

>  <Rbt.Current_Directory>
/home/itssahil/PROJECTS/Mol_Feturizer/New_Systems/rnas/1nem

>  <Rbt.Executable>
rbdock ($Id: //depot/dev/client3/rdock/2013.1/src/exe/rbdock.cxx#4 $)

>  <Rbt.Library>
libRbt.so (2013.1, Build901 2013/11/27)

>  <Rbt.Parameter_File>
/export/apps/rDock/src/rDock_2013.1_src/data/scripts/dock_solv.prm

>  <Rbt.Receptor>
prm/pocket_docking_4.prm

>  <SCORE>
-51.5758

>  <SCORE.INTER>
-57.3114

>  <SCORE.INTER.CONST>
1

>  <SCORE.INTER.POLAR>
-8.10281

>  <SCORE.INTER.ROT>
9

>  <SCORE.INTER.SOLV>
40.642

>  <SCORE.INTER.VDW>
-34.3456

>  <SCORE.INTER.norm>
-1.36456

>  <SCORE.INTRA>
5.64269

>  <SCORE.INTRA.DIHEDRAL>
9.52383

>  <SCORE.INTRA.DIHEDRAL.0>
22.4324

>  <SCORE.INTRA.POLAR>
-1.58637

>  <SCORE.INTRA.POLAR.0>
-1.83749

>  <SCORE.INTRA.REPUL>
0

>  <SCORE.INTRA.REPUL.0>
0

>  <SCORE.INTRA.SOLV>
1.3204

>  <SCORE.INTRA.SOLV.lig_0>
-160.638

>  <SCORE.INTRA.VDW>
5.61422

>  <SCORE.INTRA.VDW.0>
-7.61953

>  <SCORE.INTRA.norm>
0.13435

>  <SCORE.RESTR>
0.0929681

>  <SCORE.RESTR.CAVITY>
0.0929681

>  <SCORE.RESTR.norm>
0.00221353

>  <SCORE.SYSTEM>
0

>  <SCORE.SYSTEM.CONST>
0

>  <SCORE.SYSTEM.DIHEDRAL>
0

>  <SCORE.SYSTEM.SOLV>
0

>  <SCORE.SYSTEM.norm>
0

>  <SCORE.heavy>
42

>  <SCORE.norm>
-1.22799

>  <RMSD>
2.492

$$$$
1NEM.B
 OpenBabel11021811403D
libRbt.so/2013.1/901 2013/11/27
 42 45  0  0  0  0  0  0  0  0999 V2000
    4.0409   -1.3076   -1.8130 O   0  0  0  0  0  0  0  0  0  0  0  0
    3.5593   -1.0397   -0.4946 C   0  0  0  0  0  0  0  0  0  0  0  0
    2.8146    0.2903   -0.3884 C   0  0  1  0  0  0  0  0  0  0  0  0
    1.5572    0.2179   -1.0541 O   0  0  0  0  0  0  0  0  0  0  0  0
    2.4340    0.6931    1.0274 C   0  0  1  0  0  0  0  0  0  0  0  0
    3.6356    1.0856    1.6948 O   0  0  0  0  0  0  0  0  0  0  0  0
    1.4484    1.7998    0.7023 C   0  0  1  0  0  0  0  0  0  0  0  0
    2.0941    2.9561    0.1589 O   0  0  0  0  0  0  0  0  0  0  0  0
    0.6400    1.0854   -0.3871 C   0  0  2  0  0  0  0  0  0  0  0  0
    4.2539    0.1075    2.4812 C   0  0  2  0  0  0  0  0  0  0  0  0
    3.3191   -0.2793    3.6353 C   0  0  2  0  0  0  0  0  0  0  0  0
    2.8956    0.9367    4.3785 N   0  3  0  0  0  0  0  0  0  0  0  0
    3.9875   -1.3029    4.5588 C   0  0  1  0  0  0  0  0  0  0  0  0
    4.0853   -2.5549    3.8928 O   0  0  0  0  0  0  0  0  0  0  0  0
    5.3834   -0.8362    4.9832 C   0  0  2  0  0  0  0  0  0  0  0  0
    5.2866    0.2911    5.8445 O   0  0  0  0  0  0  0  0  0  0  0  0
    6.2027   -0.4778    3.7466 C   0  0  1  0  0  0  0  0  0  0  0  0
    5.5140    0.5322    2.9841 O   0  0  0  0  0  0  0  0  0  0  0  0
    7.5882    0.0484    4.0778 C   0  0  0  0  0  0  0  0  0  0  0  0
    8.4418    0.1527    2.8735 N   0  3  0  0  0  0  0  0  0  0  0  0
   -3.8810   -2.4464    4.3991 C   0  0  0  0  0  0  0  0  0  0  0  0
   -1.4451   -2.1977    1.6185 C   0  0  2  0  0  0  0  0  0  0  0  0
   -0.9463   -3.6382    1.5348 C   0  0  2  0  0  0  0  0  0  0  0  0
   -0.3184   -3.8880    0.2154 N   0  3  0  0  0  0  0  0  0  0  0  0
   -2.1043   -4.6070    1.7337 C   0  0  1  0  0  0  0  0  0  0  0  0
   -1.6159   -5.9396    1.7313 O   0  0  0  0  0  0  0  0  0  0  0  0
   -2.8011   -4.3052    3.0586 C   0  0  2  0  0  0  0  0  0  0  0  0
   -3.9258   -5.1600    3.2194 O   0  0  0  0  0  0  0  0  0  0  0  0
   -4.8111   -1.3053    4.2384 N   0  3  0  0  0  0  0  0  0  0  0  0
   -3.2561   -2.8471    3.0741 C   0  0  2  0  0  0  0  0  0  0  0  0
   -2.1308   -1.9741    2.8477 O   0  0  0  0  0  0  0  0  0  0  0  0
   -3.4734    1.7234   -1.3176 C   0  0  2  0  0  0  0  0  0  0  0  0
   -3.8927    3.1348   -1.4769 N   0  3  0  0  0  0  0  0  0  0  0  0
   -4.4626    0.9836   -0.4241 C   0  0  0  0  0  0  0  0  0  0  0  0
   -4.0426   -0.4692   -0.2494 C   0  0  2  0  0  0  0  0  0  0  0  0
   -5.0245   -1.1172    0.6084 N   0  3  0  0  0  0  0  0  0  0  0  0
   -2.6494   -0.5338    0.3721 C   0  0  1  0  0  0  0  0  0  0  0  0
   -2.2478   -1.9110    0.5079 O   0  0  0  0  0  0  0  0  0  0  0  0
   -1.6292    0.2117   -0.4995 C   0  0  2  0  0  0  0  0  0  0  0  0
   -0.3512    0.2214    0.1647 O   0  0  0  0  0  0  0  0  0  0  0  0
   -2.0570    1.6559   -0.7487 C   0  0  1  0  0  0  0  0  0  0  0  0
   -1.1520    2.2686   -1.6576 O   0  0  0  0  0  0  0  0  0  0  0  0
  1  2  1  0  0  0  0
  3  2  1  1  0  0  0
  3  5  1  0  0  0  0
  3  4  1  0  0  0  0
  4  9  1  0  0  0  0
  5  7  1  0  0  0  0
  5  6  1  1  0  0  0
  7  9  1  0  0  0  0
  7  8  1  6  0  0  0
  9 40  1  1  0  0  0
 10  6  1  1  0  0  0
 10 11  1  0  0  0  0
 10 18  1  0  0  0  0
 11 13  1  0  0  0  0
 11 12  1  1  0  0  0
 13 15  1  0  0  0  0
 13 14  1  6  0  0  0
 15 17  1  0  0  0  0
 15 16  1  1  0  0  0
 17 19  1  1  0  0  0
 17 18  1  0  0  0  0
 19 20  1  0  0  0  0
 21 29  1  0  0  0  0
 22 23  1  0  0  0  0
 22 31  1  0  0  0  0
 22 38  1  6  0  0  0
 23 25  1  0  0  0  0
 23 24  1  6  0  0  0
 25 27  1  0  0  0  0
 25 26  1  1  0  0  0
 27 30  1  0  0  0  0
 27 28  1  6  0  0  0
 30 21  1  1  0  0  0
 30 31  1  0  0  0  0
 32 34  1  0  0  0  0
 32 41  1  0  0  0  0
 32 33  1  1  0  0  0
 34 35  1  0  0  0  0
 35 37  1  0  0  0  0
 35 36  1  1  0  0  0
 37 39  1  0  0  0  0
 37 38  1  6  0  0  0
 39 41  1  0  0  0  0
 39 40  1  1  0  0  0
 41 42  1  6  0  0  0
M  CHG  6  12   1  20   1  24   1  29   1  33   1  36   1
M  END
>  <CHROM.1>
-59.47576690,70.90470645,-96.45508625,-63.65378325,65.73126128,-105.79885117
114.42273150,-67.63356645,-77.58980970,169.58650833,-175.96400274,-155.34648840
-166.88214794,-172.51363855,-117.48983214,43.93705676,166.98089854,78.38589068
-69.04325909,-146.70309470,-168.57656021,-41.23907976,0.50877237,-0.70761444
1.56703439,-0.03074730,-0.27043012,-0.72032258

>  <Name>
1NEM.B

>  <RI>
0

>  <Rbt.Current_Directory>
/home/itssahil/PROJECTS/Mol_Feturizer/New_Systems/rnas/1nem

>  <Rbt.Executable>
rbdock ($Id: //depot/dev/client3/rdock/2013.1/src/exe/rbdock.cxx#4 $)

>  <Rbt.Library>
libRbt.so (2013.1, Build901 2013/11/27)

>  <Rbt.Parameter_File>
/export/apps/rDock/src/rDock_2013.1_src/data/scripts/dock_solv.prm

>  <Rbt.Receptor>
prm/pocket_docking_2.prm

>  <SCORE>
-38.2246

>  <SCORE.INTER>
-60.134

>  <SCORE.INTER.CONST>
1

>  <SCORE.INTER.POLAR>
-8.32264

>  <SCORE.INTER.ROT>
9

>  <SCORE.INTER.SOLV>
46.7759

>  <SCORE.INTER.VDW>
-37.5391

>  <SCORE.INTER.norm>
-1.43176

>  <SCORE.INTRA>
16.279

>  <SCORE.INTRA.DIHEDRAL>
10.8292

>  <SCORE.INTRA.DIHEDRAL.0>
22.4324

>  <SCORE.INTRA.POLAR>
1.81626

>  <SCORE.INTRA.POLAR.0>
-1.83749

>  <SCORE.INTRA.REPUL>
0

>  <SCORE.INTRA.REPUL.0>
0

>  <SCORE.INTRA.SOLV>
-5.04207

>  <SCORE.INTRA.SOLV.lig_0>
-160.638

>  <SCORE.INTRA.VDW>
7.21015

>  <SCORE.INTRA.VDW.0>
-7.61953

>  <SCORE.INTRA.norm>
0.387595

>  <SCORE.RESTR>
5.63038

>  <SCORE.RESTR.CAVITY>
5.63038

>  <SCORE.RESTR.norm>
0.134057

>  <SCORE.SYSTEM>
0

>  <SCORE.SYSTEM.CONST>
0

>  <SCORE.SYSTEM.DIHEDRAL>
0

>  <SCORE.SYSTEM.SOLV>
0

>  <SCORE.SYSTEM.norm>
0

>  <SCORE.heavy>
42

>  <SCORE.norm>
-0.910109

>  <RMSD>
2.502

$$$$
1NEM.B
 OpenBabel11021811403D
libRbt.so/2013.1/901 2013/11/27
 42 45  0  0  0  0  0  0  0  0999 V2000
    2.6098   -1.3565    3.4669 O   0  0  0  0  0  0  0  0  0  0  0  0
    2.7448   -2.4866    2.6028 C   0  0  0  0  0  0  0  0  0  0  0  0
    2.7561   -2.1096    1.1221 C   0  0  1  0  0  0  0  0  0  0  0  0
    1.4351   -2.1233    0.5889 O   0  0  0  0  0  0  0  0  0  0  0  0
    3.2322   -0.6953    0.8311 C   0  0  1  0  0  0  0  0  0  0  0  0
    4.6441   -0.6685    1.0527 O   0  0  0  0  0  0  0  0  0  0  0  0
    2.7713   -0.5817   -0.6099 C   0  0  1  0  0  0  0  0  0  0  0  0
    3.5392   -1.4095   -1.4898 O   0  0  0  0  0  0  0  0  0  0  0  0
    1.3558   -1.1491   -0.4519 C   0  0  2  0  0  0  0  0  0  0  0  0
    5.2955    0.5311    0.7461 C   0  0  2  0  0  0  0  0  0  0  0  0
    6.7548    0.4485    1.2143 C   0  0  2  0  0  0  0  0  0  0  0  0
    6.8094    0.0631    2.6491 N   0  3  0  0  0  0  0  0  0  0  0  0
    7.4863    1.7695    0.9548 C   0  0  1  0  0  0  0  0  0  0  0  0
    7.6865    1.9382   -0.4424 O   0  0  0  0  0  0  0  0  0  0  0  0
    6.6939    2.9582    1.5076 C   0  0  2  0  0  0  0  0  0  0  0  0
    6.6804    2.9245    2.9291 O   0  0  0  0  0  0  0  0  0  0  0  0
    5.2655    2.9164    0.9721 C   0  0  1  0  0  0  0  0  0  0  0  0
    4.6525    1.6604    1.3224 O   0  0  0  0  0  0  0  0  0  0  0  0
    4.3898    4.0325    1.5138 C   0  0  0  0  0  0  0  0  0  0  0  0
    2.9506    3.7029    1.4149 N   0  3  0  0  0  0  0  0  0  0  0  0
   -6.2136   -2.6055    0.7623 C   0  0  0  0  0  0  0  0  0  0  0  0
   -2.7763   -1.4397    1.5061 C   0  0  2  0  0  0  0  0  0  0  0  0
   -2.1782   -2.6843    2.1575 C   0  0  2  0  0  0  0  0  0  0  0  0
   -0.6976   -2.6212    2.1215 N   0  3  0  0  0  0  0  0  0  0  0  0
   -2.6476   -3.9357    1.4276 C   0  0  1  0  0  0  0  0  0  0  0  0
   -2.1482   -5.0880    2.0889 O   0  0  0  0  0  0  0  0  0  0  0  0
   -4.1740   -3.9674    1.3974 C   0  0  2  0  0  0  0  0  0  0  0  0
   -4.6199   -5.0968    0.6576 O   0  0  0  0  0  0  0  0  0  0  0  0
   -6.7461   -2.6200    2.1441 N   0  3  0  0  0  0  0  0  0  0  0  0
   -4.6971   -2.6874    0.7484 C   0  0  2  0  0  0  0  0  0  0  0  0
   -4.1974   -1.5334    1.4543 O   0  0  0  0  0  0  0  0  0  0  0  0
   -1.5174    2.1445   -2.2126 C   0  0  2  0  0  0  0  0  0  0  0  0
   -1.2683    3.5469   -2.6181 N   0  3  0  0  0  0  0  0  0  0  0  0
   -2.8356    2.0481   -1.4529 C   0  0  0  0  0  0  0  0  0  0  0  0
   -3.1039    0.6113   -1.0275 C   0  0  2  0  0  0  0  0  0  0  0  0
   -4.3717    0.5874   -0.3118 N   0  3  0  0  0  0  0  0  0  0  0  0
   -1.9668    0.1143   -0.1378 C   0  0  1  0  0  0  0  0  0  0  0  0
   -2.2142   -1.2548    0.2373 O   0  0  0  0  0  0  0  0  0  0  0  0
   -0.6214    0.2076   -0.8707 C   0  0  2  0  0  0  0  0  0  0  0  0
    0.4389   -0.1686    0.0287 O   0  0  0  0  0  0  0  0  0  0  0  0
   -0.3540    1.6255   -1.3692 C   0  0  1  0  0  0  0  0  0  0  0  0
    0.8365    1.6388   -2.1457 O   0  0  0  0  0  0  0  0  0  0  0  0
  1  2  1  0  0  0  0
  3  2  1  1  0  0  0
  3  5  1  0  0  0  0
  3  4  1  0  0  0  0
  4  9  1  0  0  0  0
  5  7  1  0  0  0  0
  5  6  1  6  0  0  0
  7  9  1  0  0  0  0
  7  8  1  6  0  0  0
  9 40  1  1  0  0  0
 10  6  1  1  0  0  0
 10 11  1  0  0  0  0
 10 18  1  0  0  0  0
 11 13  1  0  0  0  0
 11 12  1  1  0  0  0
 13 15  1  0  0  0  0
 13 14  1  6  0  0  0
 15 17  1  0  0  0  0
 15 16  1  1  0  0  0
 17 19  1  1  0  0  0
 17 18  1  0  0  0  0
 19 20  1  0  0  0  0
 21 29  1  0  0  0  0
 22 23  1  0  0  0  0
 22 31  1  0  0  0  0
 22 38  1  6  0  0  0
 23 25  1  0  0  0  0
 23 24  1  6  0  0  0
 25 27  1  0  0  0  0
 25 26  1  1  0  0  0
 27 30  1  0  0  0  0
 27 28  1  6  0  0  0
 30 21  1  1  0  0  0
 30 31  1  0  0  0  0
 32 34  1  0  0  0  0
 32 41  1  0  0  0  0
 32 33  1  1  0  0  0
 34 35  1  0  0  0  0
 35 37  1  0  0  0  0
 35 36  1  1  0  0  0
 37 39  1  0  0  0  0
 37 38  1  6  0  0  0
 39 41  1  0  0  0  0
 39 40  1  1  0  0  0
 41 42  1  6  0  0  0
M  CHG  6  12   1  20   1  24   1  29   1  33   1  36   1
M  END
>  <CHROM.1>
62.90418540,-90.52826663,175.63672384,172.54652861,-152.42614147,-130.24779282
10.04859725,-177.21649045,172.13699678,-158.40692210,152.95457309,60.56879890
-172.21484995,-142.39461699,70.64597089,-175.54510394,60.96847713,67.34877863
-29.90729773,-98.70027877,129.32689795,-62.00541575,0.75356517,-0.30983774
0.65145837,-0.31204084,0.21577979,2.63975337

>  <Name>
1NEM.B

>  <RI>
0

>  <Rbt.Current_Directory>
/home/itssahil/PROJECTS/Mol_Feturizer/New_Systems/rnas/1nem

>  <Rbt.Executable>
rbdock ($Id: //depot/dev/client3/rdock/2013.1/src/exe/rbdock.cxx#4 $)

>  <Rbt.Library>
libRbt.so (2013.1, Build901 2013/11/27)

>  <Rbt.Parameter_File>
/export/apps/rDock/src/rDock_2013.1_src/data/scripts/dock_solv.prm

>  <Rbt.Receptor>
prm/pocket_docking_4.prm

>  <SCORE>
-27.5313

>  <SCORE.INTER>
-38.5054

>  <SCORE.INTER.CONST>
1

>  <SCORE.INTER.POLAR>
-5.09697

>  <SCORE.INTER.ROT>
9

>  <SCORE.INTER.SOLV>
27.571

>  <SCORE.INTER.VDW>
-27.4707

>  <SCORE.INTER.norm>
-0.916795

>  <SCORE.INTRA>
9.98372

>  <SCORE.INTRA.DIHEDRAL>
17.0075

>  <SCORE.INTRA.DIHEDRAL.0>
22.4324

>  <SCORE.INTRA.POLAR>
-0.708582

>  <SCORE.INTRA.POLAR.0>
-1.83749

>  <SCORE.INTRA.REPUL>
0.0644283

>  <SCORE.INTRA.REPUL.0>
0

>  <SCORE.INTRA.SOLV>
2.07753

>  <SCORE.INTRA.SOLV.lig_0>
-160.638

>  <SCORE.INTRA.VDW>
2.52825

>  <SCORE.INTRA.VDW.0>
-7.61953

>  <SCORE.INTRA.norm>
0.237708

>  <SCORE.RESTR>
0.990379

>  <SCORE.RESTR.CAVITY>
0.990379

>  <SCORE.RESTR.norm>
0.0235805

>  <SCORE.SYSTEM>
0

>  <SCORE.SYSTEM.CONST>
0

>  <SCORE.SYSTEM.DIHEDRAL>
0

>  <SCORE.SYSTEM.SOLV>
0

>  <SCORE.SYSTEM.norm>
0

>  <SCORE.heavy>
42

>  <SCORE.norm>
-0.655507

>  <RMSD>
2.509

$$$$
1NEM.B
 OpenBabel11021811403D
libRbt.so/2013.1/901 2013/11/27
 42 45  0  0  0  0  0  0  0  0999 V2000
    5.1598    0.6315   -0.7602 O   0  0  0  0  0  0  0  0  0  0  0  0
    3.9973    0.5538   -1.5877 C   0  0  0  0  0  0  0  0  0  0  0  0
    2.9074    1.5453   -1.1830 C   0  0  1  0  0  0  0  0  0  0  0  0
    1.6772    1.2330   -1.8299 O   0  0  0  0  0  0  0  0  0  0  0  0
    2.5398    1.5169    0.2920 C   0  0  1  0  0  0  0  0  0  0  0  0
    3.6235    2.1100    1.0112 O   0  0  0  0  0  0  0  0  0  0  0  0
    1.2512    2.3154    0.2307 C   0  0  1  0  0  0  0  0  0  0  0  0
    1.4853    3.6980   -0.0567 O   0  0  0  0  0  0  0  0  0  0  0  0
    0.6027    1.6274   -0.9763 C   0  0  2  0  0  0  0  0  0  0  0  0
    3.7896    1.6909    2.3356 C   0  0  2  0  0  0  0  0  0  0  0  0
    5.2337    1.9661    2.7762 C   0  0  2  0  0  0  0  0  0  0  0  0
    6.1865    1.3587    1.8101 N   0  3  0  0  0  0  0  0  0  0  0  0
    5.4744    1.4608    4.2024 C   0  0  1  0  0  0  0  0  0  0  0  0
    4.7754    2.2851    5.1257 O   0  0  0  0  0  0  0  0  0  0  0  0
    5.0140    0.0083    4.3595 C   0  0  2  0  0  0  0  0  0  0  0  0
    5.8564   -0.8604    3.6127 O   0  0  0  0  0  0  0  0  0  0  0  0
    3.5712   -0.1273    3.8811 C   0  0  1  0  0  0  0  0  0  0  0  0
    3.4693    0.3173    2.5144 O   0  0  0  0  0  0  0  0  0  0  0  0
    3.0482   -1.5513    3.9508 C   0  0  0  0  0  0  0  0  0  0  0  0
    2.8682   -2.1402    2.6052 N   0  3  0  0  0  0  0  0  0  0  0  0
   -3.5824   -3.3851    3.9029 C   0  0  0  0  0  0  0  0  0  0  0  0
   -0.9907   -1.9578    1.6728 C   0  0  2  0  0  0  0  0  0  0  0  0
   -0.0987   -3.1752    1.4419 C   0  0  2  0  0  0  0  0  0  0  0  0
    0.7329   -2.9796    0.2303 N   0  3  0  0  0  0  0  0  0  0  0  0
   -0.9510   -4.4257    1.2720 C   0  0  1  0  0  0  0  0  0  0  0  0
   -0.1095   -5.5605    1.1358 O   0  0  0  0  0  0  0  0  0  0  0  0
   -1.8635   -4.5908    2.4852 C   0  0  2  0  0  0  0  0  0  0  0  0
   -2.7116   -5.7173    2.3030 O   0  0  0  0  0  0  0  0  0  0  0  0
   -4.1304   -4.7429    4.1244 N   0  3  0  0  0  0  0  0  0  0  0  0
   -2.7103   -3.3317    2.6606 C   0  0  2  0  0  0  0  0  0  0  0  0
   -1.8587   -2.1742    2.7822 O   0  0  0  0  0  0  0  0  0  0  0  0
   -3.5029    1.8048   -1.1624 C   0  0  2  0  0  0  0  0  0  0  0  0
   -3.9774    3.2002   -1.3070 N   0  3  0  0  0  0  0  0  0  0  0  0
   -4.1465    1.1596    0.0598 C   0  0  0  0  0  0  0  0  0  0  0  0
   -3.6659   -0.2756    0.2224 C   0  0  2  0  0  0  0  0  0  0  0  0
   -4.3155   -0.8327    1.4004 N   0  3  0  0  0  0  0  0  0  0  0  0
   -2.1469   -0.2982    0.3762 C   0  0  1  0  0  0  0  0  0  0  0  0
   -1.6974   -1.6615    0.5012 O   0  0  0  0  0  0  0  0  0  0  0  0
   -1.4672    0.3542   -0.8356 C   0  0  2  0  0  0  0  0  0  0  0  0
   -0.0454    0.4107   -0.6118 O   0  0  0  0  0  0  0  0  0  0  0  0
   -1.9785    1.7742   -1.0654 C   0  0  1  0  0  0  0  0  0  0  0  0
   -1.4174    2.2923   -2.2642 O   0  0  0  0  0  0  0  0  0  0  0  0
  1  2  1  0  0  0  0
  3  2  1  1  0  0  0
  3  5  1  0  0  0  0
  3  4  1  0  0  0  0
  4  9  1  0  0  0  0
  5  7  1  0  0  0  0
  5  6  1  1  0  0  0
  7  9  1  0  0  0  0
  7  8  1  6  0  0  0
  9 40  1  1  0  0  0
 10  6  1  6  0  0  0
 10 11  1  0  0  0  0
 10 18  1  0  0  0  0
 11 13  1  0  0  0  0
 11 12  1  6  0  0  0
 13 15  1  0  0  0  0
 13 14  1  1  0  0  0
 15 17  1  0  0  0  0
 15 16  1  6  0  0  0
 17 19  1  6  0  0  0
 17 18  1  0  0  0  0
 19 20  1  0  0  0  0
 21 29  1  0  0  0  0
 22 23  1  0  0  0  0
 22 31  1  0  0  0  0
 22 38  1  6  0  0  0
 23 25  1  0  0  0  0
 23 24  1  6  0  0  0
 25 27  1  0  0  0  0
 25 26  1  1  0  0  0
 27 30  1  0  0  0  0
 27 28  1  6  0  0  0
 30 21  1  1  0  0  0
 30 31  1  0  0  0  0
 32 34  1  0  0  0  0
 32 41  1  0  0  0  0
 32 33  1  1  0  0  0
 34 35  1  0  0  0  0
 35 37  1  0  0  0  0
 35 36  1  1  0  0  0
 37 39  1  0  0  0  0
 37 38  1  6  0  0  0
 39 41  1  0  0  0  0
 39 40  1  1  0  0  0
 41 42  1  6  0  0  0
M  CHG  6  12   1  20   1  24   1  29   1  33   1  36   1
M  END
>  <CHROM.1>
-171.24735306,-167.07788585,-153.12031616,158.23065545,70.40389722,-127.26302311
-81.14361849,-59.88735103,77.51340685,-109.75688548,-166.28712700,-38.31069659
-173.80574121,-156.35088351,-159.14651951,-138.03717238,94.73409102,-50.28509397
35.61202591,-121.62535066,-137.03922973,72.54557228,0.63688067,-0.36990177
1.22564937,0.30421892,-0.32681966,-0.61114883

>  <Name>
1NEM.B

>  <RI>
0

>  <Rbt.Current_Directory>
/home/itssahil/PROJECTS/Mol_Feturizer/New_Systems/rnas/1nem

>  <Rbt.Executable>
rbdock ($Id: //depot/dev/client3/rdock/2013.1/src/exe/rbdock.cxx#4 $)

>  <Rbt.Library>
libRbt.so (2013.1, Build901 2013/11/27)

>  <Rbt.Parameter_File>
/export/apps/rDock/src/rDock_2013.1_src/data/scripts/dock_solv.prm

>  <Rbt.Receptor>
prm/pocket_docking_3.prm

>  <SCORE>
-28.9648

>  <SCORE.INTER>
-55.4594

>  <SCORE.INTER.CONST>
1

>  <SCORE.INTER.POLAR>
-7.94142

>  <SCORE.INTER.ROT>
9

>  <SCORE.INTER.SOLV>
34.7206

>  <SCORE.INTER.VDW>
-31.6751

>  <SCORE.INTER.norm>
-1.32046

>  <SCORE.INTRA>
26.385

>  <SCORE.INTRA.DIHEDRAL>
29.7696

>  <SCORE.INTRA.DIHEDRAL.0>
22.4324

>  <SCORE.INTRA.POLAR>
-0.124272

>  <SCORE.INTRA.POLAR.0>
-1.83749

>  <SCORE.INTRA.REPUL>
0

>  <SCORE.INTRA.REPUL.0>
0

>  <SCORE.INTRA.SOLV>
8.7516

>  <SCORE.INTRA.SOLV.lig_0>
-160.638

>  <SCORE.INTRA.VDW>
7.54695

>  <SCORE.INTRA.VDW.0>
-7.61953

>  <SCORE.INTRA.norm>
0.628215

>  <SCORE.RESTR>
0.109599

>  <SCORE.RESTR.CAVITY>
0.109599

>  <SCORE.RESTR.norm>
0.0026095

>  <SCORE.SYSTEM>
0

>  <SCORE.SYSTEM.CONST>
0

>  <SCORE.SYSTEM.DIHEDRAL>
0

>  <SCORE.SYSTEM.SOLV>
0

>  <SCORE.SYSTEM.norm>
0

>  <SCORE.heavy>
42

>  <SCORE.norm>
-0.689638

>  <RMSD>
2.521

$$$$
1NEM.B
 OpenBabel11021811403D
libRbt.so/2013.1/901 2013/11/27
 42 45  0  0  0  0  0  0  0  0999 V2000
    2.1768   -5.0760    2.2642 O   0  0  0  0  0  0  0  0  0  0  0  0
    1.7818   -3.7794    2.7170 C   0  0  0  0  0  0  0  0  0  0  0  0
    1.9579   -2.6953    1.6548 C   0  0  1  0  0  0  0  0  0  0  0  0
    0.8678   -2.7071    0.7377 O   0  0  0  0  0  0  0  0  0  0  0  0
    1.9434   -1.2729    2.1914 C   0  0  1  0  0  0  0  0  0  0  0  0
    3.1750   -1.0691    2.8878 O   0  0  0  0  0  0  0  0  0  0  0  0
    1.7757   -0.5267    0.8811 C   0  0  1  0  0  0  0  0  0  0  0  0
    2.9511   -0.5937    0.0668 O   0  0  0  0  0  0  0  0  0  0  0  0
    0.6576   -1.3762    0.2655 C   0  0  2  0  0  0  0  0  0  0  0  0
    3.0944   -0.3639    4.0934 C   0  0  2  0  0  0  0  0  0  0  0  0
    2.5647    1.0500    3.8182 C   0  0  2  0  0  0  0  0  0  0  0  0
    3.3877    1.7080    2.7694 N   0  3  0  0  0  0  0  0  0  0  0  0
    2.5232    1.8773    5.1071 C   0  0  1  0  0  0  0  0  0  0  0  0
    1.4914    1.3899    5.9545 O   0  0  0  0  0  0  0  0  0  0  0  0
    3.8644    1.8192    5.8448 C   0  0  2  0  0  0  0  0  0  0  0  0
    4.8648    2.5088    5.1060 O   0  0  0  0  0  0  0  0  0  0  0  0
    4.2766    0.3637    6.0465 C   0  0  1  0  0  0  0  0  0  0  0  0
    4.3426   -0.3032    4.7711 O   0  0  0  0  0  0  0  0  0  0  0  0
    5.6265    0.2119    6.7252 C   0  0  0  0  0  0  0  0  0  0  0  0
    6.6477   -0.3391    5.8068 N   0  3  0  0  0  0  0  0  0  0  0  0
   -6.7920   -4.3470    0.9547 C   0  0  0  0  0  0  0  0  0  0  0  0
   -4.2484   -1.8407    1.9425 C   0  0  2  0  0  0  0  0  0  0  0  0
   -3.5602   -2.5606    3.0996 C   0  0  2  0  0  0  0  0  0  0  0  0
   -2.2268   -1.9649    3.3543 N   0  3  0  0  0  0  0  0  0  0  0  0
   -3.3981   -4.0397    2.7755 C   0  0  1  0  0  0  0  0  0  0  0  0
   -2.8285   -4.7114    3.8885 O   0  0  0  0  0  0  0  0  0  0  0  0
   -4.7608   -4.6416    2.4397 C   0  0  2  0  0  0  0  0  0  0  0  0
   -4.6090   -6.0056    2.0686 O   0  0  0  0  0  0  0  0  0  0  0  0
   -7.3906   -3.5631   -0.1499 N   0  3  0  0  0  0  0  0  0  0  0  0
   -5.3921   -3.8616    1.2880 C   0  0  2  0  0  0  0  0  0  0  0  0
   -5.4914   -2.4644    1.6309 O   0  0  0  0  0  0  0  0  0  0  0  0
   -2.1820    1.4006   -1.6858 C   0  0  2  0  0  0  0  0  0  0  0  0
   -1.7582    2.7498   -2.1256 N   0  3  0  0  0  0  0  0  0  0  0  0
   -3.5464    1.4775   -1.0101 C   0  0  0  0  0  0  0  0  0  0  0  0
   -3.9941    0.0971   -0.5503 C   0  0  2  0  0  0  0  0  0  0  0  0
   -5.2980    0.2388    0.0820 N   0  3  0  0  0  0  0  0  0  0  0  0
   -2.9736   -0.4782    0.4289 C   0  0  1  0  0  0  0  0  0  0  0  0
   -3.3902   -1.7958    0.8373 O   0  0  0  0  0  0  0  0  0  0  0  0
   -1.5841   -0.5599   -0.2182 C   0  0  2  0  0  0  0  0  0  0  0  0
   -0.6272   -1.0067    0.7614 O   0  0  0  0  0  0  0  0  0  0  0  0
   -1.1349    0.7987   -0.7501 C   0  0  1  0  0  0  0  0  0  0  0  0
    0.0949    0.6520   -1.4477 O   0  0  0  0  0  0  0  0  0  0  0  0
  1  2  1  0  0  0  0
  3  2  1  1  0  0  0
  3  5  1  0  0  0  0
  3  4  1  0  0  0  0
  4  9  1  0  0  0  0
  5  7  1  0  0  0  0
  5  6  1  6  0  0  0
  7  9  1  0  0  0  0
  7  8  1  6  0  0  0
  9 40  1  1  0  0  0
 10  6  1  6  0  0  0
 10 11  1  0  0  0  0
 10 18  1  0  0  0  0
 11 13  1  0  0  0  0
 11 12  1  6  0  0  0
 13 15  1  0  0  0  0
 13 14  1  1  0  0  0
 15 17  1  0  0  0  0
 15 16  1  6  0  0  0
 17 19  1  6  0  0  0
 17 18  1  0  0  0  0
 19 20  1  0  0  0  0
 21 29  1  0  0  0  0
 22 23  1  0  0  0  0
 22 31  1  0  0  0  0
 22 38  1  6  0  0  0
 23 25  1  0  0  0  0
 23 24  1  6  0  0  0
 25 27  1  0  0  0  0
 25 26  1  1  0  0  0
 27 30  1  0  0  0  0
 27 28  1  6  0  0  0
 30 21  1  1  0  0  0
 30 31  1  0  0  0  0
 32 34  1  0  0  0  0
 32 41  1  0  0  0  0
 32 33  1  1  0  0  0
 34 35  1  0  0  0  0
 35 37  1  0  0  0  0
 35 36  1  1  0  0  0
 37 39  1  0  0  0  0
 37 38  1  6  0  0  0
 39 41  1  0  0  0  0
 39 40  1  1  0  0  0
 41 42  1  6  0  0  0
M  CHG  6  12   1  20   1  24   1  29   1  33   1  36   1
M  END
>  <CHROM.1>
-165.55914181,80.74626987,-138.85770653,-61.87902243,-52.09483786,-125.02804158
165.78476821,-108.70744045,174.38074489,-111.48084215,46.82620341,179.12968571
79.35451535,-115.85195586,-73.55763887,-59.49019236,78.27330491,-43.21241631
-156.28385445,-87.66461408,168.61567465,60.47810785,-0.38075434,-1.09051206
2.08156080,0.00472523,0.49429794,2.47186670

>  <Name>
1NEM.B

>  <RI>
0

>  <Rbt.Current_Directory>
/home/itssahil/PROJECTS/Mol_Feturizer/New_Systems/rnas/1nem

>  <Rbt.Executable>
rbdock ($Id: //depot/dev/client3/rdock/2013.1/src/exe/rbdock.cxx#4 $)

>  <Rbt.Library>
libRbt.so (2013.1, Build901 2013/11/27)

>  <Rbt.Parameter_File>
/export/apps/rDock/src/rDock_2013.1_src/data/scripts/dock_solv.prm

>  <Rbt.Receptor>
prm/pocket_docking_4.prm

>  <SCORE>
-27.314

>  <SCORE.INTER>
-43.4043

>  <SCORE.INTER.CONST>
1

>  <SCORE.INTER.POLAR>
-6.66114

>  <SCORE.INTER.ROT>
9

>  <SCORE.INTER.SOLV>
42.3611

>  <SCORE.INTER.VDW>
-30.4528

>  <SCORE.INTER.norm>
-1.03344

>  <SCORE.INTRA>
15.384

>  <SCORE.INTRA.DIHEDRAL>
21.3217

>  <SCORE.INTRA.DIHEDRAL.0>
22.4324

>  <SCORE.INTRA.POLAR>
-0.166653

>  <SCORE.INTRA.POLAR.0>
-1.83749

>  <SCORE.INTRA.REPUL>
0.0195656

>  <SCORE.INTRA.REPUL.0>
0

>  <SCORE.INTRA.SOLV>
-0.0101682

>  <SCORE.INTRA.SOLV.lig_0>
-160.638

>  <SCORE.INTRA.VDW>
5.197

>  <SCORE.INTRA.VDW.0>
-7.61953

>  <SCORE.INTRA.norm>
0.366285

>  <SCORE.RESTR>
0.706357

>  <SCORE.RESTR.CAVITY>
0.706357

>  <SCORE.RESTR.norm>
0.016818

>  <SCORE.SYSTEM>
0

>  <SCORE.SYSTEM.CONST>
0

>  <SCORE.SYSTEM.DIHEDRAL>
0

>  <SCORE.SYSTEM.SOLV>
0

>  <SCORE.SYSTEM.norm>
0

>  <SCORE.heavy>
42

>  <SCORE.norm>
-0.650333

>  <RMSD>
2.532

$$$$
1NEM.B
 OpenBabel11021811403D
libRbt.so/2013.1/901 2013/11/27
 42 45  0  0  0  0  0  0  0  0999 V2000
    3.4798   -1.0808   -1.2433 O   0  0  0  0  0  0  0  0  0  0  0  0
    3.8473    0.2917   -1.3961 C   0  0  0  0  0  0  0  0  0  0  0  0
    2.7401    1.2577   -0.9770 C   0  0  1  0  0  0  0  0  0  0  0  0
    1.5748    1.0641   -1.7732 O   0  0  0  0  0  0  0  0  0  0  0  0
    2.2277    1.0590    0.4406 C   0  0  1  0  0  0  0  0  0  0  0  0
    3.2449    1.5266    1.3294 O   0  0  0  0  0  0  0  0  0  0  0  0
    0.9657    1.8968    0.3563 C   0  0  1  0  0  0  0  0  0  0  0  0
    1.2513    3.2967    0.2683 O   0  0  0  0  0  0  0  0  0  0  0  0
    0.4281    1.3821   -0.9842 C   0  0  2  0  0  0  0  0  0  0  0  0
    3.2152    1.0107    2.6294 C   0  0  2  0  0  0  0  0  0  0  0  0
    3.2540    2.1696    3.6348 C   0  0  2  0  0  0  0  0  0  0  0  0
    4.4119    3.0566    3.3466 N   0  3  0  0  0  0  0  0  0  0  0  0
    3.2887    1.6429    5.0731 C   0  0  1  0  0  0  0  0  0  0  0  0
    2.0288    1.0739    5.4039 O   0  0  0  0  0  0  0  0  0  0  0  0
    4.3895    0.5927    5.2510 C   0  0  2  0  0  0  0  0  0  0  0  0
    5.6717    1.1988    5.1478 O   0  0  0  0  0  0  0  0  0  0  0  0
    4.2397   -0.4928    4.1889 C   0  0  1  0  0  0  0  0  0  0  0  0
    4.2805    0.1025    2.8774 O   0  0  0  0  0  0  0  0  0  0  0  0
    5.3262   -1.5516    4.2569 C   0  0  0  0  0  0  0  0  0  0  0  0
    6.6693   -0.9814    4.0102 N   0  3  0  0  0  0  0  0  0  0  0  0
   -4.1730   -3.4325    3.7757 C   0  0  0  0  0  0  0  0  0  0  0  0
   -1.4035   -1.9620    1.8023 C   0  0  2  0  0  0  0  0  0  0  0  0
   -0.4844   -3.1702    1.6398 C   0  0  2  0  0  0  0  0  0  0  0  0
    0.4509   -2.9552    0.5100 N   0  3  0  0  0  0  0  0  0  0  0  0
   -1.3077   -4.4249    1.3812 C   0  0  1  0  0  0  0  0  0  0  0  0
   -0.4480   -5.5520    1.3095 O   0  0  0  0  0  0  0  0  0  0  0  0
   -2.3240   -4.6100    2.5058 C   0  0  2  0  0  0  0  0  0  0  0  0
   -3.1429   -5.7406    2.2366 O   0  0  0  0  0  0  0  0  0  0  0  0
   -3.4745   -3.6272    5.0669 N   0  3  0  0  0  0  0  0  0  0  0  0
   -3.1934   -3.3591    2.6174 C   0  0  2  0  0  0  0  0  0  0  0  0
   -2.3658   -2.1969    2.8270 O   0  0  0  0  0  0  0  0  0  0  0  0
   -3.6230    1.8353   -1.2197 C   0  0  2  0  0  0  0  0  0  0  0  0
   -3.9772    3.2561   -1.4414 N   0  3  0  0  0  0  0  0  0  0  0  0
   -4.2115    1.3515    0.1008 C   0  0  0  0  0  0  0  0  0  0  0  0
   -3.8533   -0.1081    0.3432 C   0  0  2  0  0  0  0  0  0  0  0  0
   -4.4436   -0.5072    1.6129 N   0  3  0  0  0  0  0  0  0  0  0  0
   -2.3353   -0.2700    0.3735 C   0  0  1  0  0  0  0  0  0  0  0  0
   -2.0047   -1.6580    0.5750 O   0  0  0  0  0  0  0  0  0  0  0  0
   -1.7093    0.2182   -0.9403 C   0  0  2  0  0  0  0  0  0  0  0  0
   -0.2741    0.1496   -0.8392 O   0  0  0  0  0  0  0  0  0  0  0  0
   -2.1054    1.6606   -1.2456 C   0  0  1  0  0  0  0  0  0  0  0  0
   -1.6083    2.0282   -2.5255 O   0  0  0  0  0  0  0  0  0  0  0  0
  1  2  1  0  0  0  0
  3  2  1  6  0  0  0
  3  5  1  0  0  0  0
  3  4  1  0  0  0  0
  4  9  1  0  0  0  0
  5  7  1  0  0  0  0
  5  6  1  1  0  0  0
  7  9  1  0  0  0  0
  7  8  1  6  0  0  0
  9 40  1  1  0  0  0
 10  6  1  6  0  0  0
 10 11  1  0  0  0  0
 10 18  1  0  0  0  0
 11 13  1  0  0  0  0
 11 12  1  6  0  0  0
 13 15  1  0  0  0  0
 13 14  1  6  0  0  0
 15 17  1  0  0  0  0
 15 16  1  6  0  0  0
 17 19  1  6  0  0  0
 17 18  1  0  0  0  0
 19 20  1  0  0  0  0
 21 29  1  0  0  0  0
 22 23  1  0  0  0  0
 22 31  1  0  0  0  0
 22 38  1  6  0  0  0
 23 25  1  0  0  0  0
 23 24  1  6  0  0  0
 25 27  1  0  0  0  0
 25 26  1  1  0  0  0
 27 30  1  0  0  0  0
 27 28  1  6  0  0  0
 30 21  1  1  0  0  0
 30 31  1  0  0  0  0
 32 34  1  0  0  0  0
 32 41  1  0  0  0  0
 32 33  1  1  0  0  0
 34 35  1  0  0  0  0
 35 37  1  0  0  0  0
 35 36  1  1  0  0  0
 37 39  1  0  0  0  0
 37 38  1  6  0  0  0
 39 41  1  0  0  0  0
 39 40  1  1  0  0  0
 41 42  1  6  0  0  0
M  CHG  6  12   1  20   1  24   1  29   1  33   1  36   1
M  END
>  <CHROM.1>
-58.50195070,-60.82938896,-157.35876797,-128.44824200,174.39735674,-139.37304203
-12.05218581,-62.42743568,-66.18177171,-62.44201928,-162.17366155,58.16933409
44.70247081,-150.60675795,75.91157103,-123.13148928,-172.77832420,-54.95383389
11.92817776,-112.37594558,-119.47080659,-77.95808009,0.37070264,-0.35475313
1.49376026,0.06671098,-0.41333514,-0.69984526

>  <Name>
1NEM.B

>  <RI>
0

>  <Rbt.Current_Directory>
/home/itssahil/PROJECTS/Mol_Feturizer/New_Systems/rnas/1nem

>  <Rbt.Executable>
rbdock ($Id: //depot/dev/client3/rdock/2013.1/src/exe/rbdock.cxx#4 $)

>  <Rbt.Library>
libRbt.so (2013.1, Build901 2013/11/27)

>  <Rbt.Parameter_File>
/export/apps/rDock/src/rDock_2013.1_src/data/scripts/dock_solv.prm

>  <Rbt.Receptor>
prm/pocket_docking_4.prm

>  <SCORE>
-26.6958

>  <SCORE.INTER>
-53.2222

>  <SCORE.INTER.CONST>
1

>  <SCORE.INTER.POLAR>
-7.14722

>  <SCORE.INTER.ROT>
9

>  <SCORE.INTER.SOLV>
43.0584

>  <SCORE.INTER.VDW>
-35.6102

>  <SCORE.INTER.norm>
-1.2672

>  <SCORE.INTRA>
26.4107

>  <SCORE.INTRA.DIHEDRAL>
27.9779

>  <SCORE.INTRA.DIHEDRAL.0>
22.4324

>  <SCORE.INTRA.POLAR>
1.074

>  <SCORE.INTRA.POLAR.0>
-1.83749

>  <SCORE.INTRA.REPUL>
0.0365346

>  <SCORE.INTRA.REPUL.0>
0

>  <SCORE.INTRA.SOLV>
0.878203

>  <SCORE.INTRA.SOLV.lig_0>
-160.638

>  <SCORE.INTRA.VDW>
8.14834

>  <SCORE.INTRA.VDW.0>
-7.61953

>  <SCORE.INTRA.norm>
0.628826

>  <SCORE.RESTR>
0.115757

>  <SCORE.RESTR.CAVITY>
0.115757

>  <SCORE.RESTR.norm>
0.00275613

>  <SCORE.SYSTEM>
0

>  <SCORE.SYSTEM.CONST>
0

>  <SCORE.SYSTEM.DIHEDRAL>
0

>  <SCORE.SYSTEM.SOLV>
0

>  <SCORE.SYSTEM.norm>
0

>  <SCORE.heavy>
42

>  <SCORE.norm>
-0.635614

>  <RMSD>
2.556

$$$$
1NEM.B
 OpenBabel11021811403D
libRbt.so/2013.1/901 2013/11/27
 42 45  0  0  0  0  0  0  0  0999 V2000
    2.8591   -3.6575    2.8532 O   0  0  0  0  0  0  0  0  0  0  0  0
    2.6730   -2.2416    2.8006 C   0  0  0  0  0  0  0  0  0  0  0  0
    2.4322   -1.7220    1.3840 C   0  0  1  0  0  0  0  0  0  0  0  0
    1.1249   -2.0681    0.9362 O   0  0  0  0  0  0  0  0  0  0  0  0
    2.4539   -0.2076    1.2514 C   0  0  1  0  0  0  0  0  0  0  0  0
    3.8139    0.2112    1.3870 O   0  0  0  0  0  0  0  0  0  0  0  0
    1.8420   -0.0817   -0.1311 C   0  0  1  0  0  0  0  0  0  0  0  0
    2.7250   -0.5469   -1.1573 O   0  0  0  0  0  0  0  0  0  0  0  0
    0.6698   -1.0554    0.0385 C   0  0  2  0  0  0  0  0  0  0  0  0
    4.3584    0.1374    2.6737 C   0  0  2  0  0  0  0  0  0  0  0  0
    3.6201    1.1200    3.5927 C   0  0  2  0  0  0  0  0  0  0  0  0
    3.6262    2.4811    2.9946 N   0  3  0  0  0  0  0  0  0  0  0  0
    4.2309    1.1165    4.9978 C   0  0  1  0  0  0  0  0  0  0  0  0
    3.9218   -0.1082    5.6499 O   0  0  0  0  0  0  0  0  0  0  0  0
    5.7507    1.2988    4.9405 C   0  0  2  0  0  0  0  0  0  0  0  0
    6.0744    2.6121    4.5019 O   0  0  0  0  0  0  0  0  0  0  0  0
    6.3557    0.2687    3.9909 C   0  0  1  0  0  0  0  0  0  0  0  0
    5.7557    0.3990    2.6874 O   0  0  0  0  0  0  0  0  0  0  0  0
    7.8591    0.4116    3.8311 C   0  0  0  0  0  0  0  0  0  0  0  0
    8.3257   -0.0931    2.5206 N   0  3  0  0  0  0  0  0  0  0  0  0
   -7.0023   -3.1768    0.9196 C   0  0  0  0  0  0  0  0  0  0  0  0
   -3.6048   -1.9789    1.7853 C   0  0  2  0  0  0  0  0  0  0  0  0
   -2.9209   -3.2882    2.1715 C   0  0  2  0  0  0  0  0  0  0  0  0
   -1.4477   -3.1350    2.1107 N   0  3  0  0  0  0  0  0  0  0  0  0
   -3.3514   -4.4033    1.2279 C   0  0  1  0  0  0  0  0  0  0  0  0
   -2.7704   -5.6297    1.6439 O   0  0  0  0  0  0  0  0  0  0  0  0
   -4.8743   -4.5157    1.2308 C   0  0  2  0  0  0  0  0  0  0  0  0
   -5.2879   -5.5080    0.3003 O   0  0  0  0  0  0  0  0  0  0  0  0
   -7.5944   -3.8721   -0.2461 N   0  3  0  0  0  0  0  0  0  0  0  0
   -5.4850   -3.1679    0.8519 C   0  0  2  0  0  0  0  0  0  0  0  0
   -5.0202   -2.1420    1.7526 O   0  0  0  0  0  0  0  0  0  0  0  0
   -2.2870    2.2962   -1.1062 C   0  0  2  0  0  0  0  0  0  0  0  0
   -2.0183    3.7493   -1.2041 N   0  3  0  0  0  0  0  0  0  0  0  0
   -3.6388    2.0599   -0.4421 C   0  0  0  0  0  0  0  0  0  0  0  0
   -3.9275    0.5693   -0.3325 C   0  0  2  0  0  0  0  0  0  0  0  0
   -5.2269    0.4125    0.3057 N   0  3  0  0  0  0  0  0  0  0  0  0
   -2.8330   -0.1109    0.4864 C   0  0  1  0  0  0  0  0  0  0  0  0
   -3.0985   -1.5252    0.5614 O   0  0  0  0  0  0  0  0  0  0  0  0
   -1.4552    0.1166   -0.1510 C   0  0  2  0  0  0  0  0  0  0  0  0
   -0.4377   -0.4466    0.6988 O   0  0  0  0  0  0  0  0  0  0  0  0
   -1.1640    1.6037   -0.3358 C   0  0  1  0  0  0  0  0  0  0  0  0
    0.0609    1.7634   -1.0391 O   0  0  0  0  0  0  0  0  0  0  0  0
  1  2  1  0  0  0  0
  3  2  1  1  0  0  0
  3  5  1  0  0  0  0
  3  4  1  0  0  0  0
  4  9  1  0  0  0  0
  5  7  1  0  0  0  0
  5  6  1  6  0  0  0
  7  9  1  0  0  0  0
  7  8  1  6  0  0  0
  9 40  1  1  0  0  0
 10  6  1  6  0  0  0
 10 11  1  0  0  0  0
 10 18  1  0  0  0  0
 11 13  1  0  0  0  0
 11 12  1  6  0  0  0
 13 15  1  0  0  0  0
 13 14  1  6  0  0  0
 15 17  1  0  0  0  0
 15 16  1  6  0  0  0
 17 19  1  6  0  0  0
 17 18  1  0  0  0  0
 19 20  1  0  0  0  0
 21 29  1  0  0  0  0
 22 23  1  0  0  0  0
 22 31  1  0  0  0  0
 22 38  1  6  0  0  0
 23 25  1  0  0  0  0
 23 24  1  6  0  0  0
 25 27  1  0  0  0  0
 25 26  1  1  0  0  0
 27 30  1  0  0  0  0
 27 28  1  6  0  0  0
 30 21  1  1  0  0  0
 30 31  1  0  0  0  0
 32 34  1  0  0  0  0
 32 41  1  0  0  0  0
 32 33  1  1  0  0  0
 34 35  1  0  0  0  0
 35 37  1  0  0  0  0
 35 36  1  1  0  0  0
 37 39  1  0  0  0  0
 37 38  1  6  0  0  0
 39 41  1  0  0  0  0
 39 40  1  1  0  0  0
 41 42  1  6  0  0  0
M  CHG  6  12   1  20   1  24   1  29   1  33   1  36   1
M  END
>  <CHROM.1>
65.06779085,73.25071045,-72.43239940,-64.91287944,70.42671164,-151.16237370
-64.29107645,56.82306700,65.31808269,-152.92013152,165.29362514,-76.54644939
80.98776191,-137.56759771,-18.35662927,52.17442969,158.94252658,-73.10892222
-8.51185429,-104.33145033,143.43438681,-58.32172052,0.13741711,-0.77967224
1.49102912,-0.16676148,0.34788908,2.75910517

>  <Name>
1NEM.B

>  <RI>
0

>  <Rbt.Current_Directory>
/home/itssahil/PROJECTS/Mol_Feturizer/New_Systems/rnas/1nem

>  <Rbt.Executable>
rbdock ($Id: //depot/dev/client3/rdock/2013.1/src/exe/rbdock.cxx#4 $)

>  <Rbt.Library>
libRbt.so (2013.1, Build901 2013/11/27)

>  <Rbt.Parameter_File>
/export/apps/rDock/src/rDock_2013.1_src/data/scripts/dock_solv.prm

>  <Rbt.Receptor>
prm/pocket_docking_7.prm

>  <SCORE>
-49.7348

>  <SCORE.INTER>
-60.7503

>  <SCORE.INTER.CONST>
1

>  <SCORE.INTER.POLAR>
-8.79733

>  <SCORE.INTER.ROT>
9

>  <SCORE.INTER.SOLV>
37.3243

>  <SCORE.INTER.VDW>
-33.2172

>  <SCORE.INTER.norm>
-1.44644

>  <SCORE.INTRA>
11.0155

>  <SCORE.INTRA.DIHEDRAL>
14.2484

>  <SCORE.INTRA.DIHEDRAL.0>
22.4324

>  <SCORE.INTRA.POLAR>
-0.496874

>  <SCORE.INTRA.POLAR.0>
-1.83749

>  <SCORE.INTRA.REPUL>
0

>  <SCORE.INTRA.REPUL.0>
0

>  <SCORE.INTRA.SOLV>
-0.817407

>  <SCORE.INTRA.SOLV.lig_0>
-160.638

>  <SCORE.INTRA.VDW>
5.98937

>  <SCORE.INTRA.VDW.0>
-7.61953

>  <SCORE.INTRA.norm>
0.262274

>  <SCORE.RESTR>
0

>  <SCORE.RESTR.CAVITY>
0

>  <SCORE.RESTR.norm>
0

>  <SCORE.SYSTEM>
0

>  <SCORE.SYSTEM.CONST>
0

>  <SCORE.SYSTEM.DIHEDRAL>
0

>  <SCORE.SYSTEM.SOLV>
0

>  <SCORE.SYSTEM.norm>
0

>  <SCORE.heavy>
42

>  <SCORE.norm>
-1.18416

>  <RMSD>
2.571

$$$$
1NEM.B
 OpenBabel11021811403D
libRbt.so/2013.1/901 2013/11/27
 42 45  0  0  0  0  0  0  0  0999 V2000
    3.2493   -1.2885   -0.5280 O   0  0  0  0  0  0  0  0  0  0  0  0
    3.7847   -0.0896   -1.0920 C   0  0  0  0  0  0  0  0  0  0  0  0
    3.0257    1.1648   -0.6619 C   0  0  1  0  0  0  0  0  0  0  0  0
    1.6985    1.1526   -1.1795 O   0  0  0  0  0  0  0  0  0  0  0  0
    2.8113    1.2937    0.8377 C   0  0  1  0  0  0  0  0  0  0  0  0
    4.0753    1.6177    1.4212 O   0  0  0  0  0  0  0  0  0  0  0  0
    1.7660    2.3934    0.8342 C   0  0  1  0  0  0  0  0  0  0  0  0
    2.3113    3.6560    0.4374 O   0  0  0  0  0  0  0  0  0  0  0  0
    0.8484    1.8453   -0.2651 C   0  0  2  0  0  0  0  0  0  0  0  0
    4.2286    1.3073    2.7767 C   0  0  2  0  0  0  0  0  0  0  0  0
    4.5177    2.5943    3.5611 C   0  0  2  0  0  0  0  0  0  0  0  0
    5.6701    3.3128    2.9560 N   0  3  0  0  0  0  0  0  0  0  0  0
    4.7568    2.2877    5.0431 C   0  0  1  0  0  0  0  0  0  0  0  0
    3.5336    1.8983    5.6536 O   0  0  0  0  0  0  0  0  0  0  0  0
    5.7950    1.1750    5.2170 C   0  0  2  0  0  0  0  0  0  0  0  0
    7.0811    1.6328    4.8186 O   0  0  0  0  0  0  0  0  0  0  0  0
    5.3924   -0.0376    4.3825 C   0  0  1  0  0  0  0  0  0  0  0  0
    5.2537    0.3482    3.0012 O   0  0  0  0  0  0  0  0  0  0  0  0
    6.3975   -1.1738    4.4530 C   0  0  0  0  0  0  0  0  0  0  0  0
    7.7503   -0.7411    4.0375 N   0  3  0  0  0  0  0  0  0  0  0  0
   -3.2993   -3.2542    3.9365 C   0  0  0  0  0  0  0  0  0  0  0  0
   -0.8654   -1.7579    1.5776 C   0  0  2  0  0  0  0  0  0  0  0  0
    0.0882   -2.9295    1.3565 C   0  0  2  0  0  0  0  0  0  0  0  0
    0.8690   -2.7280    0.1126 N   0  3  0  0  0  0  0  0  0  0  0  0
   -0.6949   -4.2316    1.2551 C   0  0  1  0  0  0  0  0  0  0  0  0
    0.2065   -5.3206    1.1277 O   0  0  0  0  0  0  0  0  0  0  0  0
   -1.5581   -4.4073    2.5024 C   0  0  2  0  0  0  0  0  0  0  0  0
   -2.3445   -5.5859    2.3845 O   0  0  0  0  0  0  0  0  0  0  0  0
   -2.5142   -3.7908    5.0718 N   0  3  0  0  0  0  0  0  0  0  0  0
   -2.4708   -3.1933    2.6651 C   0  0  2  0  0  0  0  0  0  0  0  0
   -1.6845   -1.9857    2.7214 O   0  0  0  0  0  0  0  0  0  0  0  0
   -3.2822    1.9370   -1.3644 C   0  0  2  0  0  0  0  0  0  0  0  0
   -3.8956    3.2775   -1.5062 N   0  3  0  0  0  0  0  0  0  0  0  0
   -4.1929    1.0316   -0.5429 C   0  0  0  0  0  0  0  0  0  0  0  0
   -3.5735   -0.3502   -0.3868 C   0  0  2  0  0  0  0  0  0  0  0  0
   -4.4888   -1.1627    0.4021 N   0  3  0  0  0  0  0  0  0  0  0  0
   -2.2161   -0.2339    0.3026 C   0  0  1  0  0  0  0  0  0  0  0  0
   -1.6243   -1.5424    0.4210 O   0  0  0  0  0  0  0  0  0  0  0  0
   -1.2767    0.6809   -0.4954 C   0  0  2  0  0  0  0  0  0  0  0  0
   -0.0459    0.8526    0.2328 O   0  0  0  0  0  0  0  0  0  0  0  0
   -1.8991    2.0556   -0.7265 C   0  0  1  0  0  0  0  0  0  0  0  0
   -1.0524    2.8237   -1.5712 O   0  0  0  0  0  0  0  0  0  0  0  0
  1  2  1  0  0  0  0
  3  2  1  1  0  0  0
  3  5  1  0  0  0  0
  3  4  1  0  0  0  0
  4  9  1  0  0  0  0
  5  7  1  0  0  0  0
  5  6  1  1  0  0  0
  7  9  1  0  0  0  0
  7  8  1  6  0  0  0
  9 40  1  1  0  0  0
 10  6  1  6  0  0  0
 10 11  1  0  0  0  0
 10 18  1  0  0  0  0
 11 13  1  0  0  0  0
 11 12  1  6  0  0  0
 13 15  1  0  0  0  0
 13 14  1  6  0  0  0
 15 17  1  0  0  0  0
 15 16  1  6  0  0  0
 17 19  1  6  0  0  0
 17 18  1  0  0  0  0
 19 20  1  0  0  0  0
 21 29  1  0  0  0  0
 22 23  1  0  0  0  0
 22 31  1  0  0  0  0
 22 38  1  6  0  0  0
 23 25  1  0  0  0  0
 23 24  1  6  0  0  0
 25 27  1  0  0  0  0
 25 26  1  1  0  0  0
 27 30  1  0  0  0  0
 27 28  1  6  0  0  0
 30 21  1  1  0  0  0
 30 31  1  0  0  0  0
 32 34  1  0  0  0  0
 32 41  1  0  0  0  0
 32 33  1  1  0  0  0
 34 35  1  0  0  0  0
 35 37  1  0  0  0  0
 35 36  1  1  0  0  0
 37 39  1  0  0  0  0
 37 38  1  6  0  0  0
 39 41  1  0  0  0  0
 39 40  1  1  0  0  0
 41 42  1  6  0  0  0
M  CHG  6  12   1  20   1  24   1  29   1  33   1  36   1
M  END
>  <CHROM.1>
-74.17161692,-65.91261547,-157.29122080,-119.69896137,52.20513866,-90.82397833
178.31395467,-75.26799301,64.96688863,-56.76538918,149.27169794,39.41238275
-74.55787028,-159.57795783,-159.94127847,-67.45669390,65.46275984,-33.01384794
68.07491146,-145.30806802,-170.16622164,-57.84910400,1.03554039,-0.14226132
1.55864532,0.09022036,-0.43160077,-0.54448214

>  <Name>
1NEM.B

>  <RI>
0

>  <Rbt.Current_Directory>
/home/itssahil/PROJECTS/Mol_Feturizer/New_Systems/rnas/1nem

>  <Rbt.Executable>
rbdock ($Id: //depot/dev/client3/rdock/2013.1/src/exe/rbdock.cxx#4 $)

>  <Rbt.Library>
libRbt.so (2013.1, Build901 2013/11/27)

>  <Rbt.Parameter_File>
/export/apps/rDock/src/rDock_2013.1_src/data/scripts/dock_solv.prm

>  <Rbt.Receptor>
prm/pocket_docking_3.prm

>  <SCORE>
-39.4271

>  <SCORE.INTER>
-48.687

>  <SCORE.INTER.CONST>
1

>  <SCORE.INTER.POLAR>
-6.87657

>  <SCORE.INTER.ROT>
9

>  <SCORE.INTER.SOLV>
40.95

>  <SCORE.INTER.VDW>
-32.7861

>  <SCORE.INTER.norm>
-1.15922

>  <SCORE.INTRA>
8.44243

>  <SCORE.INTRA.DIHEDRAL>
7.54414

>  <SCORE.INTRA.DIHEDRAL.0>
22.4324

>  <SCORE.INTRA.POLAR>
-0.616249

>  <SCORE.INTRA.POLAR.0>
-1.83749

>  <SCORE.INTRA.REPUL>
0

>  <SCORE.INTRA.REPUL.0>
0

>  <SCORE.INTRA.SOLV>
2.12039

>  <SCORE.INTRA.SOLV.lig_0>
-160.638

>  <SCORE.INTRA.VDW>
5.70542

>  <SCORE.INTRA.VDW.0>
-7.61953

>  <SCORE.INTRA.norm>
0.20101

>  <SCORE.RESTR>
0.817529

>  <SCORE.RESTR.CAVITY>
0.817529

>  <SCORE.RESTR.norm>
0.019465

>  <SCORE.SYSTEM>
0

>  <SCORE.SYSTEM.CONST>
0

>  <SCORE.SYSTEM.DIHEDRAL>
0

>  <SCORE.SYSTEM.SOLV>
0

>  <SCORE.SYSTEM.norm>
0

>  <SCORE.heavy>
42

>  <SCORE.norm>
-0.93874

>  <RMSD>
2.574

$$$$
1NEM.B
 OpenBabel11021811403D
libRbt.so/2013.1/901 2013/11/27
 42 45  0  0  0  0  0  0  0  0999 V2000
    4.0083   -1.0486   -0.1858 O   0  0  0  0  0  0  0  0  0  0  0  0
    3.5585   -0.2946    0.9417 C   0  0  0  0  0  0  0  0  0  0  0  0
    2.7595    0.9477    0.5505 C   0  0  1  0  0  0  0  0  0  0  0  0
    1.6758    0.6002   -0.3064 O   0  0  0  0  0  0  0  0  0  0  0  0
    2.0722    1.6512    1.7099 C   0  0  1  0  0  0  0  0  0  0  0  0
    3.0892    2.3029    2.4743 O   0  0  0  0  0  0  0  0  0  0  0  0
    1.1378    2.5499    0.9218 C   0  0  1  0  0  0  0  0  0  0  0  0
    1.8409    3.5899    0.2339 O   0  0  0  0  0  0  0  0  0  0  0  0
    0.6063    1.5188   -0.0808 C   0  0  2  0  0  0  0  0  0  0  0  0
    3.9433    1.4697    3.2048 C   0  0  2  0  0  0  0  0  0  0  0  0
    3.3834    1.2887    4.6222 C   0  0  2  0  0  0  0  0  0  0  0  0
    3.1305    2.6151    5.2443 N   0  3  0  0  0  0  0  0  0  0  0  0
    4.3256    0.4335    5.4757 C   0  0  1  0  0  0  0  0  0  0  0  0
    4.2888   -0.9137    5.0239 O   0  0  0  0  0  0  0  0  0  0  0  0
    5.7628    0.9591    5.4082 C   0  0  2  0  0  0  0  0  0  0  0  0
    5.8601    2.2167    6.0648 O   0  0  0  0  0  0  0  0  0  0  0  0
    6.1903    1.0987    3.9499 C   0  0  1  0  0  0  0  0  0  0  0  0
    5.2738    1.9678    3.2565 O   0  0  0  0  0  0  0  0  0  0  0  0
    7.5890    1.6671    3.7874 C   0  0  0  0  0  0  0  0  0  0  0  0
    7.8059    2.2221    2.4329 N   0  3  0  0  0  0  0  0  0  0  0  0
   -3.8717   -3.9329    3.7715 C   0  0  0  0  0  0  0  0  0  0  0  0
   -1.5640   -1.7235    1.8952 C   0  0  2  0  0  0  0  0  0  0  0  0
   -0.3772   -2.6581    1.6738 C   0  0  2  0  0  0  0  0  0  0  0  0
    0.4679   -2.1599    0.5624 N   0  3  0  0  0  0  0  0  0  0  0  0
   -0.8686   -4.0612    1.3439 C   0  0  1  0  0  0  0  0  0  0  0  0
    0.2413   -4.9368    1.2170 O   0  0  0  0  0  0  0  0  0  0  0  0
   -1.7996   -4.5501    2.4512 C   0  0  2  0  0  0  0  0  0  0  0  0
   -2.3174   -5.8315    2.1172 O   0  0  0  0  0  0  0  0  0  0  0  0
   -3.4081   -3.3533    5.0529 N   0  3  0  0  0  0  0  0  0  0  0  0
   -2.9491   -3.5593    2.6244 C   0  0  2  0  0  0  0  0  0  0  0  0
   -2.4311   -2.2420    2.9004 O   0  0  0  0  0  0  0  0  0  0  0  0
   -3.4803    1.9846   -1.3804 C   0  0  2  0  0  0  0  0  0  0  0  0
   -3.9684    3.3605   -1.6293 N   0  3  0  0  0  0  0  0  0  0  0  0
   -4.5110    1.2042   -0.5724 C   0  0  0  0  0  0  0  0  0  0  0  0
   -4.0213   -0.2124   -0.3068 C   0  0  2  0  0  0  0  0  0  0  0  0
   -5.0467   -0.9017    0.4635 N   0  3  0  0  0  0  0  0  0  0  0  0
   -2.7016   -0.1684    0.4600 C   0  0  1  0  0  0  0  0  0  0  0  0
   -2.2308   -1.5120    0.6825 O   0  0  0  0  0  0  0  0  0  0  0  0
   -1.6429    0.6202   -0.3232 C   0  0  2  0  0  0  0  0  0  0  0  0
   -0.4467    0.7318    0.4714 O   0  0  0  0  0  0  0  0  0  0  0  0
   -2.1318    2.0259   -0.6634 C   0  0  1  0  0  0  0  0  0  0  0  0
   -1.1750    2.6735   -1.4914 O   0  0  0  0  0  0  0  0  0  0  0  0
  1  2  1  0  0  0  0
  3  2  1  1  0  0  0
  3  5  1  0  0  0  0
  3  4  1  0  0  0  0
  4  9  1  0  0  0  0
  5  7  1  0  0  0  0
  5  6  1  6  0  0  0
  7  9  1  0  0  0  0
  7  8  1  6  0  0  0
  9 40  1  1  0  0  0
 10  6  1  6  0  0  0
 10 11  1  0  0  0  0
 10 18  1  0  0  0  0
 11 13  1  0  0  0  0
 11 12  1  1  0  0  0
 13 15  1  0  0  0  0
 13 14  1  6  0  0  0
 15 17  1  0  0  0  0
 15 16  1  6  0  0  0
 17 19  1  1  0  0  0
 17 18  1  0  0  0  0
 19 20  1  0  0  0  0
 21 29  1  0  0  0  0
 22 23  1  0  0  0  0
 22 31  1  0  0  0  0
 22 38  1  6  0  0  0
 23 25  1  0  0  0  0
 23 24  1  6  0  0  0
 25 27  1  0  0  0  0
 25 26  1  1  0  0  0
 27 30  1  0  0  0  0
 27 28  1  6  0  0  0
 30 21  1  1  0  0  0
 30 31  1  0  0  0  0
 32 34  1  0  0  0  0
 32 41  1  0  0  0  0
 32 33  1  1  0  0  0
 34 35  1  0  0  0  0
 35 37  1  0  0  0  0
 35 36  1  1  0  0  0
 37 39  1  0  0  0  0
 37 38  1  6  0  0  0
 39 41  1  0  0  0  0
 39 40  1  1  0  0  0
 41 42  1  6  0  0  0
M  CHG  6  12   1  20   1  24   1  29   1  33   1  36   1
M  END
>  <CHROM.1>
-172.15075288,54.30295223,-70.58773182,-92.35212243,58.84748007,-115.31469322
-70.57887704,179.95568319,177.98943340,-160.34381087,-73.04231787,88.37832379
-178.70073212,-140.66248285,162.38812020,63.53054390,159.35906005,-137.35342054
52.82720120,-145.20364658,-175.87856543,-59.32714045,0.69643733,-0.05857715
1.81693832,0.11483308,-0.44328252,-0.56512265

>  <Name>
1NEM.B

>  <RI>
0

>  <Rbt.Current_Directory>
/home/itssahil/PROJECTS/Mol_Feturizer/New_Systems/rnas/1nem

>  <Rbt.Executable>
rbdock ($Id: //depot/dev/client3/rdock/2013.1/src/exe/rbdock.cxx#4 $)

>  <Rbt.Library>
libRbt.so (2013.1, Build901 2013/11/27)

>  <Rbt.Parameter_File>
/export/apps/rDock/src/rDock_2013.1_src/data/scripts/dock_solv.prm

>  <Rbt.Receptor>
prm/pocket_docking_3.prm

>  <SCORE>
-38.7991

>  <SCORE.INTER>
-47.2873

>  <SCORE.INTER.CONST>
1

>  <SCORE.INTER.POLAR>
-6.84782

>  <SCORE.INTER.ROT>
9

>  <SCORE.INTER.SOLV>
40.0182

>  <SCORE.INTER.VDW>
-31.6382

>  <SCORE.INTER.norm>
-1.12589

>  <SCORE.INTRA>
8.06342

>  <SCORE.INTRA.DIHEDRAL>
10.2792

>  <SCORE.INTRA.DIHEDRAL.0>
22.4324

>  <SCORE.INTRA.POLAR>
-0.461948

>  <SCORE.INTRA.POLAR.0>
-1.83749

>  <SCORE.INTRA.REPUL>
0

>  <SCORE.INTRA.REPUL.0>
0

>  <SCORE.INTRA.SOLV>
-2.33489

>  <SCORE.INTRA.SOLV.lig_0>
-160.638

>  <SCORE.INTRA.VDW>
5.66186

>  <SCORE.INTRA.VDW.0>
-7.61953

>  <SCORE.INTRA.norm>
0.191986

>  <SCORE.RESTR>
0.424745

>  <SCORE.RESTR.CAVITY>
0.424745

>  <SCORE.RESTR.norm>
0.010113

>  <SCORE.SYSTEM>
0

>  <SCORE.SYSTEM.CONST>
0

>  <SCORE.SYSTEM.DIHEDRAL>
0

>  <SCORE.SYSTEM.SOLV>
0

>  <SCORE.SYSTEM.norm>
0

>  <SCORE.heavy>
42

>  <SCORE.norm>
-0.923789

>  <RMSD>
2.586

$$$$
1NEM.B
 OpenBabel11021811403D
libRbt.so/2013.1/901 2013/11/27
 42 45  0  0  0  0  0  0  0  0999 V2000
    2.2640   -2.0170    3.6299 O   0  0  0  0  0  0  0  0  0  0  0  0
    3.6019   -1.6223    3.3193 C   0  0  0  0  0  0  0  0  0  0  0  0
    3.6681   -0.3965    2.4094 C   0  0  1  0  0  0  0  0  0  0  0  0
    2.7871   -0.5448    1.2998 O   0  0  0  0  0  0  0  0  0  0  0  0
    3.1983    0.8980    3.0538 C   0  0  1  0  0  0  0  0  0  0  0  0
    4.2014    1.2938    3.9921 O   0  0  0  0  0  0  0  0  0  0  0  0
    3.0658    1.7499    1.8054 C   0  0  1  0  0  0  0  0  0  0  0  0
    4.3380    2.0720    1.2335 O   0  0  0  0  0  0  0  0  0  0  0  0
    2.3234    0.7488    0.9124 C   0  0  2  0  0  0  0  0  0  0  0  0
    5.5168    1.3207    3.5166 C   0  0  2  0  0  0  0  0  0  0  0  0
    6.1719   -0.0452    3.7627 C   0  0  2  0  0  0  0  0  0  0  0  0
    6.0381   -0.4249    5.1939 N   0  3  0  0  0  0  0  0  0  0  0  0
    7.6368   -0.0363    3.3140 C   0  0  1  0  0  0  0  0  0  0  0  0
    7.7014    0.0142    1.8949 O   0  0  0  0  0  0  0  0  0  0  0  0
    8.3889    1.1599    3.9054 C   0  0  2  0  0  0  0  0  0  0  0  0
    8.5318    1.0071    5.3120 O   0  0  0  0  0  0  0  0  0  0  0  0
    7.6302    2.4473    3.5960 C   0  0  1  0  0  0  0  0  0  0  0  0
    6.2881    2.3557    4.1123 O   0  0  0  0  0  0  0  0  0  0  0  0
    8.2789    3.6834    4.1936 C   0  0  0  0  0  0  0  0  0  0  0  0
    7.4133    4.8771    4.0678 N   0  3  0  0  0  0  0  0  0  0  0  0
   -3.9240   -3.0411    2.7820 C   0  0  0  0  0  0  0  0  0  0  0  0
   -0.5924   -1.8612    1.6705 C   0  0  2  0  0  0  0  0  0  0  0  0
    0.1817   -3.1761    1.6147 C   0  0  2  0  0  0  0  0  0  0  0  0
    1.3866   -3.0265    0.7642 N   0  3  0  0  0  0  0  0  0  0  0  0
   -0.7008   -4.2809    1.0493 C   0  0  1  0  0  0  0  0  0  0  0  0
    0.0037   -5.5128    1.0749 O   0  0  0  0  0  0  0  0  0  0  0  0
   -1.9785   -4.3890    1.8784 C   0  0  2  0  0  0  0  0  0  0  0  0
   -2.8388   -5.3712    1.3157 O   0  0  0  0  0  0  0  0  0  0  0  0
   -3.5681   -3.0993    4.2183 N   0  3  0  0  0  0  0  0  0  0  0  0
   -2.6870   -3.0359    1.9009 C   0  0  2  0  0  0  0  0  0  0  0  0
   -1.7997   -2.0200    2.4110 O   0  0  0  0  0  0  0  0  0  0  0  0
   -1.3316    2.4820   -1.2846 C   0  0  2  0  0  0  0  0  0  0  0  0
   -1.7118    3.9076   -1.4132 N   0  3  0  0  0  0  0  0  0  0  0  0
   -2.5703    1.6344   -1.0175 C   0  0  0  0  0  0  0  0  0  0  0  0
   -2.1941    0.1658   -0.8806 C   0  0  2  0  0  0  0  0  0  0  0  0
   -3.4156   -0.5859   -0.6294 N   0  3  0  0  0  0  0  0  0  0  0  0
   -1.2014   -0.0093    0.2662 C   0  0  1  0  0  0  0  0  0  0  0  0
   -0.8289   -1.3973    0.3709 O   0  0  0  0  0  0  0  0  0  0  0  0
    0.0556    0.8402    0.0327 C   0  0  2  0  0  0  0  0  0  0  0  0
    0.9226    0.7341    1.1780 O   0  0  0  0  0  0  0  0  0  0  0  0
   -0.2952    2.3114   -0.1751 C   0  0  1  0  0  0  0  0  0  0  0  0
    0.8805    3.0367   -0.5100 O   0  0  0  0  0  0  0  0  0  0  0  0
  1  2  1  0  0  0  0
  3  2  1  1  0  0  0
  3  5  1  0  0  0  0
  3  4  1  0  0  0  0
  4  9  1  0  0  0  0
  5  7  1  0  0  0  0
  5  6  1  1  0  0  0
  7  9  1  0  0  0  0
  7  8  1  6  0  0  0
  9 40  1  1  0  0  0
 10  6  1  1  0  0  0
 10 11  1  0  0  0  0
 10 18  1  0  0  0  0
 11 13  1  0  0  0  0
 11 12  1  1  0  0  0
 13 15  1  0  0  0  0
 13 14  1  6  0  0  0
 15 17  1  0  0  0  0
 15 16  1  1  0  0  0
 17 19  1  1  0  0  0
 17 18  1  0  0  0  0
 19 20  1  0  0  0  0
 21 29  1  0  0  0  0
 22 23  1  0  0  0  0
 22 31  1  0  0  0  0
 22 38  1  6  0  0  0
 23 25  1  0  0  0  0
 23 24  1  6  0  0  0
 25 27  1  0  0  0  0
 25 26  1  1  0  0  0
 27 30  1  0  0  0  0
 27 28  1  6  0  0  0
 30 21  1  1  0  0  0
 30 31  1  0  0  0  0
 32 34  1  0  0  0  0
 32 41  1  0  0  0  0
 32 33  1  1  0  0  0
 34 35  1  0  0  0  0
 35 37  1  0  0  0  0
 35 36  1  1  0  0  0
 37 39  1  0  0  0  0
 37 38  1  6  0  0  0
 39 41  1  0  0  0  0
 39 40  1  1  0  0  0
 41 42  1  6  0  0  0
M  CHG  6  12   1  20   1  24   1  29   1  33   1  36   1
M  END
>  <CHROM.1>
-47.94593307,-47.92330889,50.08228945,-90.84989419,-171.00057004,-114.79648651
-87.58599703,60.37392318,-96.43607495,-170.70310565,-173.63542824,71.49170949
-176.70557979,-163.04342177,15.67322443,67.82230663,-53.79233044,-50.65467829
-60.11512926,-145.52826849,144.86224621,73.81511721,1.92937733,-0.17225579
1.95156673,-0.22582778,0.42267531,2.72977976

>  <Name>
1NEM.B

>  <RI>
0

>  <Rbt.Current_Directory>
/home/itssahil/PROJECTS/Mol_Feturizer/New_Systems/rnas/1nem

>  <Rbt.Executable>
rbdock ($Id: //depot/dev/client3/rdock/2013.1/src/exe/rbdock.cxx#4 $)

>  <Rbt.Library>
libRbt.so (2013.1, Build901 2013/11/27)

>  <Rbt.Parameter_File>
/export/apps/rDock/src/rDock_2013.1_src/data/scripts/dock_solv.prm

>  <Rbt.Receptor>
prm/pocket_docking_3.prm

>  <SCORE>
-22.8687

>  <SCORE.INTER>
-37.2619

>  <SCORE.INTER.CONST>
1

>  <SCORE.INTER.POLAR>
-6.41379

>  <SCORE.INTER.ROT>
9

>  <SCORE.INTER.SOLV>
31.0031

>  <SCORE.INTER.VDW>
-23.3964

>  <SCORE.INTER.norm>
-0.887189

>  <SCORE.INTRA>
13.8452

>  <SCORE.INTRA.DIHEDRAL>
13.3228

>  <SCORE.INTRA.DIHEDRAL.0>
22.4324

>  <SCORE.INTRA.POLAR>
0.706431

>  <SCORE.INTRA.POLAR.0>
-1.83749

>  <SCORE.INTRA.REPUL>
0

>  <SCORE.INTRA.REPUL.0>
0

>  <SCORE.INTRA.SOLV>
1.14164

>  <SCORE.INTRA.SOLV.lig_0>
-160.638

>  <SCORE.INTRA.VDW>
4.21116

>  <SCORE.INTRA.VDW.0>
-7.61953

>  <SCORE.INTRA.norm>
0.329649

>  <SCORE.RESTR>
0.548015

>  <SCORE.RESTR.CAVITY>
0.548015

>  <SCORE.RESTR.norm>
0.013048

>  <SCORE.SYSTEM>
0

>  <SCORE.SYSTEM.CONST>
0

>  <SCORE.SYSTEM.DIHEDRAL>
0

>  <SCORE.SYSTEM.SOLV>
0

>  <SCORE.SYSTEM.norm>
0

>  <SCORE.heavy>
42

>  <SCORE.norm>
-0.544492

>  <RMSD>
2.607

$$$$
1NEM.B
 OpenBabel11021811403D
libRbt.so/2013.1/901 2013/11/27
 42 45  0  0  0  0  0  0  0  0999 V2000
    0.4785   -4.6228    2.7118 O   0  0  0  0  0  0  0  0  0  0  0  0
    1.5801   -4.1667    1.9240 C   0  0  0  0  0  0  0  0  0  0  0  0
    1.2457   -2.9349    1.0841 C   0  0  1  0  0  0  0  0  0  0  0  0
   -0.1539   -2.8651    0.8277 O   0  0  0  0  0  0  0  0  0  0  0  0
    1.5403   -1.6061    1.7615 C   0  0  1  0  0  0  0  0  0  0  0  0
    2.9608   -1.4481    1.7872 O   0  0  0  0  0  0  0  0  0  0  0  0
    0.7744   -0.6885    0.8270 C   0  0  1  0  0  0  0  0  0  0  0  0
    1.3964   -0.5846   -0.4581 O   0  0  0  0  0  0  0  0  0  0  0  0
   -0.5275   -1.4912    0.7204 C   0  0  2  0  0  0  0  0  0  0  0  0
    3.4446   -0.3086    2.4390 C   0  0  2  0  0  0  0  0  0  0  0  0
    4.6749   -0.6876    3.2745 C   0  0  2  0  0  0  0  0  0  0  0  0
    4.3498   -1.8252    4.1748 N   0  3  0  0  0  0  0  0  0  0  0  0
    5.1967    0.5221    4.0567 C   0  0  1  0  0  0  0  0  0  0  0  0
    5.7873    1.4527    3.1590 O   0  0  0  0  0  0  0  0  0  0  0  0
    4.0686    1.2049    4.8360 C   0  0  2  0  0  0  0  0  0  0  0  0
    3.6197    0.3656    5.8925 O   0  0  0  0  0  0  0  0  0  0  0  0
    2.9106    1.5195    3.8932 C   0  0  1  0  0  0  0  0  0  0  0  0
    2.4593    0.3077    3.2577 O   0  0  0  0  0  0  0  0  0  0  0  0
    1.7215    2.1517    4.5948 C   0  0  0  0  0  0  0  0  0  0  0  0
    1.9017    2.1877    6.0632 N   0  3  0  0  0  0  0  0  0  0  0  0
   -3.1856   -3.7600   -0.6148 C   0  0  0  0  0  0  0  0  0  0  0  0
   -4.6131   -3.0454    2.7287 C   0  0  2  0  0  0  0  0  0  0  0  0
   -4.5634   -4.4294    3.3715 C   0  0  2  0  0  0  0  0  0  0  0  0
   -4.6474   -4.3132    4.8470 N   0  3  0  0  0  0  0  0  0  0  0  0
   -3.2688   -5.1370    2.9943 C   0  0  1  0  0  0  0  0  0  0  0  0
   -3.2694   -6.4500    3.5333 O   0  0  0  0  0  0  0  0  0  0  0  0
   -3.1416   -5.1934    1.4736 C   0  0  2  0  0  0  0  0  0  0  0  0
   -1.9028   -5.7909    1.1135 O   0  0  0  0  0  0  0  0  0  0  0  0
   -3.3869   -2.3924   -1.1461 N   0  3  0  0  0  0  0  0  0  0  0  0
   -3.2159   -3.7783    0.9036 C   0  0  2  0  0  0  0  0  0  0  0  0
   -4.4415   -3.1407    1.3171 O   0  0  0  0  0  0  0  0  0  0  0  0
   -4.1280    1.0483    0.6438 C   0  0  2  0  0  0  0  0  0  0  0  0
   -4.0721    2.4209    0.0906 N   0  3  0  0  0  0  0  0  0  0  0  0
   -4.9340    1.0405    1.9378 C   0  0  0  0  0  0  0  0  0  0  0  0
   -4.9980   -0.3648    2.5195 C   0  0  2  0  0  0  0  0  0  0  0  0
   -5.7790   -0.3042    3.7469 N   0  3  0  0  0  0  0  0  0  0  0  0
   -3.5858   -0.8746    2.7972 C   0  0  1  0  0  0  0  0  0  0  0  0
   -3.6538   -2.2153    3.3210 O   0  0  0  0  0  0  0  0  0  0  0  0
   -2.7432   -0.8700    1.5142 C   0  0  2  0  0  0  0  0  0  0  0  0
   -1.3917   -1.2554    1.8298 O   0  0  0  0  0  0  0  0  0  0  0  0
   -2.7147    0.5136    0.8696 C   0  0  1  0  0  0  0  0  0  0  0  0
   -2.0308    0.4433   -0.3745 O   0  0  0  0  0  0  0  0  0  0  0  0
  1  2  1  0  0  0  0
  3  2  1  1  0  0  0
  3  5  1  0  0  0  0
  3  4  1  0  0  0  0
  4  9  1  0  0  0  0
  5  7  1  0  0  0  0
  5  6  1  6  0  0  0
  7  9  1  0  0  0  0
  7  8  1  6  0  0  0
  9 40  1  1  0  0  0
 10  6  1  1  0  0  0
 10 11  1  0  0  0  0
 10 18  1  0  0  0  0
 11 13  1  0  0  0  0
 11 12  1  1  0  0  0
 13 15  1  0  0  0  0
 13 14  1  6  0  0  0
 15 17  1  0  0  0  0
 15 16  1  1  0  0  0
 17 19  1  1  0  0  0
 17 18  1  0  0  0  0
 19 20  1  0  0  0  0
 21 29  1  0  0  0  0
 22 23  1  0  0  0  0
 22 31  1  0  0  0  0
 22 38  1  1  0  0  0
 23 25  1  0  0  0  0
 23 24  1  1  0  0  0
 25 27  1  0  0  0  0
 25 26  1  6  0  0  0
 27 30  1  0  0  0  0
 27 28  1  1  0  0  0
 30 21  1  6  0  0  0
 30 31  1  0  0  0  0
 32 34  1  0  0  0  0
 32 41  1  0  0  0  0
 32 33  1  1  0  0  0
 34 35  1  0  0  0  0
 35 37  1  0  0  0  0
 35 36  1  1  0  0  0
 37 39  1  0  0  0  0
 37 38  1  6  0  0  0
 39 41  1  0  0  0  0
 39 40  1  1  0  0  0
 41 42  1  6  0  0  0
M  CHG  6  12   1  20   1  24   1  29   1  33   1  36   1
M  END
>  <CHROM.1>
56.67294088,-24.86835144,-176.75505737,138.41134359,-62.75962233,-117.86427215
-24.72042905,-175.45973220,-66.44727633,-6.06627301,70.19115378,174.62647973
-147.59014115,179.52628722,-53.04754122,28.86162670,-157.63890853,-108.16074513
57.70504792,39.58078310,171.09893540,-50.15330897,-0.71441708,-1.46927356
2.30716504,-0.37938657,0.22590938,-3.12467416

>  <Name>
1NEM.B

>  <RI>
0

>  <Rbt.Current_Directory>
/home/itssahil/PROJECTS/Mol_Feturizer/New_Systems/rnas/1nem

>  <Rbt.Executable>
rbdock ($Id: //depot/dev/client3/rdock/2013.1/src/exe/rbdock.cxx#4 $)

>  <Rbt.Library>
libRbt.so (2013.1, Build901 2013/11/27)

>  <Rbt.Parameter_File>
/export/apps/rDock/src/rDock_2013.1_src/data/scripts/dock_solv.prm

>  <Rbt.Receptor>
prm/blind_docking_60.prm

>  <SCORE>
5.23409

>  <SCORE.INTER>
-16.958

>  <SCORE.INTER.CONST>
1

>  <SCORE.INTER.POLAR>
-6.52391

>  <SCORE.INTER.ROT>
9

>  <SCORE.INTER.SOLV>
52.902

>  <SCORE.INTER.VDW>
-16.7929

>  <SCORE.INTER.norm>
-0.403761

>  <SCORE.INTRA>
19.5839

>  <SCORE.INTRA.DIHEDRAL>
16.8059

>  <SCORE.INTRA.DIHEDRAL.0>
22.4324

>  <SCORE.INTRA.POLAR>
0.412369

>  <SCORE.INTRA.POLAR.0>
-1.83749

>  <SCORE.INTRA.REPUL>
0.000765535

>  <SCORE.INTRA.REPUL.0>
0

>  <SCORE.INTRA.SOLV>
4.3992

>  <SCORE.INTRA.SOLV.lig_0>
-160.638

>  <SCORE.INTRA.VDW>
7.5755

>  <SCORE.INTRA.VDW.0>
-7.61953

>  <SCORE.INTRA.norm>
0.466284

>  <SCORE.RESTR>
2.60813

>  <SCORE.RESTR.CAVITY>
2.60813

>  <SCORE.RESTR.norm>
0.0620983

>  <SCORE.SYSTEM>
0

>  <SCORE.SYSTEM.CONST>
0

>  <SCORE.SYSTEM.DIHEDRAL>
0

>  <SCORE.SYSTEM.SOLV>
0

>  <SCORE.SYSTEM.norm>
0

>  <SCORE.heavy>
42

>  <SCORE.norm>
0.124621

>  <RMSD>
2.633

$$$$
1NEM.B
 OpenBabel11021811403D
libRbt.so/2013.1/901 2013/11/27
 42 45  0  0  0  0  0  0  0  0999 V2000
    3.2428   -0.7542   -1.2165 O   0  0  0  0  0  0  0  0  0  0  0  0
    4.1720    0.3287   -1.2941 C   0  0  0  0  0  0  0  0  0  0  0  0
    3.7161    1.5648   -0.5202 C   0  0  1  0  0  0  0  0  0  0  0  0
    2.4937    2.0686   -1.0506 O   0  0  0  0  0  0  0  0  0  0  0  0
    3.3808    1.3107    0.9408 C   0  0  1  0  0  0  0  0  0  0  0  0
    4.6150    1.0913    1.6279 O   0  0  0  0  0  0  0  0  0  0  0  0
    2.6573    2.6086    1.2474 C   0  0  1  0  0  0  0  0  0  0  0  0
    3.5463    3.7303    1.2706 O   0  0  0  0  0  0  0  0  0  0  0  0
    1.7548    2.6753    0.0097 C   0  0  2  0  0  0  0  0  0  0  0  0
    4.6705    1.5307    2.9550 C   0  0  2  0  0  0  0  0  0  0  0  0
    5.6849    0.6774    3.7285 C   0  0  2  0  0  0  0  0  0  0  0  0
    5.3665   -0.7657    3.5666 N   0  3  0  0  0  0  0  0  0  0  0  0
    5.7276    1.0855    5.2047 C   0  0  1  0  0  0  0  0  0  0  0  0
    6.3370    2.3636    5.3295 O   0  0  0  0  0  0  0  0  0  0  0  0
    4.3202    1.1261    5.8080 C   0  0  2  0  0  0  0  0  0  0  0  0
    3.7842   -0.1878    5.9000 O   0  0  0  0  0  0  0  0  0  0  0  0
    3.4155    1.9981    4.9420 C   0  0  1  0  0  0  0  0  0  0  0  0
    3.4007    1.4923    3.5930 O   0  0  0  0  0  0  0  0  0  0  0  0
    1.9813    2.0514    5.4383 C   0  0  0  0  0  0  0  0  0  0  0  0
    1.9041    2.4429    6.8633 N   0  3  0  0  0  0  0  0  0  0  0  0
   -4.9514   -2.5360    0.2503 C   0  0  0  0  0  0  0  0  0  0  0  0
   -1.9319   -0.5431    1.0493 C   0  0  2  0  0  0  0  0  0  0  0  0
   -0.9580   -1.6409    1.4704 C   0  0  2  0  0  0  0  0  0  0  0  0
    0.4374   -1.1465    1.3923 N   0  3  0  0  0  0  0  0  0  0  0  0
   -1.1138   -2.8560    0.5658 C   0  0  1  0  0  0  0  0  0  0  0  0
   -0.2594   -3.8966    1.0149 O   0  0  0  0  0  0  0  0  0  0  0  0
   -2.5672   -3.3244    0.5851 C   0  0  2  0  0  0  0  0  0  0  0  0
   -2.7357   -4.4158   -0.3103 O   0  0  0  0  0  0  0  0  0  0  0  0
   -5.3140   -3.5602   -0.7559 N   0  3  0  0  0  0  0  0  0  0  0  0
   -3.4792   -2.1717    0.1695 C   0  0  2  0  0  0  0  0  0  0  0  0
   -3.2689   -1.0365    1.0337 O   0  0  0  0  0  0  0  0  0  0  0  0
   -1.7744    3.7801   -2.0716 C   0  0  2  0  0  0  0  0  0  0  0  0
   -1.9702    5.2359   -2.2599 N   0  3  0  0  0  0  0  0  0  0  0  0
   -3.0578    3.1451   -1.5484 C   0  0  0  0  0  0  0  0  0  0  0  0
   -2.8705    1.6478   -1.3478 C   0  0  2  0  0  0  0  0  0  0  0  0
   -4.1264    1.1038   -0.8510 N   0  3  0  0  0  0  0  0  0  0  0  0
   -1.7378    1.3965   -0.3552 C   0  0  1  0  0  0  0  0  0  0  0  0
   -1.5482   -0.0226   -0.1924 O   0  0  0  0  0  0  0  0  0  0  0  0
   -0.4307    2.0328   -0.8482 C   0  0  2  0  0  0  0  0  0  0  0  0
    0.5884    1.8683    0.1564 O   0  0  0  0  0  0  0  0  0  0  0  0
   -0.6045    3.5244   -1.1228 C   0  0  1  0  0  0  0  0  0  0  0  0
    0.5896    4.0441   -1.6927 O   0  0  0  0  0  0  0  0  0  0  0  0
  1  2  1  0  0  0  0
  3  2  1  6  0  0  0
  3  5  1  0  0  0  0
  3  4  1  0  0  0  0
  4  9  1  0  0  0  0
  5  7  1  0  0  0  0
  5  6  1  1  0  0  0
  7  9  1  0  0  0  0
  7  8  1  6  0  0  0
  9 40  1  1  0  0  0
 10  6  1  6  0  0  0
 10 11  1  0  0  0  0
 10 18  1  0  0  0  0
 11 13  1  0  0  0  0
 11 12  1  1  0  0  0
 13 15  1  0  0  0  0
 13 14  1  6  0  0  0
 15 17  1  0  0  0  0
 15 16  1  6  0  0  0
 17 19  1  1  0  0  0
 17 18  1  0  0  0  0
 19 20  1  0  0  0  0
 21 29  1  0  0  0  0
 22 23  1  0  0  0  0
 22 31  1  0  0  0  0
 22 38  1  6  0  0  0
 23 25  1  0  0  0  0
 23 24  1  6  0  0  0
 25 27  1  0  0  0  0
 25 26  1  1  0  0  0
 27 30  1  0  0  0  0
 27 28  1  6  0  0  0
 30 21  1  1  0  0  0
 30 31  1  0  0  0  0
 32 34  1  0  0  0  0
 32 41  1  0  0  0  0
 32 33  1  1  0  0  0
 34 35  1  0  0  0  0
 35 37  1  0  0  0  0
 35 36  1  1  0  0  0
 37 39  1  0  0  0  0
 37 38  1  6  0  0  0
 39 41  1  0  0  0  0
 39 40  1  1  0  0  0
 41 42  1  6  0  0  0
M  CHG  6  12   1  20   1  24   1  29   1  33   1  36   1
M  END
>  <CHROM.1>
66.35531501,-61.69337787,147.07672087,152.69489993,-101.20840529,-75.42632873
49.67988500,82.76023118,-163.32204280,53.11775429,50.83821876,-67.30269221
-124.77927613,-142.93643281,112.11709098,-130.78522128,56.78651269,-55.32586421
-113.69902565,-109.99702380,-165.06765187,-58.84141617,0.78793877,0.66664155
1.16696763,-0.07425469,-0.58566044,-0.58531961

>  <Name>
1NEM.B

>  <RI>
0

>  <Rbt.Current_Directory>
/home/itssahil/PROJECTS/Mol_Feturizer/New_Systems/rnas/1nem

>  <Rbt.Executable>
rbdock ($Id: //depot/dev/client3/rdock/2013.1/src/exe/rbdock.cxx#4 $)

>  <Rbt.Library>
libRbt.so (2013.1, Build901 2013/11/27)

>  <Rbt.Parameter_File>
/export/apps/rDock/src/rDock_2013.1_src/data/scripts/dock_solv.prm

>  <Rbt.Receptor>
prm/pocket_docking_8.prm

>  <SCORE>
-29.9464

>  <SCORE.INTER>
-49.8838

>  <SCORE.INTER.CONST>
1

>  <SCORE.INTER.POLAR>
-8.81752

>  <SCORE.INTER.ROT>
9

>  <SCORE.INTER.SOLV>
41.5891

>  <SCORE.INTER.VDW>
-27.3272

>  <SCORE.INTER.norm>
-1.18771

>  <SCORE.INTRA>
19.9374

>  <SCORE.INTRA.DIHEDRAL>
25.905

>  <SCORE.INTRA.DIHEDRAL.0>
22.4324

>  <SCORE.INTRA.POLAR>
-0.676879

>  <SCORE.INTRA.POLAR.0>
-1.83749

>  <SCORE.INTRA.REPUL>
0

>  <SCORE.INTRA.REPUL.0>
0

>  <SCORE.INTRA.SOLV>
-0.380187

>  <SCORE.INTRA.SOLV.lig_0>
-160.638

>  <SCORE.INTRA.VDW>
9.47639

>  <SCORE.INTRA.VDW.0>
-7.61953

>  <SCORE.INTRA.norm>
0.4747

>  <SCORE.RESTR>
0

>  <SCORE.RESTR.CAVITY>
0

>  <SCORE.RESTR.norm>
0

>  <SCORE.SYSTEM>
0

>  <SCORE.SYSTEM.CONST>
0

>  <SCORE.SYSTEM.DIHEDRAL>
0

>  <SCORE.SYSTEM.SOLV>
0

>  <SCORE.SYSTEM.norm>
0

>  <SCORE.heavy>
42

>  <SCORE.norm>
-0.713009

>  <RMSD>
2.642

$$$$
1NEM.B
 OpenBabel11021811403D
libRbt.so/2013.1/901 2013/11/27
 42 45  0  0  0  0  0  0  0  0999 V2000
    1.6599   -2.0966    2.9227 O   0  0  0  0  0  0  0  0  0  0  0  0
    2.8047   -1.8842    2.0943 C   0  0  0  0  0  0  0  0  0  0  0  0
    2.5811   -0.8129    1.0280 C   0  0  1  0  0  0  0  0  0  0  0  0
    1.4072   -1.0930    0.2711 O   0  0  0  0  0  0  0  0  0  0  0  0
    2.3162    0.5808    1.5747 C   0  0  1  0  0  0  0  0  0  0  0  0
    3.5524    1.0750    2.0952 O   0  0  0  0  0  0  0  0  0  0  0  0
    1.8044    1.2394    0.3074 C   0  0  1  0  0  0  0  0  0  0  0  0
    2.8408    1.4229   -0.6628 O   0  0  0  0  0  0  0  0  0  0  0  0
    0.8360    0.1443   -0.1549 C   0  0  2  0  0  0  0  0  0  0  0  0
    4.5906    1.2391    1.1720 C   0  0  2  0  0  0  0  0  0  0  0  0
    5.5161    0.0161    1.2284 C   0  0  2  0  0  0  0  0  0  0  0  0
    5.9622   -0.2222    2.6264 N   0  3  0  0  0  0  0  0  0  0  0  0
    6.7044    0.1870    0.2764 C   0  0  1  0  0  0  0  0  0  0  0  0
    6.2558    0.0929   -1.0692 O   0  0  0  0  0  0  0  0  0  0  0  0
    7.3975    1.5356    0.4938 C   0  0  2  0  0  0  0  0  0  0  0  0
    8.0502    1.5575    1.7570 O   0  0  0  0  0  0  0  0  0  0  0  0
    6.3679    2.6596    0.4201 C   0  0  1  0  0  0  0  0  0  0  0  0
    5.3308    2.4324    1.3942 O   0  0  0  0  0  0  0  0  0  0  0  0
    6.9611    4.0333    0.6790 C   0  0  0  0  0  0  0  0  0  0  0  0
    7.3080    4.2255    2.1047 N   0  3  0  0  0  0  0  0  0  0  0  0
   -3.7813   -2.5231    4.4211 C   0  0  0  0  0  0  0  0  0  0  0  0
   -1.3907   -2.2782    1.6011 C   0  0  2  0  0  0  0  0  0  0  0  0
   -0.8700   -3.7118    1.5317 C   0  0  2  0  0  0  0  0  0  0  0  0
   -0.2576   -3.9717    0.2070 N   0  3  0  0  0  0  0  0  0  0  0  0
   -2.0092   -4.6957    1.7624 C   0  0  1  0  0  0  0  0  0  0  0  0
   -1.4995   -6.0203    1.7728 O   0  0  0  0  0  0  0  0  0  0  0  0
   -2.6913   -4.3848    3.0928 C   0  0  2  0  0  0  0  0  0  0  0  0
   -3.7996   -5.2548    3.2832 O   0  0  0  0  0  0  0  0  0  0  0  0
   -4.6784   -1.3549    4.2680 N   0  3  0  0  0  0  0  0  0  0  0  0
   -3.1695   -2.9341    3.0932 C   0  0  2  0  0  0  0  0  0  0  0  0
   -2.0619   -2.0468    2.8369 O   0  0  0  0  0  0  0  0  0  0  0  0
   -3.3961    1.6361   -1.3095 C   0  0  2  0  0  0  0  0  0  0  0  0
   -3.8733    3.0300   -1.4601 N   0  3  0  0  0  0  0  0  0  0  0  0
   -4.4510    0.7984   -0.5958 C   0  0  0  0  0  0  0  0  0  0  0  0
   -3.9728   -0.6375   -0.4318 C   0  0  2  0  0  0  0  0  0  0  0  0
   -5.0212   -1.3814    0.2519 N   0  3  0  0  0  0  0  0  0  0  0  0
   -2.6749   -0.6619    0.3720 C   0  0  1  0  0  0  0  0  0  0  0  0
   -2.2141   -2.0213    0.4984 O   0  0  0  0  0  0  0  0  0  0  0  0
   -1.5926    0.1819   -0.3156 C   0  0  2  0  0  0  0  0  0  0  0  0
   -0.4187    0.2233    0.5180 O   0  0  0  0  0  0  0  0  0  0  0  0
   -2.0679    1.6128   -0.5547 C   0  0  1  0  0  0  0  0  0  0  0  0
   -1.0867    2.3202   -1.3012 O   0  0  0  0  0  0  0  0  0  0  0  0
  1  2  1  0  0  0  0
  3  2  1  1  0  0  0
  3  5  1  0  0  0  0
  3  4  1  0  0  0  0
  4  9  1  0  0  0  0
  5  7  1  0  0  0  0
  5  6  1  6  0  0  0
  7  9  1  0  0  0  0
  7  8  1  6  0  0  0
  9 40  1  1  0  0  0
 10  6  1  1  0  0  0
 10 11  1  0  0  0  0
 10 18  1  0  0  0  0
 11 13  1  0  0  0  0
 11 12  1  1  0  0  0
 13 15  1  0  0  0  0
 13 14  1  6  0  0  0
 15 17  1  0  0  0  0
 15 16  1  1  0  0  0
 17 19  1  1  0  0  0
 17 18  1  0  0  0  0
 19 20  1  0  0  0  0
 21 29  1  0  0  0  0
 22 23  1  0  0  0  0
 22 31  1  0  0  0  0
 22 38  1  6  0  0  0
 23 25  1  0  0  0  0
 23 24  1  6  0  0  0
 25 27  1  0  0  0  0
 25 26  1  1  0  0  0
 27 30  1  0  0  0  0
 27 28  1  6  0  0  0
 30 21  1  1  0  0  0
 30 31  1  0  0  0  0
 32 34  1  0  0  0  0
 32 41  1  0  0  0  0
 32 33  1  1  0  0  0
 34 35  1  0  0  0  0
 35 37  1  0  0  0  0
 35 36  1  1  0  0  0
 37 39  1  0  0  0  0
 37 38  1  6  0  0  0
 39 41  1  0  0  0  0
 39 40  1  1  0  0  0
 41 42  1  6  0  0  0
M  CHG  6  12   1  20   1  24   1  29   1  33   1  36   1
M  END
>  <CHROM.1>
-56.60532743,-52.84844690,62.88275437,-97.71411984,-177.35112207,-114.50010041
-43.70089037,70.52137159,-83.85938349,-72.50495996,83.60036594,-158.27661036
-44.31480317,-174.43023452,124.27639777,45.82341695,174.04577654,-31.36092724
177.99716641,-155.45836664,140.69952927,63.06484104,0.79960276,-0.42039722
1.07147713,-0.37334633,0.14785295,2.64450297

>  <Name>
1NEM.B

>  <RI>
0

>  <Rbt.Current_Directory>
/home/itssahil/PROJECTS/Mol_Feturizer/New_Systems/rnas/1nem

>  <Rbt.Executable>
rbdock ($Id: //depot/dev/client3/rdock/2013.1/src/exe/rbdock.cxx#4 $)

>  <Rbt.Library>
libRbt.so (2013.1, Build901 2013/11/27)

>  <Rbt.Parameter_File>
/export/apps/rDock/src/rDock_2013.1_src/data/scripts/dock_solv.prm

>  <Rbt.Receptor>
prm/pocket_docking_5.prm

>  <SCORE>
-38.0687

>  <SCORE.INTER>
-55.4802

>  <SCORE.INTER.CONST>
1

>  <SCORE.INTER.POLAR>
-8.07569

>  <SCORE.INTER.ROT>
9

>  <SCORE.INTER.SOLV>
41.0941

>  <SCORE.INTER.VDW>
-33.3659

>  <SCORE.INTER.norm>
-1.32096

>  <SCORE.INTRA>
17.4115

>  <SCORE.INTRA.DIHEDRAL>
12.5875

>  <SCORE.INTRA.DIHEDRAL.0>
22.4324

>  <SCORE.INTRA.POLAR>
1.65157

>  <SCORE.INTRA.POLAR.0>
-1.83749

>  <SCORE.INTRA.REPUL>
0.016987

>  <SCORE.INTRA.REPUL.0>
0

>  <SCORE.INTRA.SOLV>
1.70788

>  <SCORE.INTRA.SOLV.lig_0>
-160.638

>  <SCORE.INTRA.VDW>
4.56356

>  <SCORE.INTRA.VDW.0>
-7.61953

>  <SCORE.INTRA.norm>
0.41456

>  <SCORE.RESTR>
0

>  <SCORE.RESTR.CAVITY>
0

>  <SCORE.RESTR.norm>
0

>  <SCORE.SYSTEM>
0

>  <SCORE.SYSTEM.CONST>
0

>  <SCORE.SYSTEM.DIHEDRAL>
0

>  <SCORE.SYSTEM.SOLV>
0

>  <SCORE.SYSTEM.norm>
0

>  <SCORE.heavy>
42

>  <SCORE.norm>
-0.906397

>  <RMSD>
2.661

$$$$
1NEM.B
 OpenBabel11021811403D
libRbt.so/2013.1/901 2013/11/27
 42 45  0  0  0  0  0  0  0  0999 V2000
    3.4466    1.5228   -2.4015 O   0  0  0  0  0  0  0  0  0  0  0  0
    3.8928    2.1208   -1.1828 C   0  0  0  0  0  0  0  0  0  0  0  0
    3.3572    1.4143    0.0617 C   0  0  1  0  0  0  0  0  0  0  0  0
    1.9343    1.4725    0.1006 O   0  0  0  0  0  0  0  0  0  0  0  0
    3.6442   -0.0777    0.1171 C   0  0  1  0  0  0  0  0  0  0  0  0
    5.0394   -0.2321    0.3873 O   0  0  0  0  0  0  0  0  0  0  0  0
    2.6923   -0.4610    1.2346 C   0  0  1  0  0  0  0  0  0  0  0  0
    3.1227    0.0371    2.5057 O   0  0  0  0  0  0  0  0  0  0  0  0
    1.4502    0.3029    0.7609 C   0  0  2  0  0  0  0  0  0  0  0  0
    5.6262    0.7515    1.1906 C   0  0  2  0  0  0  0  0  0  0  0  0
    7.0735    0.9807    0.7341 C   0  0  2  0  0  0  0  0  0  0  0  0
    7.8085   -0.3112    0.7000 N   0  3  0  0  0  0  0  0  0  0  0  0
    7.7727    2.0062    1.6323 C   0  0  1  0  0  0  0  0  0  0  0  0
    7.2324    3.2988    1.3918 O   0  0  0  0  0  0  0  0  0  0  0  0
    7.6085    1.6479    3.1125 C   0  0  2  0  0  0  0  0  0  0  0  0
    8.3402    0.4678    3.4191 O   0  0  0  0  0  0  0  0  0  0  0  0
    6.1301    1.4410    3.4295 C   0  0  1  0  0  0  0  0  0  0  0  0
    5.5884    0.4176    2.5720 O   0  0  0  0  0  0  0  0  0  0  0  0
    5.8781    1.0281    4.8689 C   0  0  0  0  0  0  0  0  0  0  0  0
    6.0598    2.1576    5.8075 N   0  3  0  0  0  0  0  0  0  0  0  0
   -3.6749   -3.4967    4.0612 C   0  0  0  0  0  0  0  0  0  0  0  0
   -0.9709   -2.1198    1.9352 C   0  0  2  0  0  0  0  0  0  0  0  0
   -0.2352   -3.3955    1.5323 C   0  0  2  0  0  0  0  0  0  0  0  0
    0.5923   -3.1517    0.3267 N   0  3  0  0  0  0  0  0  0  0  0  0
   -1.2338   -4.5079    1.2420 C   0  0  1  0  0  0  0  0  0  0  0  0
   -0.5367   -5.7079    0.9447 O   0  0  0  0  0  0  0  0  0  0  0  0
   -2.1379   -4.7124    2.4556 C   0  0  2  0  0  0  0  0  0  0  0  0
   -3.1178   -5.7016    2.1676 O   0  0  0  0  0  0  0  0  0  0  0  0
   -4.4773   -2.2708    4.2759 N   0  3  0  0  0  0  0  0  0  0  0  0
   -2.8248   -3.3941    2.8068 C   0  0  2  0  0  0  0  0  0  0  0  0
   -1.8388   -2.3674    3.0381 O   0  0  0  0  0  0  0  0  0  0  0  0
   -1.8605    2.1893   -1.0736 C   0  0  2  0  0  0  0  0  0  0  0  0
   -1.7362    3.6477   -1.2994 N   0  3  0  0  0  0  0  0  0  0  0  0
   -2.7657    1.9227    0.1238 C   0  0  0  0  0  0  0  0  0  0  0  0
   -2.9008    0.4264    0.3693 C   0  0  2  0  0  0  0  0  0  0  0  0
   -3.7745    0.2403    1.5191 N   0  3  0  0  0  0  0  0  0  0  0  0
   -1.5243   -0.1820    0.6271 C   0  0  1  0  0  0  0  0  0  0  0  0
   -1.6578   -1.6023    0.8305 O   0  0  0  0  0  0  0  0  0  0  0  0
   -0.5836    0.0778   -0.5576 C   0  0  2  0  0  0  0  0  0  0  0  0
    0.7317   -0.4157   -0.2395 O   0  0  0  0  0  0  0  0  0  0  0  0
   -0.4793    1.5682   -0.8717 C   0  0  1  0  0  0  0  0  0  0  0  0
    0.2989    1.7520   -2.0469 O   0  0  0  0  0  0  0  0  0  0  0  0
  1  2  1  0  0  0  0
  3  2  1  6  0  0  0
  3  5  1  0  0  0  0
  3  4  1  0  0  0  0
  4  9  1  0  0  0  0
  5  7  1  0  0  0  0
  5  6  1  1  0  0  0
  7  9  1  0  0  0  0
  7  8  1  1  0  0  0
  9 40  1  6  0  0  0
 10  6  1  6  0  0  0
 10 11  1  0  0  0  0
 10 18  1  0  0  0  0
 11 13  1  0  0  0  0
 11 12  1  1  0  0  0
 13 15  1  0  0  0  0
 13 14  1  1  0  0  0
 15 17  1  0  0  0  0
 15 16  1  6  0  0  0
 17 19  1  1  0  0  0
 17 18  1  0  0  0  0
 19 20  1  0  0  0  0
 21 29  1  0  0  0  0
 22 23  1  0  0  0  0
 22 31  1  0  0  0  0
 22 38  1  6  0  0  0
 23 25  1  0  0  0  0
 23 24  1  6  0  0  0
 25 27  1  0  0  0  0
 25 26  1  1  0  0  0
 27 30  1  0  0  0  0
 27 28  1  6  0  0  0
 30 21  1  1  0  0  0
 30 31  1  0  0  0  0
 32 34  1  0  0  0  0
 32 41  1  0  0  0  0
 32 33  1  1  0  0  0
 34 35  1  0  0  0  0
 35 37  1  0  0  0  0
 35 36  1  1  0  0  0
 37 39  1  0  0  0  0
 37 38  1  6  0  0  0
 39 41  1  0  0  0  0
 39 40  1  1  0  0  0
 41 42  1  6  0  0  0
M  CHG  6  12   1  20   1  24   1  29   1  33   1  36   1
M  END
>  <CHROM.1>
-70.19551411,-61.56072841,32.64887874,-146.02587466,-49.58407234,-77.47332978
54.90883803,-173.57308208,71.03307565,73.79448365,-65.53947271,-172.01559125
-172.11242518,-134.59288740,169.34773928,-61.31649497,-54.13501033,17.94116994
-176.09917705,-132.91170848,-69.67481703,-72.10980519,1.61151105,-0.26945909
1.25804049,0.27657111,-0.27107067,-0.66471170

>  <Name>
1NEM.B

>  <RI>
0

>  <Rbt.Current_Directory>
/home/itssahil/PROJECTS/Mol_Feturizer/New_Systems/rnas/1nem

>  <Rbt.Executable>
rbdock ($Id: //depot/dev/client3/rdock/2013.1/src/exe/rbdock.cxx#4 $)

>  <Rbt.Library>
libRbt.so (2013.1, Build901 2013/11/27)

>  <Rbt.Parameter_File>
/export/apps/rDock/src/rDock_2013.1_src/data/scripts/dock_solv.prm

>  <Rbt.Receptor>
prm/pocket_docking_7.prm

>  <SCORE>
-35.6169

>  <SCORE.INTER>
-45.4747

>  <SCORE.INTER.CONST>
1

>  <SCORE.INTER.POLAR>
-6.78875

>  <SCORE.INTER.ROT>
9

>  <SCORE.INTER.SOLV>
30.8396

>  <SCORE.INTER.VDW>
-27.5672

>  <SCORE.INTER.norm>
-1.08273

>  <SCORE.INTRA>
9.85785

>  <SCORE.INTRA.DIHEDRAL>
7.00857

>  <SCORE.INTRA.DIHEDRAL.0>
22.4324

>  <SCORE.INTRA.POLAR>
-0.123156

>  <SCORE.INTRA.POLAR.0>
-1.83749

>  <SCORE.INTRA.REPUL>
0.044865

>  <SCORE.INTRA.REPUL.0>
0

>  <SCORE.INTRA.SOLV>
-0.465544

>  <SCORE.INTRA.SOLV.lig_0>
-160.638

>  <SCORE.INTRA.VDW>
6.78074

>  <SCORE.INTRA.VDW.0>
-7.61953

>  <SCORE.INTRA.norm>
0.234711

>  <SCORE.RESTR>
0

>  <SCORE.RESTR.CAVITY>
0

>  <SCORE.RESTR.norm>
0

>  <SCORE.SYSTEM>
0

>  <SCORE.SYSTEM.CONST>
0

>  <SCORE.SYSTEM.DIHEDRAL>
0

>  <SCORE.SYSTEM.SOLV>
0

>  <SCORE.SYSTEM.norm>
0

>  <SCORE.heavy>
42

>  <SCORE.norm>
-0.848021

>  <RMSD>
2.665

$$$$
1NEM.B
 OpenBabel11021811403D
libRbt.so/2013.1/901 2013/11/27
 42 45  0  0  0  0  0  0  0  0999 V2000
    5.3527    0.4170   -1.6799 O   0  0  0  0  0  0  0  0  0  0  0  0
    5.0185   -0.1264   -0.4012 C   0  0  0  0  0  0  0  0  0  0  0  0
    4.4953    0.9243    0.5772 C   0  0  1  0  0  0  0  0  0  0  0  0
    3.2434    1.4429    0.1373 O   0  0  0  0  0  0  0  0  0  0  0  0
    4.1816    0.3958    1.9678 C   0  0  1  0  0  0  0  0  0  0  0  0
    5.4294    0.1295    2.6124 O   0  0  0  0  0  0  0  0  0  0  0  0
    3.3856    1.5747    2.4956 C   0  0  1  0  0  0  0  0  0  0  0  0
    4.2083    2.7239    2.7229 O   0  0  0  0  0  0  0  0  0  0  0  0
    2.4753    1.8080    1.2841 C   0  0  2  0  0  0  0  0  0  0  0  0
    5.7801    0.9881    3.6597 C   0  0  2  0  0  0  0  0  0  0  0  0
    7.2333    0.7166    4.0717 C   0  0  2  0  0  0  0  0  0  0  0  0
    7.4185   -0.7287    4.3671 N   0  3  0  0  0  0  0  0  0  0  0  0
    7.6358    1.5936    5.2618 C   0  0  1  0  0  0  0  0  0  0  0  0
    7.7491    2.9467    4.8413 O   0  0  0  0  0  0  0  0  0  0  0  0
    6.6104    1.4920    6.3952 C   0  0  2  0  0  0  0  0  0  0  0  0
    6.6485    0.1968    6.9811 O   0  0  0  0  0  0  0  0  0  0  0  0
    5.2134    1.7761    5.8506 C   0  0  1  0  0  0  0  0  0  0  0  0
    4.9143    0.8595    4.7799 O   0  0  0  0  0  0  0  0  0  0  0  0
    4.1232    1.6437    6.8993 C   0  0  0  0  0  0  0  0  0  0  0  0
    3.8911    2.9160    7.6185 N   0  3  0  0  0  0  0  0  0  0  0  0
   -2.9557   -3.1602    2.9873 C   0  0  0  0  0  0  0  0  0  0  0  0
    0.2560   -1.7934    1.7448 C   0  0  2  0  0  0  0  0  0  0  0  0
    1.1357   -3.0410    1.7693 C   0  0  2  0  0  0  0  0  0  0  0  0
    2.3159   -2.8541    0.8920 N   0  3  0  0  0  0  0  0  0  0  0  0
    0.3424   -4.2518    1.2963 C   0  0  1  0  0  0  0  0  0  0  0  0
    1.1467   -5.4169    1.3974 O   0  0  0  0  0  0  0  0  0  0  0  0
   -0.9140   -4.4050    2.1505 C   0  0  2  0  0  0  0  0  0  0  0  0
   -1.6953   -5.4919    1.6713 O   0  0  0  0  0  0  0  0  0  0  0  0
   -3.8964   -4.2261    2.5727 N   0  3  0  0  0  0  0  0  0  0  0  0
   -1.7318   -3.1164    2.0891 C   0  0  2  0  0  0  0  0  0  0  0  0
   -0.9268   -1.9975    2.5131 O   0  0  0  0  0  0  0  0  0  0  0  0
   -0.8851    2.2854   -1.4254 C   0  0  2  0  0  0  0  0  0  0  0  0
   -1.4329    3.6443   -1.6412 N   0  3  0  0  0  0  0  0  0  0  0  0
   -2.0229    1.2909   -1.2244 C   0  0  0  0  0  0  0  0  0  0  0  0
   -1.4742   -0.1111   -0.9989 C   0  0  2  0  0  0  0  0  0  0  0  0
   -2.6059   -1.0089   -0.8164 N   0  3  0  0  0  0  0  0  0  0  0  0
   -0.5679   -0.1205    0.2298 C   0  0  1  0  0  0  0  0  0  0  0  0
   -0.0305   -1.4439    0.4197 O   0  0  0  0  0  0  0  0  0  0  0  0
    0.5849    0.8794    0.0638 C   0  0  2  0  0  0  0  0  0  0  0  0
    1.3582    0.9218    1.2782 O   0  0  0  0  0  0  0  0  0  0  0  0
    0.0670    2.2851   -0.2305 C   0  0  1  0  0  0  0  0  0  0  0  0
    1.1640    3.1482   -0.4990 O   0  0  0  0  0  0  0  0  0  0  0  0
  1  2  1  0  0  0  0
  3  2  1  6  0  0  0
  3  5  1  0  0  0  0
  3  4  1  0  0  0  0
  4  9  1  0  0  0  0
  5  7  1  0  0  0  0
  5  6  1  1  0  0  0
  7  9  1  0  0  0  0
  7  8  1  6  0  0  0
  9 40  1  1  0  0  0
 10  6  1  6  0  0  0
 10 11  1  0  0  0  0
 10 18  1  0  0  0  0
 11 13  1  0  0  0  0
 11 12  1  1  0  0  0
 13 15  1  0  0  0  0
 13 14  1  6  0  0  0
 15 17  1  0  0  0  0
 15 16  1  6  0  0  0
 17 19  1  1  0  0  0
 17 18  1  0  0  0  0
 19 20  1  0  0  0  0
 21 29  1  0  0  0  0
 22 23  1  0  0  0  0
 22 31  1  0  0  0  0
 22 38  1  6  0  0  0
 23 25  1  0  0  0  0
 23 24  1  6  0  0  0
 25 27  1  0  0  0  0
 25 26  1  1  0  0  0
 27 30  1  0  0  0  0
 27 28  1  6  0  0  0
 30 21  1  1  0  0  0
 30 31  1  0  0  0  0
 32 34  1  0  0  0  0
 32 41  1  0  0  0  0
 32 33  1  1  0  0  0
 34 35  1  0  0  0  0
 35 37  1  0  0  0  0
 35 36  1  1  0  0  0
 37 39  1  0  0  0  0
 37 38  1  6  0  0  0
 39 41  1  0  0  0  0
 39 40  1  1  0  0  0
 41 42  1  6  0  0  0
M  CHG  6  12   1  20   1  24   1  29   1  33   1  36   1
M  END
>  <CHROM.1>
65.98165290,66.18089902,109.67679188,-170.33660054,66.19111127,-53.87794875
-65.79677059,-53.56228369,177.26643751,88.85000286,153.64041009,-62.51335362
48.29245730,-165.41614427,120.84836157,80.61223613,-44.46075667,61.51165358
176.75323439,-150.57575493,179.87594786,-62.19117378,2.20407944,-0.11523913
2.06815391,0.01004577,-0.61488823,-0.66132010

>  <Name>
1NEM.B

>  <RI>
0

>  <Rbt.Current_Directory>
/home/itssahil/PROJECTS/Mol_Feturizer/New_Systems/rnas/1nem

>  <Rbt.Executable>
rbdock ($Id: //depot/dev/client3/rdock/2013.1/src/exe/rbdock.cxx#4 $)

>  <Rbt.Library>
libRbt.so (2013.1, Build901 2013/11/27)

>  <Rbt.Parameter_File>
/export/apps/rDock/src/rDock_2013.1_src/data/scripts/dock_solv.prm

>  <Rbt.Receptor>
prm/pocket_docking_3.prm

>  <SCORE>
-21.6982

>  <SCORE.INTER>
-30.6911

>  <SCORE.INTER.CONST>
1

>  <SCORE.INTER.POLAR>
-5.1465

>  <SCORE.INTER.ROT>
9

>  <SCORE.INTER.SOLV>
26.7353

>  <SCORE.INTER.VDW>
-21.8175

>  <SCORE.INTER.norm>
-0.730741

>  <SCORE.INTRA>
8.86956

>  <SCORE.INTRA.DIHEDRAL>
1.49985

>  <SCORE.INTRA.DIHEDRAL.0>
22.4324

>  <SCORE.INTRA.POLAR>
0.527948

>  <SCORE.INTRA.POLAR.0>
-1.83749

>  <SCORE.INTRA.REPUL>
0

>  <SCORE.INTRA.REPUL.0>
0

>  <SCORE.INTRA.SOLV>
-4.50939

>  <SCORE.INTRA.SOLV.lig_0>
-160.638

>  <SCORE.INTRA.VDW>
8.57931

>  <SCORE.INTRA.VDW.0>
-7.61953

>  <SCORE.INTRA.norm>
0.21118

>  <SCORE.RESTR>
0.123399

>  <SCORE.RESTR.CAVITY>
0.123399

>  <SCORE.RESTR.norm>
0.00293806

>  <SCORE.SYSTEM>
0

>  <SCORE.SYSTEM.CONST>
0

>  <SCORE.SYSTEM.DIHEDRAL>
0

>  <SCORE.SYSTEM.SOLV>
0

>  <SCORE.SYSTEM.norm>
0

>  <SCORE.heavy>
42

>  <SCORE.norm>
-0.516623

>  <RMSD>
2.678

$$$$
1NEM.B
 OpenBabel11021811403D
libRbt.so/2013.1/901 2013/11/27
 42 45  0  0  0  0  0  0  0  0999 V2000
    5.1151    0.0164    1.5937 O   0  0  0  0  0  0  0  0  0  0  0  0
    3.8921   -0.2376    0.8995 C   0  0  0  0  0  0  0  0  0  0  0  0
    3.1339    1.0384    0.5367 C   0  0  1  0  0  0  0  0  0  0  0  0
    2.0193    0.7414   -0.2994 O   0  0  0  0  0  0  0  0  0  0  0  0
    2.4996    1.7568    1.7170 C   0  0  1  0  0  0  0  0  0  0  0  0
    3.5573    2.3612    2.4647 O   0  0  0  0  0  0  0  0  0  0  0  0
    1.5842    2.6985    0.9573 C   0  0  1  0  0  0  0  0  0  0  0  0
    2.3123    3.7171    0.2634 O   0  0  0  0  0  0  0  0  0  0  0  0
    0.9916    1.6986   -0.0425 C   0  0  2  0  0  0  0  0  0  0  0  0
    4.1263    1.5783    3.4749 C   0  0  2  0  0  0  0  0  0  0  0  0
    3.0714    1.3001    4.5543 C   0  0  2  0  0  0  0  0  0  0  0  0
    2.4723    2.5773    5.0236 N   0  3  0  0  0  0  0  0  0  0  0  0
    3.6743    0.4985    5.7124 C   0  0  1  0  0  0  0  0  0  0  0  0
    3.9433   -0.8301    5.2847 O   0  0  0  0  0  0  0  0  0  0  0  0
    4.9663    1.1465    6.2197 C   0  0  2  0  0  0  0  0  0  0  0  0
    4.6801    2.3837    6.8597 O   0  0  0  0  0  0  0  0  0  0  0  0
    5.9201    1.3736    5.0504 C   0  0  1  0  0  0  0  0  0  0  0  0
    5.2762    2.1856    4.0494 O   0  0  0  0  0  0  0  0  0  0  0  0
    7.2105    2.0643    5.4552 C   0  0  0  0  0  0  0  0  0  0  0  0
    8.2607    1.9220    4.4225 N   0  3  0  0  0  0  0  0  0  0  0  0
   -3.3113   -3.3857    3.8841 C   0  0  0  0  0  0  0  0  0  0  0  0
   -0.8445   -1.7272    1.6724 C   0  0  2  0  0  0  0  0  0  0  0  0
    0.1687   -2.8508    1.4673 C   0  0  2  0  0  0  0  0  0  0  0  0
    0.9937   -2.5847    0.2647 N   0  3  0  0  0  0  0  0  0  0  0  0
   -0.5511   -4.1824    1.3004 C   0  0  1  0  0  0  0  0  0  0  0  0
    0.4021   -5.2281    1.1884 O   0  0  0  0  0  0  0  0  0  0  0  0
   -1.4597   -4.4264    2.5032 C   0  0  2  0  0  0  0  0  0  0  0  0
   -2.1875   -5.6344    2.3226 O   0  0  0  0  0  0  0  0  0  0  0  0
   -4.0248   -4.6832    3.9093 N   0  3  0  0  0  0  0  0  0  0  0  0
   -2.4312   -3.2573    2.6529 C   0  0  2  0  0  0  0  0  0  0  0  0
   -1.7021   -2.0188    2.7726 O   0  0  0  0  0  0  0  0  0  0  0  0
   -3.2175    1.9653   -1.2955 C   0  0  2  0  0  0  0  0  0  0  0  0
   -3.8757    3.2845   -1.4369 N   0  3  0  0  0  0  0  0  0  0  0  0
   -4.1520    0.9899   -0.5888 C   0  0  0  0  0  0  0  0  0  0  0  0
   -3.4872   -0.3709   -0.4344 C   0  0  2  0  0  0  0  0  0  0  0  0
   -4.4277   -1.2523    0.2429 N   0  3  0  0  0  0  0  0  0  0  0  0
   -2.1978   -0.2284    0.3708 C   0  0  1  0  0  0  0  0  0  0  0  0
   -1.5605   -1.5154    0.4882 O   0  0  0  0  0  0  0  0  0  0  0  0
   -1.2370    0.7566   -0.3096 C   0  0  2  0  0  0  0  0  0  0  0  0
   -0.0792    0.9477    0.5256 O   0  0  0  0  0  0  0  0  0  0  0  0
   -1.8983    2.1134   -0.5393 C   0  0  1  0  0  0  0  0  0  0  0  0
   -1.0195    2.9501   -1.2797 O   0  0  0  0  0  0  0  0  0  0  0  0
  1  2  1  0  0  0  0
  3  2  1  1  0  0  0
  3  5  1  0  0  0  0
  3  4  1  0  0  0  0
  4  9  1  0  0  0  0
  5  7  1  0  0  0  0
  5  6  1  6  0  0  0
  7  9  1  0  0  0  0
  7  8  1  6  0  0  0
  9 40  1  1  0  0  0
 10  6  1  6  0  0  0
 10 11  1  0  0  0  0
 10 18  1  0  0  0  0
 11 13  1  0  0  0  0
 11 12  1  1  0  0  0
 13 15  1  0  0  0  0
 13 14  1  6  0  0  0
 15 17  1  0  0  0  0
 15 16  1  6  0  0  0
 17 19  1  1  0  0  0
 17 18  1  0  0  0  0
 19 20  1  0  0  0  0
 21 29  1  0  0  0  0
 22 23  1  0  0  0  0
 22 31  1  0  0  0  0
 22 38  1  6  0  0  0
 23 25  1  0  0  0  0
 23 24  1  6  0  0  0
 25 27  1  0  0  0  0
 25 26  1  1  0  0  0
 27 30  1  0  0  0  0
 27 28  1  6  0  0  0
 30 21  1  1  0  0  0
 30 31  1  0  0  0  0
 32 34  1  0  0  0  0
 32 41  1  0  0  0  0
 32 33  1  1  0  0  0
 34 35  1  0  0  0  0
 35 37  1  0  0  0  0
 35 36  1  1  0  0  0
 37 39  1  0  0  0  0
 37 38  1  6  0  0  0
 39 41  1  0  0  0  0
 39 40  1  1  0  0  0
 41 42  1  6  0  0  0
M  CHG  6  12   1  20   1  24   1  29   1  33   1  36   1
M  END
>  <CHROM.1>
171.42551577,172.46450198,-89.67423984,-64.60487875,-177.13321186,-108.21260561
-84.94060702,62.83847113,167.59303292,163.36917152,-169.18837615,-54.14924660
-68.42084021,-159.26194896,75.55084493,-169.69382435,-52.94666245,-34.52592550
-55.69765112,-147.84108697,172.03369042,151.61243369,0.89130115,-0.01671892
2.00492516,-0.12122394,0.53910754,2.61409230

>  <Name>
1NEM.B

>  <RI>
0

>  <Rbt.Current_Directory>
/home/itssahil/PROJECTS/Mol_Feturizer/New_Systems/rnas/1nem

>  <Rbt.Executable>
rbdock ($Id: //depot/dev/client3/rdock/2013.1/src/exe/rbdock.cxx#4 $)

>  <Rbt.Library>
libRbt.so (2013.1, Build901 2013/11/27)

>  <Rbt.Parameter_File>
/export/apps/rDock/src/rDock_2013.1_src/data/scripts/dock_solv.prm

>  <Rbt.Receptor>
prm/pocket_docking_7.prm

>  <SCORE>
-42.0374

>  <SCORE.INTER>
-48.8162

>  <SCORE.INTER.CONST>
1

>  <SCORE.INTER.POLAR>
-6.55329

>  <SCORE.INTER.ROT>
9

>  <SCORE.INTER.SOLV>
36.536

>  <SCORE.INTER.VDW>
-32.4785

>  <SCORE.INTER.norm>
-1.16229

>  <SCORE.INTRA>
6.76449

>  <SCORE.INTRA.DIHEDRAL>
4.66834

>  <SCORE.INTRA.DIHEDRAL.0>
22.4324

>  <SCORE.INTRA.POLAR>
0.334194

>  <SCORE.INTRA.POLAR.0>
-1.83749

>  <SCORE.INTRA.REPUL>
0

>  <SCORE.INTRA.REPUL.0>
0

>  <SCORE.INTRA.SOLV>
-2.57778

>  <SCORE.INTRA.SOLV.lig_0>
-160.638

>  <SCORE.INTRA.VDW>
4.58295

>  <SCORE.INTRA.VDW.0>
-7.61953

>  <SCORE.INTRA.norm>
0.161059

>  <SCORE.RESTR>
0.01431

>  <SCORE.RESTR.CAVITY>
0.01431

>  <SCORE.RESTR.norm>
0.000340714

>  <SCORE.SYSTEM>
0

>  <SCORE.SYSTEM.CONST>
0

>  <SCORE.SYSTEM.DIHEDRAL>
0

>  <SCORE.SYSTEM.SOLV>
0

>  <SCORE.SYSTEM.norm>
0

>  <SCORE.heavy>
42

>  <SCORE.norm>
-1.00089

>  <RMSD>
2.680

$$$$
1NEM.B
 OpenBabel11021811403D
libRbt.so/2013.1/901 2013/11/27
 42 45  0  0  0  0  0  0  0  0999 V2000
    3.6771   -2.0218    3.6464 O   0  0  0  0  0  0  0  0  0  0  0  0
    2.4922   -2.4910    2.9999 C   0  0  0  0  0  0  0  0  0  0  0  0
    2.3766   -2.0234    1.5498 C   0  0  1  0  0  0  0  0  0  0  0  0
    1.0375   -2.1579    1.0826 O   0  0  0  0  0  0  0  0  0  0  0  0
    2.6722   -0.5478    1.3335 C   0  0  1  0  0  0  0  0  0  0  0  0
    4.0823   -0.3702    1.4867 O   0  0  0  0  0  0  0  0  0  0  0  0
    2.1203   -0.3988   -0.0718 C   0  0  1  0  0  0  0  0  0  0  0  0
    2.9258   -1.0747   -1.0432 O   0  0  0  0  0  0  0  0  0  0  0  0
    0.7894   -1.1365    0.1163 C   0  0  2  0  0  0  0  0  0  0  0  0
    4.5723    0.9190    1.2520 C   0  0  2  0  0  0  0  0  0  0  0  0
    4.4326    1.7542    2.5320 C   0  0  2  0  0  0  0  0  0  0  0  0
    3.0303    1.7044    3.0233 N   0  3  0  0  0  0  0  0  0  0  0  0
    4.8992    3.1945    2.2969 C   0  0  1  0  0  0  0  0  0  0  0  0
    6.3118    3.2196    2.1411 O   0  0  0  0  0  0  0  0  0  0  0  0
    4.2344    3.7953    1.0545 C   0  0  2  0  0  0  0  0  0  0  0  0
    2.8443    3.9890    1.2830 O   0  0  0  0  0  0  0  0  0  0  0  0
    4.4415    2.8662   -0.1383 C   0  0  1  0  0  0  0  0  0  0  0  0
    3.9150    1.5601    0.1667 O   0  0  0  0  0  0  0  0  0  0  0  0
    3.7664    3.3593   -1.4060 C   0  0  0  0  0  0  0  0  0  0  0  0
    4.7037    4.1012   -2.2783 N   0  3  0  0  0  0  0  0  0  0  0  0
   -4.5732   -2.0182    4.5755 C   0  0  0  0  0  0  0  0  0  0  0  0
   -2.0755   -2.1293    1.8412 C   0  0  2  0  0  0  0  0  0  0  0  0
   -1.9035   -3.6356    1.6611 C   0  0  2  0  0  0  0  0  0  0  0  0
   -1.3141   -3.9297    0.3331 N   0  3  0  0  0  0  0  0  0  0  0  0
   -3.2506   -4.3357    1.7811 C   0  0  1  0  0  0  0  0  0  0  0  0
   -3.0670   -5.7401    1.6895 O   0  0  0  0  0  0  0  0  0  0  0  0
   -3.8960   -3.9762    3.1176 C   0  0  2  0  0  0  0  0  0  0  0  0
   -5.1845   -4.5703    3.2079 O   0  0  0  0  0  0  0  0  0  0  0  0
   -6.0088   -1.6666    4.4835 N   0  3  0  0  0  0  0  0  0  0  0  0
   -4.0197   -2.4580    3.2313 C   0  0  2  0  0  0  0  0  0  0  0  0
   -2.7250   -1.8420    3.0768 O   0  0  0  0  0  0  0  0  0  0  0  0
   -2.3227    2.1245   -1.2481 C   0  0  2  0  0  0  0  0  0  0  0  0
   -2.1786    3.5815   -1.4711 N   0  3  0  0  0  0  0  0  0  0  0  0
   -3.6318    1.8355   -0.5223 C   0  0  0  0  0  0  0  0  0  0  0  0
   -3.7925    0.3406   -0.2842 C   0  0  2  0  0  0  0  0  0  0  0  0
   -5.0567    0.1326    0.4077 N   0  3  0  0  0  0  0  0  0  0  0  0
   -2.6236   -0.1791    0.5494 C   0  0  1  0  0  0  0  0  0  0  0  0
   -2.7685   -1.5992    0.7463 O   0  0  0  0  0  0  0  0  0  0  0  0
   -1.2872    0.1055   -0.1499 C   0  0  2  0  0  0  0  0  0  0  0  0
   -0.2039   -0.3016    0.7077 O   0  0  0  0  0  0  0  0  0  0  0  0
   -1.1257    1.5909   -0.4629 C   0  0  1  0  0  0  0  0  0  0  0  0
    0.0624    1.7904   -1.2173 O   0  0  0  0  0  0  0  0  0  0  0  0
  1  2  1  0  0  0  0
  3  2  1  1  0  0  0
  3  5  1  0  0  0  0
  3  4  1  0  0  0  0
  4  9  1  0  0  0  0
  5  7  1  0  0  0  0
  5  6  1  6  0  0  0
  7  9  1  0  0  0  0
  7  8  1  6  0  0  0
  9 40  1  1  0  0  0
 10  6  1  1  0  0  0
 10 11  1  0  0  0  0
 10 18  1  0  0  0  0
 11 13  1  0  0  0  0
 11 12  1  6  0  0  0
 13 15  1  0  0  0  0
 13 14  1  6  0  0  0
 15 17  1  0  0  0  0
 15 16  1  1  0  0  0
 17 19  1  6  0  0  0
 17 18  1  0  0  0  0
 19 20  1  0  0  0  0
 21 29  1  0  0  0  0
 22 23  1  0  0  0  0
 22 31  1  0  0  0  0
 22 38  1  6  0  0  0
 23 25  1  0  0  0  0
 23 24  1  6  0  0  0
 25 27  1  0  0  0  0
 25 26  1  1  0  0  0
 27 30  1  0  0  0  0
 27 28  1  6  0  0  0
 30 21  1  1  0  0  0
 30 31  1  0  0  0  0
 32 34  1  0  0  0  0
 32 41  1  0  0  0  0
 32 33  1  1  0  0  0
 34 35  1  0  0  0  0
 35 37  1  0  0  0  0
 35 36  1  1  0  0  0
 37 39  1  0  0  0  0
 37 38  1  6  0  0  0
 39 41  1  0  0  0  0
 39 40  1  1  0  0  0
 41 42  1  6  0  0  0
M  CHG  6  12   1  20   1  24   1  29   1  33   1  36   1
M  END
>  <CHROM.1>
-62.67511578,-162.37366447,176.60835961,84.67542499,-61.65173371,-135.81966746
179.62269120,-174.76904514,173.53308485,96.34168712,-179.41222239,-101.35605452
-11.62161979,-160.24058108,-170.94522335,64.11506721,-55.79847535,-58.55381038
103.56154602,-158.41489406,129.68683358,72.67446650,0.15139808,-0.19971556
1.11948003,-0.56549467,0.14568955,2.61156068

>  <Name>
1NEM.B

>  <RI>
0

>  <Rbt.Current_Directory>
/home/itssahil/PROJECTS/Mol_Feturizer/New_Systems/rnas/1nem

>  <Rbt.Executable>
rbdock ($Id: //depot/dev/client3/rdock/2013.1/src/exe/rbdock.cxx#4 $)

>  <Rbt.Library>
libRbt.so (2013.1, Build901 2013/11/27)

>  <Rbt.Parameter_File>
/export/apps/rDock/src/rDock_2013.1_src/data/scripts/dock_solv.prm

>  <Rbt.Receptor>
prm/pocket_docking_5.prm

>  <SCORE>
-41.2605

>  <SCORE.INTER>
-51.5672

>  <SCORE.INTER.CONST>
1

>  <SCORE.INTER.POLAR>
-6.92697

>  <SCORE.INTER.ROT>
9

>  <SCORE.INTER.SOLV>
34.2254

>  <SCORE.INTER.VDW>
-32.2967

>  <SCORE.INTER.norm>
-1.22779

>  <SCORE.INTRA>
10.3055

>  <SCORE.INTRA.DIHEDRAL>
14.04

>  <SCORE.INTRA.DIHEDRAL.0>
22.4324

>  <SCORE.INTRA.POLAR>
0.340635

>  <SCORE.INTRA.POLAR.0>
-1.83749

>  <SCORE.INTRA.REPUL>
0

>  <SCORE.INTRA.REPUL.0>
0

>  <SCORE.INTRA.SOLV>
-2.29155

>  <SCORE.INTRA.SOLV.lig_0>
-160.638

>  <SCORE.INTRA.VDW>
3.2731

>  <SCORE.INTRA.VDW.0>
-7.61953

>  <SCORE.INTRA.norm>
0.245369

>  <SCORE.RESTR>
0.00121077

>  <SCORE.RESTR.CAVITY>
0.00121077

>  <SCORE.RESTR.norm>
2.88277e-05

>  <SCORE.SYSTEM>
0

>  <SCORE.SYSTEM.CONST>
0

>  <SCORE.SYSTEM.DIHEDRAL>
0

>  <SCORE.SYSTEM.SOLV>
0

>  <SCORE.SYSTEM.norm>
0

>  <SCORE.heavy>
42

>  <SCORE.norm>
-0.982393

>  <RMSD>
2.710

$$$$
1NEM.B
 OpenBabel11021811403D
libRbt.so/2013.1/901 2013/11/27
 42 45  0  0  0  0  0  0  0  0999 V2000
    2.9116   -4.8031    1.7283 O   0  0  0  0  0  0  0  0  0  0  0  0
    1.5611   -4.4284    2.0069 C   0  0  0  0  0  0  0  0  0  0  0  0
    1.1043   -3.2041    1.2150 C   0  0  1  0  0  0  0  0  0  0  0  0
   -0.2354   -3.3699    0.7598 O   0  0  0  0  0  0  0  0  0  0  0  0
    1.0396   -1.9159    2.0198 C   0  0  1  0  0  0  0  0  0  0  0  0
    2.3851   -1.5011    2.2664 O   0  0  0  0  0  0  0  0  0  0  0  0
    0.2380   -1.0695    1.0488 C   0  0  1  0  0  0  0  0  0  0  0  0
    0.9911   -0.7280   -0.1197 O   0  0  0  0  0  0  0  0  0  0  0  0
   -0.8548   -2.0851    0.6947 C   0  0  2  0  0  0  0  0  0  0  0  0
    2.5498   -0.2117    2.7838 C   0  0  2  0  0  0  0  0  0  0  0  0
    3.6312    0.5221    1.9792 C   0  0  2  0  0  0  0  0  0  0  0  0
    4.8749   -0.2914    1.9354 N   0  3  0  0  0  0  0  0  0  0  0  0
    3.8878    1.9178    2.5567 C   0  0  1  0  0  0  0  0  0  0  0  0
    2.7722    2.7575    2.2903 O   0  0  0  0  0  0  0  0  0  0  0  0
    4.1341    1.8544    4.0673 C   0  0  2  0  0  0  0  0  0  0  0  0
    5.3727    1.2109    4.3392 O   0  0  0  0  0  0  0  0  0  0  0  0
    2.9943    1.0962    4.7417 C   0  0  1  0  0  0  0  0  0  0  0  0
    2.8797   -0.2199    4.1666 O   0  0  0  0  0  0  0  0  0  0  0  0
    3.1841    0.9379    6.2401 C   0  0  0  0  0  0  0  0  0  0  0  0
    1.8911    0.8547    6.9549 N   0  3  0  0  0  0  0  0  0  0  0  0
   -3.5583   -3.7552    7.1115 C   0  0  0  0  0  0  0  0  0  0  0  0
   -3.2082   -3.5001    3.4319 C   0  0  2  0  0  0  0  0  0  0  0  0
   -3.3891   -4.9583    3.0175 C   0  0  2  0  0  0  0  0  0  0  0  0
   -3.7479   -5.0431    1.5816 N   0  3  0  0  0  0  0  0  0  0  0  0
   -4.4857   -5.6084    3.8505 C   0  0  1  0  0  0  0  0  0  0  0  0
   -4.5909   -6.9823    3.5102 O   0  0  0  0  0  0  0  0  0  0  0  0
   -4.1572   -5.4583    5.3342 C   0  0  2  0  0  0  0  0  0  0  0  0
   -5.2101   -6.0015    6.1202 O   0  0  0  0  0  0  0  0  0  0  0  0
   -4.6932   -3.9518    8.0422 N   0  3  0  0  0  0  0  0  0  0  0  0
   -3.9755   -3.9789    5.6684 C   0  0  2  0  0  0  0  0  0  0  0  0
   -2.9526   -3.4032    4.8306 O   0  0  0  0  0  0  0  0  0  0  0  0
   -4.2251    0.5149    0.3435 C   0  0  2  0  0  0  0  0  0  0  0  0
   -3.9575    1.8627   -0.2090 N   0  3  0  0  0  0  0  0  0  0  0  0
   -5.0914    0.6267    1.5930 C   0  0  0  0  0  0  0  0  0  0  0  0
   -5.3729   -0.7521    2.1736 C   0  0  2  0  0  0  0  0  0  0  0  0
   -6.2018   -0.5765    3.3578 N   0  3  0  0  0  0  0  0  0  0  0  0
   -4.0580   -1.4431    2.5269 C   0  0  1  0  0  0  0  0  0  0  0  0
   -4.3318   -2.7578    3.0492 O   0  0  0  0  0  0  0  0  0  0  0  0
   -3.1565   -1.5628    1.2903 C   0  0  2  0  0  0  0  0  0  0  0  0
   -1.8870   -2.1221    1.6778 O   0  0  0  0  0  0  0  0  0  0  0  0
   -2.9097   -0.2014    0.6450 C   0  0  1  0  0  0  0  0  0  0  0  0
   -2.1773   -0.3738   -0.5610 O   0  0  0  0  0  0  0  0  0  0  0  0
  1  2  1  0  0  0  0
  3  2  1  1  0  0  0
  3  5  1  0  0  0  0
  3  4  1  0  0  0  0
  4  9  1  0  0  0  0
  5  7  1  0  0  0  0
  5  6  1  6  0  0  0
  7  9  1  0  0  0  0
  7  8  1  6  0  0  0
  9 40  1  1  0  0  0
 10  6  1  6  0  0  0
 10 11  1  0  0  0  0
 10 18  1  0  0  0  0
 11 13  1  0  0  0  0
 11 12  1  1  0  0  0
 13 15  1  0  0  0  0
 13 14  1  1  0  0  0
 15 17  1  0  0  0  0
 15 16  1  6  0  0  0
 17 19  1  1  0  0  0
 17 18  1  0  0  0  0
 19 20  1  0  0  0  0
 21 29  1  0  0  0  0
 22 23  1  0  0  0  0
 22 31  1  0  0  0  0
 22 38  1  1  0  0  0
 23 25  1  0  0  0  0
 23 24  1  6  0  0  0
 25 27  1  0  0  0  0
 25 26  1  6  0  0  0
 27 30  1  0  0  0  0
 27 28  1  1  0  0  0
 30 21  1  1  0  0  0
 30 31  1  0  0  0  0
 32 34  1  0  0  0  0
 32 41  1  0  0  0  0
 32 33  1  1  0  0  0
 34 35  1  0  0  0  0
 35 37  1  0  0  0  0
 35 36  1  1  0  0  0
 37 39  1  0  0  0  0
 37 38  1  6  0  0  0
 39 41  1  0  0  0  0
 39 40  1  1  0  0  0
 41 42  1  6  0  0  0
M  CHG  6  12   1  20   1  24   1  29   1  33   1  36   1
M  END
>  <CHROM.1>
-160.57911247,139.81617644,168.84965905,-131.92597467,69.36674488,-136.60137505
57.31363467,63.21150562,-97.61263856,151.16175298,-108.81836547,-74.96292900
-64.77537743,-139.95069065,89.79056637,78.07423546,66.28860657,-77.24340802
-57.68056907,-179.21066928,-169.49240381,78.19389351,-0.94340836,-1.73482435
2.92101545,-0.39869565,0.32706524,2.28894987

>  <Name>
1NEM.B

>  <RI>
0

>  <Rbt.Current_Directory>
/home/itssahil/PROJECTS/Mol_Feturizer/New_Systems/rnas/1nem

>  <Rbt.Executable>
rbdock ($Id: //depot/dev/client3/rdock/2013.1/src/exe/rbdock.cxx#4 $)

>  <Rbt.Library>
libRbt.so (2013.1, Build901 2013/11/27)

>  <Rbt.Parameter_File>
/export/apps/rDock/src/rDock_2013.1_src/data/scripts/dock_solv.prm

>  <Rbt.Receptor>
prm/blind_docking_100.prm

>  <SCORE>
-13.5341

>  <SCORE.INTER>
-35.8948

>  <SCORE.INTER.CONST>
1

>  <SCORE.INTER.POLAR>
-4.46704

>  <SCORE.INTER.ROT>
9

>  <SCORE.INTER.SOLV>
41.3915

>  <SCORE.INTER.VDW>
-32.4369

>  <SCORE.INTER.norm>
-0.854639

>  <SCORE.INTRA>
19.232

>  <SCORE.INTRA.DIHEDRAL>
20.5706

>  <SCORE.INTRA.DIHEDRAL.0>
22.4324

>  <SCORE.INTRA.POLAR>
1.04793

>  <SCORE.INTRA.POLAR.0>
-1.83749

>  <SCORE.INTRA.REPUL>
0

>  <SCORE.INTRA.REPUL.0>
0

>  <SCORE.INTRA.SOLV>
-6.66838

>  <SCORE.INTRA.SOLV.lig_0>
-160.638

>  <SCORE.INTRA.VDW>
8.71792

>  <SCORE.INTRA.VDW.0>
-7.61953

>  <SCORE.INTRA.norm>
0.457904

>  <SCORE.RESTR>
3.12878

>  <SCORE.RESTR.CAVITY>
3.12878

>  <SCORE.RESTR.norm>
0.0744948

>  <SCORE.SYSTEM>
0

>  <SCORE.SYSTEM.CONST>
0

>  <SCORE.SYSTEM.DIHEDRAL>
0

>  <SCORE.SYSTEM.SOLV>
0

>  <SCORE.SYSTEM.norm>
0

>  <SCORE.heavy>
42

>  <SCORE.norm>
-0.32224

>  <RMSD>
2.731

$$$$
1NEM.B
 OpenBabel11021811403D
libRbt.so/2013.1/901 2013/11/27
 42 45  0  0  0  0  0  0  0  0999 V2000
    1.6136   -2.7723    1.8529 O   0  0  0  0  0  0  0  0  0  0  0  0
    2.6405   -2.7203    0.8605 C   0  0  0  0  0  0  0  0  0  0  0  0
    2.5273   -1.5016   -0.0543 C   0  0  1  0  0  0  0  0  0  0  0  0
    1.2002   -1.3693   -0.5551 O   0  0  0  0  0  0  0  0  0  0  0  0
    2.7726   -0.1677    0.6328 C   0  0  1  0  0  0  0  0  0  0  0  0
    4.1732   -0.0812    0.9049 O   0  0  0  0  0  0  0  0  0  0  0  0
    2.2343    0.7561   -0.4437 C   0  0  1  0  0  0  0  0  0  0  0  0
    3.0762    0.7856   -1.6010 O   0  0  0  0  0  0  0  0  0  0  0  0
    0.9283    0.0173   -0.7593 C   0  0  2  0  0  0  0  0  0  0  0  0
    4.5976    1.0504    1.6096 C   0  0  2  0  0  0  0  0  0  0  0  0
    5.3284    1.9995    0.6501 C   0  0  2  0  0  0  0  0  0  0  0  0
    6.4111    1.2710   -0.0621 N   0  3  0  0  0  0  0  0  0  0  0  0
    5.8667    3.2233    1.3983 C   0  0  1  0  0  0  0  0  0  0  0  0
    4.7846    4.0573    1.7908 O   0  0  0  0  0  0  0  0  0  0  0  0
    6.6690    2.8066    2.6348 C   0  0  2  0  0  0  0  0  0  0  0  0
    7.8780    2.1665    2.2464 O   0  0  0  0  0  0  0  0  0  0  0  0
    5.8332    1.8630    3.4949 C   0  0  1  0  0  0  0  0  0  0  0  0
    5.4313    0.7214    2.7131 O   0  0  0  0  0  0  0  0  0  0  0  0
    6.5734    1.3550    4.7197 C   0  0  0  0  0  0  0  0  0  0  0  0
    7.7000    0.4673    4.3556 N   0  3  0  0  0  0  0  0  0  0  0  0
   -0.6817   -4.2496    2.8495 C   0  0  0  0  0  0  0  0  0  0  0  0
   -1.8853   -1.7557    0.3880 C   0  0  2  0  0  0  0  0  0  0  0  0
   -2.9128   -2.5783   -0.3856 C   0  0  2  0  0  0  0  0  0  0  0  0
   -3.8479   -1.6833   -1.1081 N   0  3  0  0  0  0  0  0  0  0  0  0
   -3.7004   -3.4660    0.5688 C   0  0  1  0  0  0  0  0  0  0  0  0
   -4.5973   -4.2811   -0.1699 O   0  0  0  0  0  0  0  0  0  0  0  0
   -2.7357   -4.3380    1.3692 C   0  0  2  0  0  0  0  0  0  0  0  0
   -3.4584   -5.1200    2.3114 O   0  0  0  0  0  0  0  0  0  0  0  0
    0.2264   -4.9592    1.9196 N   0  3  0  0  0  0  0  0  0  0  0  0
   -1.7321   -3.4484    2.1002 C   0  0  2  0  0  0  0  0  0  0  0  0
   -1.0387   -2.6050    1.1581 O   0  0  0  0  0  0  0  0  0  0  0  0
   -2.7026    2.5229   -1.4516 C   0  0  2  0  0  0  0  0  0  0  0  0
   -2.6285    3.9161   -1.9482 N   0  3  0  0  0  0  0  0  0  0  0  0
   -3.7365    2.4217   -0.3358 C   0  0  0  0  0  0  0  0  0  0  0  0
   -3.8219    0.9943    0.1863 C   0  0  2  0  0  0  0  0  0  0  0  0
   -4.8229    0.9653    1.2434 N   0  3  0  0  0  0  0  0  0  0  0  0
   -2.4587    0.5544    0.7151 C   0  0  1  0  0  0  0  0  0  0  0  0
   -2.5411   -0.8066    1.1812 O   0  0  0  0  0  0  0  0  0  0  0  0
   -1.3908    0.6540   -0.3831 C   0  0  2  0  0  0  0  0  0  0  0  0
   -0.1020    0.3334    0.1744 O   0  0  0  0  0  0  0  0  0  0  0  0
   -1.3270    2.0601   -0.9743 C   0  0  1  0  0  0  0  0  0  0  0  0
   -0.4173    2.0747   -2.0664 O   0  0  0  0  0  0  0  0  0  0  0  0
  1  2  1  0  0  0  0
  3  2  1  1  0  0  0
  3  5  1  0  0  0  0
  3  4  1  0  0  0  0
  4  9  1  0  0  0  0
  5  7  1  0  0  0  0
  5  6  1  6  0  0  0
  7  9  1  0  0  0  0
  7  8  1  6  0  0  0
  9 40  1  1  0  0  0
 10  6  1  6  0  0  0
 10 11  1  0  0  0  0
 10 18  1  0  0  0  0
 11 13  1  0  0  0  0
 11 12  1  1  0  0  0
 13 15  1  0  0  0  0
 13 14  1  1  0  0  0
 15 17  1  0  0  0  0
 15 16  1  6  0  0  0
 17 19  1  1  0  0  0
 17 18  1  0  0  0  0
 19 20  1  0  0  0  0
 21 29  1  0  0  0  0
 22 23  1  0  0  0  0
 22 31  1  0  0  0  0
 22 38  1  1  0  0  0
 23 25  1  0  0  0  0
 23 24  1  1  0  0  0
 25 27  1  0  0  0  0
 25 26  1  6  0  0  0
 27 30  1  0  0  0  0
 27 28  1  1  0  0  0
 30 21  1  6  0  0  0
 30 31  1  0  0  0  0
 32 34  1  0  0  0  0
 32 41  1  0  0  0  0
 32 33  1  1  0  0  0
 34 35  1  0  0  0  0
 35 37  1  0  0  0  0
 35 36  1  1  0  0  0
 37 39  1  0  0  0  0
 37 38  1  6  0  0  0
 39 41  1  0  0  0  0
 39 40  1  1  0  0  0
 41 42  1  6  0  0  0
M  CHG  6  12   1  20   1  24   1  29   1  33   1  36   1
M  END
>  <CHROM.1>
-48.27941339,-49.38667682,-176.49223841,-106.40672801,-55.87312722,-112.19987825
163.87206025,60.70080748,71.04616345,-67.07953925,-72.77637668,68.31991220
-35.72897174,-106.29223411,-71.84074925,-9.92134208,167.30906855,63.72283719
52.88940450,108.78131955,163.23677109,160.01969555,0.87733551,-0.22804460
0.80263546,-2.88572555,-0.30265948,-0.37995988

>  <Name>
1NEM.B

>  <RI>
0

>  <Rbt.Current_Directory>
/home/itssahil/PROJECTS/Mol_Feturizer/New_Systems/rnas/1nem

>  <Rbt.Executable>
rbdock ($Id: //depot/dev/client3/rdock/2013.1/src/exe/rbdock.cxx#4 $)

>  <Rbt.Library>
libRbt.so (2013.1, Build901 2013/11/27)

>  <Rbt.Parameter_File>
/export/apps/rDock/src/rDock_2013.1_src/data/scripts/dock_solv.prm

>  <Rbt.Receptor>
prm/pocket_docking_4.prm

>  <SCORE>
-17.073

>  <SCORE.INTER>
-36.6279

>  <SCORE.INTER.CONST>
1

>  <SCORE.INTER.POLAR>
-5.60425

>  <SCORE.INTER.ROT>
9

>  <SCORE.INTER.SOLV>
33.0709

>  <SCORE.INTER.VDW>
-26.3614

>  <SCORE.INTER.norm>
-0.872093

>  <SCORE.INTRA>
19.555

>  <SCORE.INTRA.DIHEDRAL>
19.9435

>  <SCORE.INTRA.DIHEDRAL.0>
22.4324

>  <SCORE.INTRA.POLAR>
-0.627489

>  <SCORE.INTRA.POLAR.0>
-1.83749

>  <SCORE.INTRA.REPUL>
0.289949

>  <SCORE.INTRA.REPUL.0>
0

>  <SCORE.INTRA.SOLV>
6.11418

>  <SCORE.INTRA.SOLV.lig_0>
-160.638

>  <SCORE.INTRA.VDW>
7.20984

>  <SCORE.INTRA.VDW.0>
-7.61953

>  <SCORE.INTRA.norm>
0.465594

>  <SCORE.RESTR>
0

>  <SCORE.RESTR.CAVITY>
0

>  <SCORE.RESTR.norm>
0

>  <SCORE.SYSTEM>
0

>  <SCORE.SYSTEM.CONST>
0

>  <SCORE.SYSTEM.DIHEDRAL>
0

>  <SCORE.SYSTEM.SOLV>
0

>  <SCORE.SYSTEM.norm>
0

>  <SCORE.heavy>
42

>  <SCORE.norm>
-0.406499

>  <RMSD>
2.761

$$$$
1NEM.B
 OpenBabel11021811403D
libRbt.so/2013.1/901 2013/11/27
 42 45  0  0  0  0  0  0  0  0999 V2000
    2.8373   -3.2122    1.3813 O   0  0  0  0  0  0  0  0  0  0  0  0
    3.1366   -2.5308    0.1614 C   0  0  0  0  0  0  0  0  0  0  0  0
    2.6687   -1.0762    0.1582 C   0  0  1  0  0  0  0  0  0  0  0  0
    1.9476   -0.7818   -1.0346 O   0  0  0  0  0  0  0  0  0  0  0  0
    1.6780   -0.7260    1.2570 C   0  0  1  0  0  0  0  0  0  0  0  0
    2.4025   -0.6979    2.4889 O   0  0  0  0  0  0  0  0  0  0  0  0
    1.1963    0.6106    0.7248 C   0  0  1  0  0  0  0  0  0  0  0  0
    2.2052    1.6224    0.8122 O   0  0  0  0  0  0  0  0  0  0  0  0
    0.9697    0.2156   -0.7392 C   0  0  2  0  0  0  0  0  0  0  0  0
    3.6932   -0.1609    2.4352 C   0  0  2  0  0  0  0  0  0  0  0  0
    4.5894   -0.8959    3.4412 C   0  0  2  0  0  0  0  0  0  0  0  0
    3.9655   -0.8753    4.7905 N   0  3  0  0  0  0  0  0  0  0  0  0
    5.9976   -0.2926    3.4594 C   0  0  1  0  0  0  0  0  0  0  0  0
    6.6712   -0.6153    2.2500 O   0  0  0  0  0  0  0  0  0  0  0  0
    5.9451    1.2290    3.6282 C   0  0  2  0  0  0  0  0  0  0  0  0
    5.4834    1.5659    4.9302 O   0  0  0  0  0  0  0  0  0  0  0  0
    5.0185    1.8305    2.5753 C   0  0  1  0  0  0  0  0  0  0  0  0
    3.7096    1.2384    2.6856 O   0  0  0  0  0  0  0  0  0  0  0  0
    4.8642    3.3358    2.7027 C   0  0  0  0  0  0  0  0  0  0  0  0
    4.1210    3.9135    1.5609 N   0  3  0  0  0  0  0  0  0  0  0  0
   -1.7282   -4.6404    1.0824 C   0  0  0  0  0  0  0  0  0  0  0  0
   -3.0812   -1.4342   -0.1891 C   0  0  2  0  0  0  0  0  0  0  0  0
   -4.5808   -1.6542   -0.0050 C   0  0  2  0  0  0  0  0  0  0  0  0
   -5.2943   -0.3548   -0.0086 N   0  3  0  0  0  0  0  0  0  0  0  0
   -4.8481   -2.3727    1.3108 C   0  0  1  0  0  0  0  0  0  0  0  0
   -6.2366   -2.6401    1.4336 O   0  0  0  0  0  0  0  0  0  0  0  0
   -4.0562   -3.6777    1.3505 C   0  0  2  0  0  0  0  0  0  0  0  0
   -4.2460   -4.3209    2.6042 O   0  0  0  0  0  0  0  0  0  0  0  0
   -1.4922   -5.2033    2.4317 N   0  3  0  0  0  0  0  0  0  0  0  0
   -2.5724   -3.3794    1.1442 C   0  0  2  0  0  0  0  0  0  0  0  0
   -2.3770   -2.6697   -0.0959 O   0  0  0  0  0  0  0  0  0  0  0  0
   -2.0579    2.7313   -1.9597 C   0  0  2  0  0  0  0  0  0  0  0  0
   -1.5401    3.9896   -2.5443 N   0  3  0  0  0  0  0  0  0  0  0  0
   -2.7092    3.0129   -0.6104 C   0  0  0  0  0  0  0  0  0  0  0  0
   -3.2445    1.7271    0.0039 C   0  0  2  0  0  0  0  0  0  0  0  0
   -3.8523    2.0635    1.2835 N   0  3  0  0  0  0  0  0  0  0  0  0
   -2.1045    0.7282    0.1884 C   0  0  1  0  0  0  0  0  0  0  0  0
   -2.6239   -0.4957    0.7438 O   0  0  0  0  0  0  0  0  0  0  0  0
   -1.4196    0.4299   -1.1526 C   0  0  2  0  0  0  0  0  0  0  0  0
   -0.2869   -0.4312   -0.9285 O   0  0  0  0  0  0  0  0  0  0  0  0
   -0.9300    1.7093   -1.8265 C   0  0  1  0  0  0  0  0  0  0  0  0
   -0.4168    1.3999   -3.1155 O   0  0  0  0  0  0  0  0  0  0  0  0
  1  2  1  0  0  0  0
  3  2  1  6  0  0  0
  3  5  1  0  0  0  0
  3  4  1  0  0  0  0
  4  9  1  0  0  0  0
  5  7  1  0  0  0  0
  5  6  1  1  0  0  0
  7  9  1  0  0  0  0
  7  8  1  6  0  0  0
  9 40  1  1  0  0  0
 10  6  1  1  0  0  0
 10 11  1  0  0  0  0
 10 18  1  0  0  0  0
 11 13  1  0  0  0  0
 11 12  1  1  0  0  0
 13 15  1  0  0  0  0
 13 14  1  6  0  0  0
 15 17  1  0  0  0  0
 15 16  1  1  0  0  0
 17 19  1  1  0  0  0
 17 18  1  0  0  0  0
 19 20  1  0  0  0  0
 21 29  1  0  0  0  0
 22 23  1  0  0  0  0
 22 31  1  0  0  0  0
 22 38  1  1  0  0  0
 23 25  1  0  0  0  0
 23 24  1  1  0  0  0
 25 27  1  0  0  0  0
 25 26  1  6  0  0  0
 27 30  1  0  0  0  0
 27 28  1  1  0  0  0
 30 21  1  6  0  0  0
 30 31  1  0  0  0  0
 32 34  1  0  0  0  0
 32 41  1  0  0  0  0
 32 33  1  1  0  0  0
 34 35  1  0  0  0  0
 35 37  1  0  0  0  0
 35 36  1  1  0  0  0
 37 39  1  0  0  0  0
 37 38  1  6  0  0  0
 39 41  1  0  0  0  0
 39 40  1  1  0  0  0
 41 42  1  6  0  0  0
M  CHG  6  12   1  20   1  24   1  29   1  33   1  36   1
M  END
>  <CHROM.1>
-79.38996736,-131.36941738,38.32924939,-146.44577840,175.31074482,-159.14477857
27.34569157,-165.74408606,65.87364453,171.86094786,-82.81443106,-77.68816139
-141.28888131,-116.39963691,55.82167978,-173.50519331,157.90212934,-166.82510384
82.07977902,88.03308460,-92.88148915,67.51805352,0.27399041,-0.28005589,0.99948790
-0.08177590,0.34089251,2.66944922

>  <Name>
1NEM.B

>  <RI>
0

>  <Rbt.Current_Directory>
/home/itssahil/PROJECTS/Mol_Feturizer/New_Systems/rnas/1nem

>  <Rbt.Executable>
rbdock ($Id: //depot/dev/client3/rdock/2013.1/src/exe/rbdock.cxx#4 $)

>  <Rbt.Library>
libRbt.so (2013.1, Build901 2013/11/27)

>  <Rbt.Parameter_File>
/export/apps/rDock/src/rDock_2013.1_src/data/scripts/dock_solv.prm

>  <Rbt.Receptor>
prm/pocket_docking_2.prm

>  <SCORE>
-1.09794

>  <SCORE.INTER>
-27.6445

>  <SCORE.INTER.CONST>
1

>  <SCORE.INTER.POLAR>
-5.48269

>  <SCORE.INTER.ROT>
9

>  <SCORE.INTER.SOLV>
45.1546

>  <SCORE.INTER.VDW>
-24.8056

>  <SCORE.INTER.norm>
-0.658202

>  <SCORE.INTRA>
21.7597

>  <SCORE.INTRA.DIHEDRAL>
19.9042

>  <SCORE.INTRA.DIHEDRAL.0>
22.4324

>  <SCORE.INTRA.POLAR>
0.0642437

>  <SCORE.INTRA.POLAR.0>
-1.83749

>  <SCORE.INTRA.REPUL>
0

>  <SCORE.INTRA.REPUL.0>
0

>  <SCORE.INTRA.SOLV>
2.33803

>  <SCORE.INTRA.SOLV.lig_0>
-160.638

>  <SCORE.INTRA.VDW>
10.4201

>  <SCORE.INTRA.VDW.0>
-7.61953

>  <SCORE.INTRA.norm>
0.518087

>  <SCORE.RESTR>
4.78688

>  <SCORE.RESTR.CAVITY>
4.78688

>  <SCORE.RESTR.norm>
0.113973

>  <SCORE.SYSTEM>
0

>  <SCORE.SYSTEM.CONST>
0

>  <SCORE.SYSTEM.DIHEDRAL>
0

>  <SCORE.SYSTEM.SOLV>
0

>  <SCORE.SYSTEM.norm>
0

>  <SCORE.heavy>
42

>  <SCORE.norm>
-0.0261414

>  <RMSD>
2.780

$$$$
1NEM.B
 OpenBabel11021811403D
libRbt.so/2013.1/901 2013/11/27
 42 45  0  0  0  0  0  0  0  0999 V2000
    5.3734   -0.0930   -1.0692 O   0  0  0  0  0  0  0  0  0  0  0  0
    4.0691   -0.2900   -1.6188 C   0  0  0  0  0  0  0  0  0  0  0  0
    3.0690    0.7806   -1.1849 C   0  0  1  0  0  0  0  0  0  0  0  0
    1.8554    0.6644   -1.9220 O   0  0  0  0  0  0  0  0  0  0  0  0
    2.6084    0.6703    0.2598 C   0  0  1  0  0  0  0  0  0  0  0  0
    3.7022    1.0749    1.0864 O   0  0  0  0  0  0  0  0  0  0  0  0
    1.4196    1.6112    0.2023 C   0  0  1  0  0  0  0  0  0  0  0  0
    1.8189    2.9779    0.0538 O   0  0  0  0  0  0  0  0  0  0  0  0
    0.7781    1.1044   -1.0947 C   0  0  2  0  0  0  0  0  0  0  0  0
    3.5186    0.9366    2.4664 C   0  0  2  0  0  0  0  0  0  0  0  0
    3.2956    2.3218    3.0886 C   0  0  2  0  0  0  0  0  0  0  0  0
    4.3984    3.2396    2.6992 N   0  3  0  0  0  0  0  0  0  0  0  0
    3.1550    2.2196    4.6108 C   0  0  1  0  0  0  0  0  0  0  0  0
    1.9163    1.6028    4.9358 O   0  0  0  0  0  0  0  0  0  0  0  0
    4.3061    1.4128    5.2195 C   0  0  2  0  0  0  0  0  0  0  0  0
    5.5282    2.1303    5.1024 O   0  0  0  0  0  0  0  0  0  0  0  0
    4.4220    0.0674    4.5085 C   0  0  1  0  0  0  0  0  0  0  0  0
    4.6110    0.2797    3.0960 O   0  0  0  0  0  0  0  0  0  0  0  0
    5.5768   -0.7796    5.0137 C   0  0  0  0  0  0  0  0  0  0  0  0
    5.9580   -1.8293    4.0428 N   0  3  0  0  0  0  0  0  0  0  0  0
   -5.3713   -3.6774    0.3108 C   0  0  0  0  0  0  0  0  0  0  0  0
   -2.5324   -1.9684    1.9682 C   0  0  2  0  0  0  0  0  0  0  0  0
   -1.8207   -3.1492    2.6241 C   0  0  2  0  0  0  0  0  0  0  0  0
   -0.4212   -2.7870    2.9523 N   0  3  0  0  0  0  0  0  0  0  0  0
   -1.8244   -4.3501    1.6876 C   0  0  1  0  0  0  0  0  0  0  0  0
   -1.2296   -5.4627    2.3379 O   0  0  0  0  0  0  0  0  0  0  0  0
   -3.2603   -4.6815    1.2873 C   0  0  2  0  0  0  0  0  0  0  0  0
   -3.2675   -5.7580    0.3586 O   0  0  0  0  0  0  0  0  0  0  0  0
   -5.7540   -2.9641   -0.9293 N   0  3  0  0  0  0  0  0  0  0  0  0
   -3.9094   -3.4517    0.6553 C   0  0  2  0  0  0  0  0  0  0  0  0
   -3.8496   -2.3357    1.5667 O   0  0  0  0  0  0  0  0  0  0  0  0
   -3.2268    1.8900   -1.2180 C   0  0  2  0  0  0  0  0  0  0  0  0
   -3.4729    3.2998   -1.5991 N   0  3  0  0  0  0  0  0  0  0  0  0
   -3.7349    1.6364    0.1968 C   0  0  0  0  0  0  0  0  0  0  0  0
   -3.4864    0.1906    0.6032 C   0  0  2  0  0  0  0  0  0  0  0  0
   -3.9933    0.0144    1.9567 N   0  3  0  0  0  0  0  0  0  0  0  0
   -1.9920   -0.1157    0.5371 C   0  0  1  0  0  0  0  0  0  0  0  0
   -1.7681   -1.4933    0.8958 O   0  0  0  0  0  0  0  0  0  0  0  0
   -1.4457    0.1394   -0.8745 C   0  0  2  0  0  0  0  0  0  0  0  0
   -0.0189   -0.0577   -0.8767 O   0  0  0  0  0  0  0  0  0  0  0  0
   -1.7390    1.5641   -1.3378 C   0  0  1  0  0  0  0  0  0  0  0  0
   -1.3282    1.7172   -2.6900 O   0  0  0  0  0  0  0  0  0  0  0  0
  1  2  1  0  0  0  0
  3  2  1  6  0  0  0
  3  5  1  0  0  0  0
  3  4  1  0  0  0  0
  4  9  1  0  0  0  0
  5  7  1  0  0  0  0
  5  6  1  1  0  0  0
  7  9  1  0  0  0  0
  7  8  1  6  0  0  0
  9 40  1  1  0  0  0
 10  6  1  6  0  0  0
 10 11  1  0  0  0  0
 10 18  1  0  0  0  0
 11 13  1  0  0  0  0
 11 12  1  1  0  0  0
 13 15  1  0  0  0  0
 13 14  1  6  0  0  0
 15 17  1  0  0  0  0
 15 16  1  6  0  0  0
 17 19  1  1  0  0  0
 17 18  1  0  0  0  0
 19 20  1  0  0  0  0
 21 29  1  0  0  0  0
 22 23  1  0  0  0  0
 22 31  1  0  0  0  0
 22 38  1  6  0  0  0
 23 25  1  0  0  0  0
 23 24  1  6  0  0  0
 25 27  1  0  0  0  0
 25 26  1  1  0  0  0
 27 30  1  0  0  0  0
 27 28  1  6  0  0  0
 30 21  1  1  0  0  0
 30 31  1  0  0  0  0
 32 34  1  0  0  0  0
 32 41  1  0  0  0  0
 32 33  1  1  0  0  0
 34 35  1  0  0  0  0
 35 37  1  0  0  0  0
 35 36  1  1  0  0  0
 37 39  1  0  0  0  0
 37 38  1  6  0  0  0
 39 41  1  0  0  0  0
 39 40  1  1  0  0  0
 41 42  1  6  0  0  0
M  CHG  6  12   1  20   1  24   1  29   1  33   1  36   1
M  END
>  <CHROM.1>
-64.48423028,170.65972376,-174.76178471,-105.96710215,-177.19236091,-141.28050108
37.53982093,58.25520862,59.74687655,-160.44789696,132.30515604,-144.95611218
-94.63487855,-155.55274980,20.21166577,-174.13362374,24.91870282,61.02031739
18.99707477,-40.97334522,-112.84333712,134.15987018,0.31217149,-0.28118849
1.18587231,0.10912756,-0.46543722,-0.65037703

>  <Name>
1NEM.B

>  <RI>
0

>  <Rbt.Current_Directory>
/home/itssahil/PROJECTS/Mol_Feturizer/New_Systems/rnas/1nem

>  <Rbt.Executable>
rbdock ($Id: //depot/dev/client3/rdock/2013.1/src/exe/rbdock.cxx#4 $)

>  <Rbt.Library>
libRbt.so (2013.1, Build901 2013/11/27)

>  <Rbt.Parameter_File>
/export/apps/rDock/src/rDock_2013.1_src/data/scripts/dock_solv.prm

>  <Rbt.Receptor>
prm/pocket_docking_3.prm

>  <SCORE>
-19.0108

>  <SCORE.INTER>
-52.2861

>  <SCORE.INTER.CONST>
1

>  <SCORE.INTER.POLAR>
-9.66254

>  <SCORE.INTER.ROT>
9

>  <SCORE.INTER.SOLV>
59.0286

>  <SCORE.INTER.VDW>
-31.9252

>  <SCORE.INTER.norm>
-1.24491

>  <SCORE.INTRA>
32.8971

>  <SCORE.INTRA.DIHEDRAL>
29.0907

>  <SCORE.INTRA.DIHEDRAL.0>
22.4324

>  <SCORE.INTRA.POLAR>
0.427544

>  <SCORE.INTRA.POLAR.0>
-1.83749

>  <SCORE.INTRA.REPUL>
0

>  <SCORE.INTRA.REPUL.0>
0

>  <SCORE.INTRA.SOLV>
-4.74773

>  <SCORE.INTRA.SOLV.lig_0>
-160.638

>  <SCORE.INTRA.VDW>
19.272

>  <SCORE.INTRA.VDW.0>
-7.61953

>  <SCORE.INTRA.norm>
0.783265

>  <SCORE.RESTR>
0.378194

>  <SCORE.RESTR.CAVITY>
0.378194

>  <SCORE.RESTR.norm>
0.00900463

>  <SCORE.SYSTEM>
0

>  <SCORE.SYSTEM.CONST>
0

>  <SCORE.SYSTEM.DIHEDRAL>
0

>  <SCORE.SYSTEM.SOLV>
0

>  <SCORE.SYSTEM.norm>
0

>  <SCORE.heavy>
42

>  <SCORE.norm>
-0.452638

>  <RMSD>
2.790

$$$$
1NEM.B
 OpenBabel11021811403D
libRbt.so/2013.1/901 2013/11/27
 42 45  0  0  0  0  0  0  0  0999 V2000
    5.5341   -0.0329    0.5835 O   0  0  0  0  0  0  0  0  0  0  0  0
    4.3888    0.1243    1.4235 C   0  0  0  0  0  0  0  0  0  0  0  0
    3.5544    1.3555    1.0733 C   0  0  1  0  0  0  0  0  0  0  0  0
    2.8269    1.1443   -0.1332 O   0  0  0  0  0  0  0  0  0  0  0  0
    2.4655    1.6913    2.0798 C   0  0  1  0  0  0  0  0  0  0  0  0
    3.1097    2.2137    3.2441 O   0  0  0  0  0  0  0  0  0  0  0  0
    1.6689    2.6781    1.2472 C   0  0  1  0  0  0  0  0  0  0  0  0
    2.3712    3.9099    1.0505 O   0  0  0  0  0  0  0  0  0  0  0  0
    1.6101    1.8882   -0.0656 C   0  0  2  0  0  0  0  0  0  0  0  0
    4.0869    1.4002    3.8276 C   0  0  2  0  0  0  0  0  0  0  0  0
    3.4059    0.2299    4.5500 C   0  0  2  0  0  0  0  0  0  0  0  0
    2.3800    0.7418    5.4964 N   0  3  0  0  0  0  0  0  0  0  0  0
    4.4408   -0.6501    5.2586 C   0  0  1  0  0  0  0  0  0  0  0  0
    5.1998   -1.3663    4.2934 O   0  0  0  0  0  0  0  0  0  0  0  0
    5.3792    0.1916    6.1288 C   0  0  2  0  0  0  0  0  0  0  0  0
    4.6719    0.7332    7.2371 O   0  0  0  0  0  0  0  0  0  0  0  0
    5.9805    1.3186    5.2938 C   0  0  1  0  0  0  0  0  0  0  0  0
    4.9249    2.1173    4.7247 O   0  0  0  0  0  0  0  0  0  0  0  0
    6.8857    2.2391    6.0932 C   0  0  0  0  0  0  0  0  0  0  0  0
    7.3950    3.3612    5.2738 N   0  3  0  0  0  0  0  0  0  0  0  0
   -5.0178   -3.3914    0.7288 C   0  0  0  0  0  0  0  0  0  0  0  0
   -2.0204   -1.2727    1.2327 C   0  0  2  0  0  0  0  0  0  0  0  0
   -0.9772   -2.3232    1.6058 C   0  0  2  0  0  0  0  0  0  0  0  0
    0.3889   -1.7838    1.4047 N   0  3  0  0  0  0  0  0  0  0  0  0
   -1.1582   -3.5697    0.7500 C   0  0  1  0  0  0  0  0  0  0  0  0
   -0.2340   -4.5663    1.1589 O   0  0  0  0  0  0  0  0  0  0  0  0
   -2.5876   -4.0869    0.8965 C   0  0  2  0  0  0  0  0  0  0  0  0
   -2.7850   -5.2101    0.0473 O   0  0  0  0  0  0  0  0  0  0  0  0
   -5.8742   -2.2267    1.0499 N   0  3  0  0  0  0  0  0  0  0  0  0
   -3.5707   -2.9793    0.5224 C   0  0  2  0  0  0  0  0  0  0  0  0
   -3.3356   -1.8120    1.3359 O   0  0  0  0  0  0  0  0  0  0  0  0
   -1.9182    3.0452   -1.8945 C   0  0  2  0  0  0  0  0  0  0  0  0
   -2.0057    4.5144   -2.0594 N   0  3  0  0  0  0  0  0  0  0  0  0
   -3.1573    2.5272   -1.1731 C   0  0  0  0  0  0  0  0  0  0  0  0
   -3.0800    1.0174   -0.9945 C   0  0  2  0  0  0  0  0  0  0  0  0
   -4.2878    0.5876   -0.3040 N   0  3  0  0  0  0  0  0  0  0  0  0
   -1.8343    0.6547   -0.1895 C   0  0  1  0  0  0  0  0  0  0  0  0
   -1.7536   -0.7771   -0.0491 O   0  0  0  0  0  0  0  0  0  0  0  0
   -0.5672    1.1716   -0.8848 C   0  0  2  0  0  0  0  0  0  0  0  0
    0.5767    0.9058   -0.0508 O   0  0  0  0  0  0  0  0  0  0  0  0
   -0.6432    2.6751   -1.1386 C   0  0  1  0  0  0  0  0  0  0  0  0
    0.4900    3.0870   -1.8914 O   0  0  0  0  0  0  0  0  0  0  0  0
  1  2  1  0  0  0  0
  3  2  1  1  0  0  0
  3  5  1  0  0  0  0
  3  4  1  0  0  0  0
  4  9  1  0  0  0  0
  5  7  1  0  0  0  0
  5  6  1  1  0  0  0
  7  9  1  0  0  0  0
  7  8  1  6  0  0  0
  9 40  1  1  0  0  0
 10  6  1  1  0  0  0
 10 11  1  0  0  0  0
 10 18  1  0  0  0  0
 11 13  1  0  0  0  0
 11 12  1  1  0  0  0
 13 15  1  0  0  0  0
 13 14  1  6  0  0  0
 15 17  1  0  0  0  0
 15 16  1  1  0  0  0
 17 19  1  1  0  0  0
 17 18  1  0  0  0  0
 19 20  1  0  0  0  0
 21 29  1  0  0  0  0
 22 23  1  0  0  0  0
 22 31  1  0  0  0  0
 22 38  1  6  0  0  0
 23 25  1  0  0  0  0
 23 24  1  6  0  0  0
 25 27  1  0  0  0  0
 25 26  1  1  0  0  0
 27 30  1  0  0  0  0
 27 28  1  6  0  0  0
 30 21  1  1  0  0  0
 30 31  1  0  0  0  0
 32 34  1  0  0  0  0
 32 41  1  0  0  0  0
 32 33  1  1  0  0  0
 34 35  1  0  0  0  0
 35 37  1  0  0  0  0
 35 36  1  1  0  0  0
 37 39  1  0  0  0  0
 37 38  1  6  0  0  0
 39 41  1  0  0  0  0
 39 40  1  1  0  0  0
 41 42  1  6  0  0  0
M  CHG  6  12   1  20   1  24   1  29   1  33   1  36   1
M  END
>  <CHROM.1>
-176.93403347,73.58115088,-55.60060251,-73.45969911,-62.31984744,-136.74951627
-161.97361778,179.88643422,49.95573333,-176.96379856,-48.93604217,150.62711687
94.16135889,-134.97900803,-32.27110683,-96.52298535,66.54274336,-22.51606162
-150.91569893,-108.34847389,-144.44663023,-61.64544605,0.89705341,0.27302835
1.65042007,-0.02375335,-0.56891987,-0.53457695

>  <Name>
1NEM.B

>  <RI>
0

>  <Rbt.Current_Directory>
/home/itssahil/PROJECTS/Mol_Feturizer/New_Systems/rnas/1nem

>  <Rbt.Executable>
rbdock ($Id: //depot/dev/client3/rdock/2013.1/src/exe/rbdock.cxx#4 $)

>  <Rbt.Library>
libRbt.so (2013.1, Build901 2013/11/27)

>  <Rbt.Parameter_File>
/export/apps/rDock/src/rDock_2013.1_src/data/scripts/dock_solv.prm

>  <Rbt.Receptor>
prm/pocket_docking_3.prm

>  <SCORE>
-28.1845

>  <SCORE.INTER>
-50.3087

>  <SCORE.INTER.CONST>
1

>  <SCORE.INTER.POLAR>
-7.88359

>  <SCORE.INTER.ROT>
9

>  <SCORE.INTER.SOLV>
34.7245

>  <SCORE.INTER.VDW>
-28.4353

>  <SCORE.INTER.norm>
-1.19783

>  <SCORE.INTRA>
20.611

>  <SCORE.INTRA.DIHEDRAL>
20.293

>  <SCORE.INTRA.DIHEDRAL.0>
22.4324

>  <SCORE.INTRA.POLAR>
-0.356376

>  <SCORE.INTRA.POLAR.0>
-1.83749

>  <SCORE.INTRA.REPUL>
0

>  <SCORE.INTRA.REPUL.0>
0

>  <SCORE.INTRA.SOLV>
0.230443

>  <SCORE.INTRA.SOLV.lig_0>
-160.638

>  <SCORE.INTRA.VDW>
11.561

>  <SCORE.INTRA.VDW.0>
-7.61953

>  <SCORE.INTRA.norm>
0.490739

>  <SCORE.RESTR>
1.51319

>  <SCORE.RESTR.CAVITY>
1.51319

>  <SCORE.RESTR.norm>
0.0360282

>  <SCORE.SYSTEM>
0

>  <SCORE.SYSTEM.CONST>
0

>  <SCORE.SYSTEM.DIHEDRAL>
0

>  <SCORE.SYSTEM.SOLV>
0

>  <SCORE.SYSTEM.norm>
0

>  <SCORE.heavy>
42

>  <SCORE.norm>
-0.671058

>  <RMSD>
2.802

$$$$
1NEM.B
 OpenBabel11021811403D
libRbt.so/2013.1/901 2013/11/27
 42 45  0  0  0  0  0  0  0  0999 V2000
    1.9441   -4.9103    1.8937 O   0  0  0  0  0  0  0  0  0  0  0  0
    2.0994   -3.6801    2.6041 C   0  0  0  0  0  0  0  0  0  0  0  0
    2.4164   -2.4973    1.6901 C   0  0  1  0  0  0  0  0  0  0  0  0
    1.4239   -2.3637    0.6769 O   0  0  0  0  0  0  0  0  0  0  0  0
    2.3946   -1.1411    2.3770 C   0  0  1  0  0  0  0  0  0  0  0  0
    3.5562   -1.0666    3.2068 O   0  0  0  0  0  0  0  0  0  0  0  0
    2.3836   -0.2526    1.1473 C   0  0  1  0  0  0  0  0  0  0  0  0
    3.6319   -0.2831    0.4473 O   0  0  0  0  0  0  0  0  0  0  0  0
    1.3057   -0.9821    0.3369 C   0  0  2  0  0  0  0  0  0  0  0  0
    3.5183   -0.1248    4.2406 C   0  0  2  0  0  0  0  0  0  0  0  0
    3.3505    1.2781    3.6413 C   0  0  2  0  0  0  0  0  0  0  0  0
    4.3997    1.5243    2.6171 N   0  3  0  0  0  0  0  0  0  0  0  0
    3.3698    2.3462    4.7395 C   0  0  1  0  0  0  0  0  0  0  0  0
    2.1764    2.2635    5.5073 O   0  0  0  0  0  0  0  0  0  0  0  0
    4.5841    2.1738    5.6572 C   0  0  2  0  0  0  0  0  0  0  0  0
    5.7819    2.4789    4.9540 O   0  0  0  0  0  0  0  0  0  0  0  0
    4.6359    0.7395    6.1760 C   0  0  1  0  0  0  0  0  0  0  0  0
    4.6752   -0.1772    5.0652 O   0  0  0  0  0  0  0  0  0  0  0  0
    5.8434    0.4634    7.0545 C   0  0  0  0  0  0  0  0  0  0  0  0
    5.6905   -0.7904    7.8254 N   0  3  0  0  0  0  0  0  0  0  0  0
   -1.0415   -4.0427    1.6969 C   0  0  0  0  0  0  0  0  0  0  0  0
   -3.2876   -1.3590    0.4804 C   0  0  2  0  0  0  0  0  0  0  0  0
   -4.6232   -1.8024    1.0726 C   0  0  2  0  0  0  0  0  0  0  0  0
   -5.5701   -0.6626    1.1135 N   0  3  0  0  0  0  0  0  0  0  0  0
   -4.4195   -2.3396    2.4828 C   0  0  1  0  0  0  0  0  0  0  0  0
   -5.6541   -2.8197    2.9924 O   0  0  0  0  0  0  0  0  0  0  0  0
   -3.3884   -3.4658    2.4567 C   0  0  2  0  0  0  0  0  0  0  0  0
   -3.1412   -3.9262    3.7790 O   0  0  0  0  0  0  0  0  0  0  0  0
   -0.4831   -4.0849    0.3260 N   0  3  0  0  0  0  0  0  0  0  0  0
   -2.0892   -2.9524    1.8388 C   0  0  2  0  0  0  0  0  0  0  0  0
   -2.3417   -2.4242    0.5209 O   0  0  0  0  0  0  0  0  0  0  0  0
   -0.9297    1.5118   -2.2289 C   0  0  2  0  0  0  0  0  0  0  0  0
   -0.1162    2.4333   -3.0550 N   0  3  0  0  0  0  0  0  0  0  0  0
   -2.0591    2.2791   -1.5509 C   0  0  0  0  0  0  0  0  0  0  0  0
   -2.9030    1.3442   -0.6959 C   0  0  2  0  0  0  0  0  0  0  0  0
   -3.9596    2.1346   -0.0805 N   0  3  0  0  0  0  0  0  0  0  0  0
   -2.0278    0.6837    0.3667 C   0  0  1  0  0  0  0  0  0  0  0  0
   -2.8278   -0.2206    1.1532 O   0  0  0  0  0  0  0  0  0  0  0  0
   -0.8727   -0.0905   -0.2835 C   0  0  2  0  0  0  0  0  0  0  0  0
   -0.0096   -0.6122    0.7448 O   0  0  0  0  0  0  0  0  0  0  0  0
   -0.0460    0.8064   -1.2014 C   0  0  1  0  0  0  0  0  0  0  0  0
    0.9311    0.0239   -1.8749 O   0  0  0  0  0  0  0  0  0  0  0  0
  1  2  1  0  0  0  0
  3  2  1  1  0  0  0
  3  5  1  0  0  0  0
  3  4  1  0  0  0  0
  4  9  1  0  0  0  0
  5  7  1  0  0  0  0
  5  6  1  1  0  0  0
  7  9  1  0  0  0  0
  7  8  1  6  0  0  0
  9 40  1  1  0  0  0
 10  6  1  6  0  0  0
 10 11  1  0  0  0  0
 10 18  1  0  0  0  0
 11 13  1  0  0  0  0
 11 12  1  6  0  0  0
 13 15  1  0  0  0  0
 13 14  1  1  0  0  0
 15 17  1  0  0  0  0
 15 16  1  6  0  0  0
 17 19  1  1  0  0  0
 17 18  1  0  0  0  0
 19 20  1  0  0  0  0
 21 29  1  0  0  0  0
 22 23  1  0  0  0  0
 22 31  1  0  0  0  0
 22 38  1  1  0  0  0
 23 25  1  0  0  0  0
 23 24  1  1  0  0  0
 25 27  1  0  0  0  0
 25 26  1  6  0  0  0
 27 30  1  0  0  0  0
 27 28  1  1  0  0  0
 30 21  1  6  0  0  0
 30 31  1  0  0  0  0
 32 34  1  0  0  0  0
 32 41  1  0  0  0  0
 32 33  1  1  0  0  0
 34 35  1  0  0  0  0
 35 37  1  0  0  0  0
 35 36  1  1  0  0  0
 37 39  1  0  0  0  0
 37 38  1  6  0  0  0
 39 41  1  0  0  0  0
 39 40  1  1  0  0  0
 41 42  1  6  0  0  0
M  CHG  6  12   1  20   1  24   1  29   1  33   1  36   1
M  END
>  <CHROM.1>
-178.39354320,55.54969318,-159.72012258,-60.76209542,168.20434485,-121.72483093
43.51428657,-40.77835102,85.82093890,164.80039590,57.80820006,129.36926858
-99.02961101,-149.81002981,130.10522745,-177.48045697,-172.11432067,111.90030877
-33.55052802,68.33211109,-160.89269316,47.99755661,0.45068892,-0.59707870
1.95593242,0.21904988,0.51046527,2.36208579

>  <Name>
1NEM.B

>  <RI>
0

>  <Rbt.Current_Directory>
/home/itssahil/PROJECTS/Mol_Feturizer/New_Systems/rnas/1nem

>  <Rbt.Executable>
rbdock ($Id: //depot/dev/client3/rdock/2013.1/src/exe/rbdock.cxx#4 $)

>  <Rbt.Library>
libRbt.so (2013.1, Build901 2013/11/27)

>  <Rbt.Parameter_File>
/export/apps/rDock/src/rDock_2013.1_src/data/scripts/dock_solv.prm

>  <Rbt.Receptor>
prm/pocket_docking_2.prm

>  <SCORE>
-34.9469

>  <SCORE.INTER>
-55.8415

>  <SCORE.INTER.CONST>
1

>  <SCORE.INTER.POLAR>
-6.97055

>  <SCORE.INTER.ROT>
9

>  <SCORE.INTER.SOLV>
31.7026

>  <SCORE.INTER.VDW>
-34.1601

>  <SCORE.INTER.norm>
-1.32956

>  <SCORE.INTRA>
18.0739

>  <SCORE.INTRA.DIHEDRAL>
16.2579

>  <SCORE.INTRA.DIHEDRAL.0>
22.4324

>  <SCORE.INTRA.POLAR>
-0.762031

>  <SCORE.INTRA.POLAR.0>
-1.83749

>  <SCORE.INTRA.REPUL>
0

>  <SCORE.INTRA.REPUL.0>
0

>  <SCORE.INTRA.SOLV>
5.45766

>  <SCORE.INTRA.SOLV.lig_0>
-160.638

>  <SCORE.INTRA.VDW>
9.80701

>  <SCORE.INTRA.VDW.0>
-7.61953

>  <SCORE.INTRA.norm>
0.43033

>  <SCORE.RESTR>
2.8208

>  <SCORE.RESTR.CAVITY>
2.8208

>  <SCORE.RESTR.norm>
0.0671619

>  <SCORE.SYSTEM>
0

>  <SCORE.SYSTEM.CONST>
0

>  <SCORE.SYSTEM.DIHEDRAL>
0

>  <SCORE.SYSTEM.SOLV>
0

>  <SCORE.SYSTEM.norm>
0

>  <SCORE.heavy>
42

>  <SCORE.norm>
-0.832068

>  <RMSD>
2.831

$$$$
1NEM.B
 OpenBabel11021811403D
libRbt.so/2013.1/901 2013/11/27
 42 45  0  0  0  0  0  0  0  0999 V2000
    1.0109   -4.3346    2.7315 O   0  0  0  0  0  0  0  0  0  0  0  0
    2.2445   -3.9123    2.1465 C   0  0  0  0  0  0  0  0  0  0  0  0
    2.1194   -2.6058    1.3642 C   0  0  1  0  0  0  0  0  0  0  0  0
    1.0230   -2.6654    0.4566 O   0  0  0  0  0  0  0  0  0  0  0  0
    1.7998   -1.3859    2.2135 C   0  0  1  0  0  0  0  0  0  0  0  0
    2.9798   -1.0617    2.9522 O   0  0  0  0  0  0  0  0  0  0  0  0
    1.4079   -0.4234    1.1081 C   0  0  1  0  0  0  0  0  0  0  0  0
    2.5308   -0.0265    0.3139 O   0  0  0  0  0  0  0  0  0  0  0  0
    0.4908   -1.3497    0.3008 C   0  0  2  0  0  0  0  0  0  0  0  0
    2.8405   -0.0824    3.9416 C   0  0  2  0  0  0  0  0  0  0  0  0
    2.7090    1.2942    3.2761 C   0  0  2  0  0  0  0  0  0  0  0  0
    3.8405    1.5178    2.3381 N   0  3  0  0  0  0  0  0  0  0  0  0
    2.6195    2.4030    4.3297 C   0  0  1  0  0  0  0  0  0  0  0  0
    1.3647    2.3309    4.9936 O   0  0  0  0  0  0  0  0  0  0  0  0
    3.7511    2.2837    5.3552 C   0  0  2  0  0  0  0  0  0  0  0  0
    5.0019    2.5805    4.7474 O   0  0  0  0  0  0  0  0  0  0  0  0
    3.7745    0.8709    5.9317 C   0  0  1  0  0  0  0  0  0  0  0  0
    3.9216   -0.0862    4.8649 O   0  0  0  0  0  0  0  0  0  0  0  0
    4.9039    0.6465    6.9217 C   0  0  0  0  0  0  0  0  0  0  0  0
    4.4348    0.7284    8.3228 N   0  3  0  0  0  0  0  0  0  0  0  0
   -2.6896   -4.9003    0.7175 C   0  0  0  0  0  0  0  0  0  0  0  0
   -4.3560   -1.6482    1.3296 C   0  0  2  0  0  0  0  0  0  0  0  0
   -5.4811   -2.0672    2.2727 C   0  0  2  0  0  0  0  0  0  0  0  0
   -5.9945   -0.8904    3.0137 N   0  3  0  0  0  0  0  0  0  0  0  0
   -4.9750   -3.1061    3.2645 C   0  0  1  0  0  0  0  0  0  0  0  0
   -6.0477   -3.5441    4.0841 O   0  0  0  0  0  0  0  0  0  0  0  0
   -4.3771   -4.2886    2.5053 C   0  0  2  0  0  0  0  0  0  0  0  0
   -3.8399   -5.2315    3.4239 O   0  0  0  0  0  0  0  0  0  0  0  0
   -1.3974   -5.3812    1.2576 N   0  3  0  0  0  0  0  0  0  0  0  0
   -3.2736   -3.7904    1.5741 C   0  0  2  0  0  0  0  0  0  0  0  0
   -3.7949   -2.7860    0.6802 O   0  0  0  0  0  0  0  0  0  0  0  0
   -2.1250    1.3995   -1.2881 C   0  0  2  0  0  0  0  0  0  0  0  0
   -1.4136    2.4232   -2.0876 N   0  3  0  0  0  0  0  0  0  0  0  0
   -2.9577    2.0722   -0.2026 C   0  0  0  0  0  0  0  0  0  0  0  0
   -3.6935    1.0311    0.6293 C   0  0  2  0  0  0  0  0  0  0  0  0
   -4.4675    1.7351    1.6418 N   0  3  0  0  0  0  0  0  0  0  0  0
   -2.6884    0.0805    1.2754 C   0  0  1  0  0  0  0  0  0  0  0  0
   -3.3938   -0.9183    2.0377 O   0  0  0  0  0  0  0  0  0  0  0  0
   -1.8255   -0.6071    0.2083 C   0  0  2  0  0  0  0  0  0  0  0  0
   -0.8220   -1.4141    0.8536 O   0  0  0  0  0  0  0  0  0  0  0  0
   -1.1256    0.4129   -0.6864 C   0  0  1  0  0  0  0  0  0  0  0  0
   -0.4408   -0.2641   -1.7320 O   0  0  0  0  0  0  0  0  0  0  0  0
  1  2  1  0  0  0  0
  3  2  1  1  0  0  0
  3  5  1  0  0  0  0
  3  4  1  0  0  0  0
  4  9  1  0  0  0  0
  5  7  1  0  0  0  0
  5  6  1  6  0  0  0
  7  9  1  0  0  0  0
  7  8  1  6  0  0  0
  9 40  1  1  0  0  0
 10  6  1  6  0  0  0
 10 11  1  0  0  0  0
 10 18  1  0  0  0  0
 11 13  1  0  0  0  0
 11 12  1  6  0  0  0
 13 15  1  0  0  0  0
 13 14  1  1  0  0  0
 15 17  1  0  0  0  0
 15 16  1  6  0  0  0
 17 19  1  1  0  0  0
 17 18  1  0  0  0  0
 19 20  1  0  0  0  0
 21 29  1  0  0  0  0
 22 23  1  0  0  0  0
 22 31  1  0  0  0  0
 22 38  1  1  0  0  0
 23 25  1  0  0  0  0
 23 24  1  1  0  0  0
 25 27  1  0  0  0  0
 25 26  1  6  0  0  0
 27 30  1  0  0  0  0
 27 28  1  1  0  0  0
 30 21  1  6  0  0  0
 30 31  1  0  0  0  0
 32 34  1  0  0  0  0
 32 41  1  0  0  0  0
 32 33  1  1  0  0  0
 34 35  1  0  0  0  0
 35 37  1  0  0  0  0
 35 36  1  1  0  0  0
 37 39  1  0  0  0  0
 37 38  1  6  0  0  0
 39 41  1  0  0  0  0
 39 40  1  1  0  0  0
 41 42  1  6  0  0  0
M  CHG  6  12   1  20   1  24   1  29   1  33   1  36   1
M  END
>  <CHROM.1>
-66.15191375,-49.90871991,-171.13644114,-73.73264710,-179.96752543,-145.07771881
-155.06135926,-75.88974661,-84.86432423,100.43165429,-54.56635209,-100.83568128
86.89282606,-149.56600432,-178.85812475,68.48520450,-172.77693136,-165.71950031
78.63356086,55.24407901,-137.14270506,-47.51410280,-0.37844066,-0.83790407
2.24183901,-0.07393891,0.51740932,2.50137990

>  <Name>
1NEM.B

>  <RI>
0

>  <Rbt.Current_Directory>
/home/itssahil/PROJECTS/Mol_Feturizer/New_Systems/rnas/1nem

>  <Rbt.Executable>
rbdock ($Id: //depot/dev/client3/rdock/2013.1/src/exe/rbdock.cxx#4 $)

>  <Rbt.Library>
libRbt.so (2013.1, Build901 2013/11/27)

>  <Rbt.Parameter_File>
/export/apps/rDock/src/rDock_2013.1_src/data/scripts/dock_solv.prm

>  <Rbt.Receptor>
prm/blind_docking_100.prm

>  <SCORE>
-15.6167

>  <SCORE.INTER>
-41.2864

>  <SCORE.INTER.CONST>
1

>  <SCORE.INTER.POLAR>
-4.90659

>  <SCORE.INTER.ROT>
9

>  <SCORE.INTER.SOLV>
37.4456

>  <SCORE.INTER.VDW>
-33.2508

>  <SCORE.INTER.norm>
-0.98301

>  <SCORE.INTRA>
16.3602

>  <SCORE.INTRA.DIHEDRAL>
11.7024

>  <SCORE.INTRA.DIHEDRAL.0>
22.4324

>  <SCORE.INTRA.POLAR>
0.0706153

>  <SCORE.INTRA.POLAR.0>
-1.83749

>  <SCORE.INTRA.REPUL>
0

>  <SCORE.INTRA.REPUL.0>
0

>  <SCORE.INTRA.SOLV>
2.80527

>  <SCORE.INTRA.SOLV.lig_0>
-160.638

>  <SCORE.INTRA.VDW>
8.86626

>  <SCORE.INTRA.VDW.0>
-7.61953

>  <SCORE.INTRA.norm>
0.389528

>  <SCORE.RESTR>
9.30953

>  <SCORE.RESTR.CAVITY>
9.30953

>  <SCORE.RESTR.norm>
0.221655

>  <SCORE.SYSTEM>
0

>  <SCORE.SYSTEM.CONST>
0

>  <SCORE.SYSTEM.DIHEDRAL>
0

>  <SCORE.SYSTEM.SOLV>
0

>  <SCORE.SYSTEM.norm>
0

>  <SCORE.heavy>
42

>  <SCORE.norm>
-0.371827

>  <RMSD>
2.850

$$$$
1NEM.B
 OpenBabel11021811403D
libRbt.so/2013.1/901 2013/11/27
 42 45  0  0  0  0  0  0  0  0999 V2000
    2.5952   -4.0442    2.6003 O   0  0  0  0  0  0  0  0  0  0  0  0
    2.1137   -2.7051    2.7302 C   0  0  0  0  0  0  0  0  0  0  0  0
    2.0946   -1.9449    1.4049 C   0  0  1  0  0  0  0  0  0  0  0  0
    0.8293   -2.0809    0.7645 O   0  0  0  0  0  0  0  0  0  0  0  0
    2.2566   -0.4388    1.5350 C   0  0  1  0  0  0  0  0  0  0  0  0
    3.6188   -0.1870    1.8877 O   0  0  0  0  0  0  0  0  0  0  0  0
    1.8340   -0.0330    0.1354 C   0  0  1  0  0  0  0  0  0  0  0  0
    2.7970   -0.4159   -0.8521 O   0  0  0  0  0  0  0  0  0  0  0  0
    0.5741   -0.8974    0.0078 C   0  0  2  0  0  0  0  0  0  0  0  0
    3.9110   -0.1734    3.2558 C   0  0  2  0  0  0  0  0  0  0  0  0
    3.5308    1.1935    3.8409 C   0  0  2  0  0  0  0  0  0  0  0  0
    4.1760    2.2808    3.0588 N   0  3  0  0  0  0  0  0  0  0  0  0
    3.8963    1.2715    5.3267 C   0  0  1  0  0  0  0  0  0  0  0  0
    3.0271    0.4335    6.0770 O   0  0  0  0  0  0  0  0  0  0  0  0
    5.3491    0.8466    5.5617 C   0  0  2  0  0  0  0  0  0  0  0  0
    6.2401    1.8062    5.0074 O   0  0  0  0  0  0  0  0  0  0  0  0
    5.5936   -0.5191    4.9263 C   0  0  1  0  0  0  0  0  0  0  0  0
    5.2768   -0.4647    3.5219 O   0  0  0  0  0  0  0  0  0  0  0  0
    7.0287   -0.9960    5.0649 C   0  0  0  0  0  0  0  0  0  0  0  0
    7.8929   -0.4676    3.9861 N   0  3  0  0  0  0  0  0  0  0  0  0
   -0.5623   -4.3415    0.3741 C   0  0  0  0  0  0  0  0  0  0  0  0
   -3.5069   -2.1091    0.1050 C   0  0  2  0  0  0  0  0  0  0  0  0
   -4.6244   -3.0388    0.5719 C   0  0  2  0  0  0  0  0  0  0  0  0
   -5.8083   -2.2495    0.9878 N   0  3  0  0  0  0  0  0  0  0  0  0
   -4.1467   -3.8867    1.7431 C   0  0  1  0  0  0  0  0  0  0  0  0
   -5.1669   -4.7998    2.1171 O   0  0  0  0  0  0  0  0  0  0  0  0
   -2.8834   -4.6454    1.3429 C   0  0  2  0  0  0  0  0  0  0  0  0
   -2.3917   -5.3858    2.4526 O   0  0  0  0  0  0  0  0  0  0  0  0
   -0.4073   -5.6894    0.9678 N   0  3  0  0  0  0  0  0  0  0  0  0
   -1.8206   -3.6535    0.8740 C   0  0  2  0  0  0  0  0  0  0  0  0
   -2.3333   -2.8533   -0.2107 O   0  0  0  0  0  0  0  0  0  0  0  0
   -2.4558    1.9915   -1.6795 C   0  0  2  0  0  0  0  0  0  0  0  0
   -2.1226    3.3320   -2.2138 N   0  3  0  0  0  0  0  0  0  0  0  0
   -3.7284    2.0654   -0.8434 C   0  0  0  0  0  0  0  0  0  0  0  0
   -4.0821    0.6940   -0.2853 C   0  0  2  0  0  0  0  0  0  0  0  0
   -5.3016    0.8323    0.4982 N   0  3  0  0  0  0  0  0  0  0  0  0
   -2.9352    0.1758    0.5793 C   0  0  1  0  0  0  0  0  0  0  0  0
   -3.2658   -1.1341    1.0804 O   0  0  0  0  0  0  0  0  0  0  0  0
   -1.6340    0.0986   -0.2314 C   0  0  2  0  0  0  0  0  0  0  0  0
   -0.5534   -0.2924    0.6369 O   0  0  0  0  0  0  0  0  0  0  0  0
   -1.2872    1.4457   -0.8606 C   0  0  1  0  0  0  0  0  0  0  0  0
   -0.1491    1.2985   -1.6994 O   0  0  0  0  0  0  0  0  0  0  0  0
  1  2  1  0  0  0  0
  3  2  1  1  0  0  0
  3  5  1  0  0  0  0
  3  4  1  0  0  0  0
  4  9  1  0  0  0  0
  5  7  1  0  0  0  0
  5  6  1  6  0  0  0
  7  9  1  0  0  0  0
  7  8  1  6  0  0  0
  9 40  1  1  0  0  0
 10  6  1  6  0  0  0
 10 11  1  0  0  0  0
 10 18  1  0  0  0  0
 11 13  1  0  0  0  0
 11 12  1  6  0  0  0
 13 15  1  0  0  0  0
 13 14  1  1  0  0  0
 15 17  1  0  0  0  0
 15 16  1  6  0  0  0
 17 19  1  6  0  0  0
 17 18  1  0  0  0  0
 19 20  1  0  0  0  0
 21 29  1  0  0  0  0
 22 23  1  0  0  0  0
 22 31  1  0  0  0  0
 22 38  1  1  0  0  0
 23 25  1  0  0  0  0
 23 24  1  1  0  0  0
 25 27  1  0  0  0  0
 25 26  1  6  0  0  0
 27 30  1  0  0  0  0
 27 28  1  1  0  0  0
 30 21  1  6  0  0  0
 30 31  1  0  0  0  0
 32 34  1  0  0  0  0
 32 41  1  0  0  0  0
 32 33  1  1  0  0  0
 34 35  1  0  0  0  0
 35 37  1  0  0  0  0
 35 36  1  1  0  0  0
 37 39  1  0  0  0  0
 37 38  1  6  0  0  0
 39 41  1  0  0  0  0
 39 40  1  1  0  0  0
 41 42  1  6  0  0  0
M  CHG  6  12   1  20   1  24   1  29   1  33   1  36   1
M  END
>  <CHROM.1>
-56.52505985,92.02852659,-88.94429036,-81.10823101,177.53546070,-130.62592436
164.30390641,-156.45283442,172.14298244,-85.30825556,-76.74249963,-24.47264451
-60.21665043,-143.45724305,68.97150524,-178.57942340,-49.53885693,-56.54697654
-129.66857806,59.58987253,156.86396288,146.83831808,0.34346311,-0.95678393
1.58629749,-0.03710377,0.44010505,2.76637321

>  <Name>
1NEM.B

>  <RI>
0

>  <Rbt.Current_Directory>
/home/itssahil/PROJECTS/Mol_Feturizer/New_Systems/rnas/1nem

>  <Rbt.Executable>
rbdock ($Id: //depot/dev/client3/rdock/2013.1/src/exe/rbdock.cxx#4 $)

>  <Rbt.Library>
libRbt.so (2013.1, Build901 2013/11/27)

>  <Rbt.Parameter_File>
/export/apps/rDock/src/rDock_2013.1_src/data/scripts/dock_solv.prm

>  <Rbt.Receptor>
prm/pocket_docking_2.prm

>  <SCORE>
-19.9941

>  <SCORE.INTER>
-41.6195

>  <SCORE.INTER.CONST>
1

>  <SCORE.INTER.POLAR>
-6.21404

>  <SCORE.INTER.ROT>
9

>  <SCORE.INTER.SOLV>
38.6169

>  <SCORE.INTER.VDW>
-29.5052

>  <SCORE.INTER.norm>
-0.99094

>  <SCORE.INTRA>
20.113

>  <SCORE.INTRA.DIHEDRAL>
17.8183

>  <SCORE.INTRA.DIHEDRAL.0>
22.4324

>  <SCORE.INTRA.POLAR>
0.976557

>  <SCORE.INTRA.POLAR.0>
-1.83749

>  <SCORE.INTRA.REPUL>
0

>  <SCORE.INTRA.REPUL.0>
0

>  <SCORE.INTRA.SOLV>
3.81683

>  <SCORE.INTRA.SOLV.lig_0>
-160.638

>  <SCORE.INTRA.VDW>
5.97518

>  <SCORE.INTRA.VDW.0>
-7.61953

>  <SCORE.INTRA.norm>
0.478882

>  <SCORE.RESTR>
1.5124

>  <SCORE.RESTR.CAVITY>
1.5124

>  <SCORE.RESTR.norm>
0.0360094

>  <SCORE.SYSTEM>
0

>  <SCORE.SYSTEM.CONST>
0

>  <SCORE.SYSTEM.DIHEDRAL>
0

>  <SCORE.SYSTEM.SOLV>
0

>  <SCORE.SYSTEM.norm>
0

>  <SCORE.heavy>
42

>  <SCORE.norm>
-0.476049

>  <RMSD>
2.855

$$$$
1NEM.B
 OpenBabel11021811403D
libRbt.so/2013.1/901 2013/11/27
 42 45  0  0  0  0  0  0  0  0999 V2000
    1.9049   -5.6386    2.0183 O   0  0  0  0  0  0  0  0  0  0  0  0
    1.6382   -4.3923    2.6647 C   0  0  0  0  0  0  0  0  0  0  0  0
    1.5368   -3.2215    1.6882 C   0  0  1  0  0  0  0  0  0  0  0  0
    0.3256   -3.2920    0.9415 O   0  0  0  0  0  0  0  0  0  0  0  0
    1.4593   -1.8525    2.3450 C   0  0  1  0  0  0  0  0  0  0  0  0
    2.7559   -1.5597    2.8708 O   0  0  0  0  0  0  0  0  0  0  0  0
    1.0165   -1.0380    1.1441 C   0  0  1  0  0  0  0  0  0  0  0  0
    2.0534   -0.9109    0.1653 O   0  0  0  0  0  0  0  0  0  0  0  0
   -0.0900   -1.9634    0.6244 C   0  0  2  0  0  0  0  0  0  0  0  0
    2.8643   -0.3928    3.6349 C   0  0  2  0  0  0  0  0  0  0  0  0
    2.6325    0.8266    2.7322 C   0  0  2  0  0  0  0  0  0  0  0  0
    3.5394    0.7701    1.5555 N   0  3  0  0  0  0  0  0  0  0  0  0
    2.8075    2.1292    3.5197 C   0  0  1  0  0  0  0  0  0  0  0  0
    1.7253    2.2874    4.4277 O   0  0  0  0  0  0  0  0  0  0  0  0
    4.1307    2.1354    4.2912 C   0  0  2  0  0  0  0  0  0  0  0  0
    5.2279    2.2083    3.3895 O   0  0  0  0  0  0  0  0  0  0  0  0
    4.2366    0.8708    5.1389 C   0  0  1  0  0  0  0  0  0  0  0  0
    4.1196   -0.2907    4.2944 O   0  0  0  0  0  0  0  0  0  0  0  0
    5.5469    0.7673    5.8993 C   0  0  0  0  0  0  0  0  0  0  0  0
    5.5851   -0.4256    6.7742 N   0  3  0  0  0  0  0  0  0  0  0  0
   -7.7929   -4.4200    2.0577 C   0  0  0  0  0  0  0  0  0  0  0  0
   -4.8736   -2.4126    3.1419 C   0  0  2  0  0  0  0  0  0  0  0  0
   -4.3173   -3.2852    4.2644 C   0  0  2  0  0  0  0  0  0  0  0  0
   -2.9048   -2.9292    4.5391 N   0  3  0  0  0  0  0  0  0  0  0  0
   -4.4006   -4.7554    3.8766 C   0  0  1  0  0  0  0  0  0  0  0  0
   -3.9532   -5.5590    4.9576 O   0  0  0  0  0  0  0  0  0  0  0  0
   -5.8429   -5.1091    3.5208 C   0  0  2  0  0  0  0  0  0  0  0  0
   -5.9172   -6.4624    3.0910 O   0  0  0  0  0  0  0  0  0  0  0  0
   -8.3135   -3.3619    1.1619 N   0  3  0  0  0  0  0  0  0  0  0  0
   -6.3331   -4.1871    2.4060 C   0  0  2  0  0  0  0  0  0  0  0  0
   -6.2015   -2.8086    2.8088 O   0  0  0  0  0  0  0  0  0  0  0  0
   -3.2950    0.5366   -0.8838 C   0  0  2  0  0  0  0  0  0  0  0  0
   -2.9425    1.8418   -1.4885 N   0  3  0  0  0  0  0  0  0  0  0  0
   -4.4834    0.7020    0.0566 C   0  0  0  0  0  0  0  0  0  0  0  0
   -4.8557   -0.6323    0.6877 C   0  0  2  0  0  0  0  0  0  0  0  0
   -5.9926   -0.4070    1.5690 N   0  3  0  0  0  0  0  0  0  0  0  0
   -3.6648   -1.1868    1.4659 C   0  0  1  0  0  0  0  0  0  0  0  0
   -4.0162   -2.4626    2.0363 O   0  0  0  0  0  0  0  0  0  0  0  0
   -2.4460   -1.3563    0.5484 C   0  0  2  0  0  0  0  0  0  0  0  0
   -1.3143   -1.7802    1.3320 O   0  0  0  0  0  0  0  0  0  0  0  0
   -2.0879   -0.0479   -0.1520 C   0  0  1  0  0  0  0  0  0  0  0  0
   -1.0374   -0.2793   -1.0812 O   0  0  0  0  0  0  0  0  0  0  0  0
  1  2  1  0  0  0  0
  3  2  1  1  0  0  0
  3  5  1  0  0  0  0
  3  4  1  0  0  0  0
  4  9  1  0  0  0  0
  5  7  1  0  0  0  0
  5  6  1  6  0  0  0
  7  9  1  0  0  0  0
  7  8  1  6  0  0  0
  9 40  1  1  0  0  0
 10  6  1  6  0  0  0
 10 11  1  0  0  0  0
 10 18  1  0  0  0  0
 11 13  1  0  0  0  0
 11 12  1  6  0  0  0
 13 15  1  0  0  0  0
 13 14  1  1  0  0  0
 15 17  1  0  0  0  0
 15 16  1  6  0  0  0
 17 19  1  6  0  0  0
 17 18  1  0  0  0  0
 19 20  1  0  0  0  0
 21 29  1  0  0  0  0
 22 23  1  0  0  0  0
 22 31  1  0  0  0  0
 22 38  1  6  0  0  0
 23 25  1  0  0  0  0
 23 24  1  6  0  0  0
 25 27  1  0  0  0  0
 25 26  1  1  0  0  0
 27 30  1  0  0  0  0
 27 28  1  6  0  0  0
 30 21  1  1  0  0  0
 30 31  1  0  0  0  0
 32 34  1  0  0  0  0
 32 41  1  0  0  0  0
 32 33  1  1  0  0  0
 34 35  1  0  0  0  0
 35 37  1  0  0  0  0
 35 36  1  1  0  0  0
 37 39  1  0  0  0  0
 37 38  1  6  0  0  0
 39 41  1  0  0  0  0
 39 40  1  1  0  0  0
 41 42  1  6  0  0  0
M  CHG  6  12   1  20   1  24   1  29   1  33   1  36   1
M  END
>  <CHROM.1>
63.44152499,72.42207752,-173.93315279,-66.59864703,-177.25786039,-125.96738079
-60.79728662,64.28834831,-103.74583439,176.51730214,-65.46060653,169.55010671
-16.42025866,-131.49919474,-172.40947065,-148.02613491,-71.81955272,34.39063150
61.39626639,-74.22145442,-179.06288819,117.02447503,-0.97529697,-1.52077049
2.38113781,-0.18856248,0.34783697,2.48979836

>  <Name>
1NEM.B

>  <RI>
0

>  <Rbt.Current_Directory>
/home/itssahil/PROJECTS/Mol_Feturizer/New_Systems/rnas/1nem

>  <Rbt.Executable>
rbdock ($Id: //depot/dev/client3/rdock/2013.1/src/exe/rbdock.cxx#4 $)

>  <Rbt.Library>
libRbt.so (2013.1, Build901 2013/11/27)

>  <Rbt.Parameter_File>
/export/apps/rDock/src/rDock_2013.1_src/data/scripts/dock_solv.prm

>  <Rbt.Receptor>
prm/blind_docking_20.prm

>  <SCORE>
-13.4361

>  <SCORE.INTER>
-34.9681

>  <SCORE.INTER.CONST>
1

>  <SCORE.INTER.POLAR>
-4.54219

>  <SCORE.INTER.ROT>
9

>  <SCORE.INTER.SOLV>
42.0736

>  <SCORE.INTER.VDW>
-31.796

>  <SCORE.INTER.norm>
-0.832575

>  <SCORE.INTRA>
16.8222

>  <SCORE.INTRA.DIHEDRAL>
16.7134

>  <SCORE.INTRA.DIHEDRAL.0>
22.4324

>  <SCORE.INTRA.POLAR>
-0.430635

>  <SCORE.INTRA.POLAR.0>
-1.83749

>  <SCORE.INTRA.REPUL>
0.0699352

>  <SCORE.INTRA.REPUL.0>
0

>  <SCORE.INTRA.SOLV>
0.387609

>  <SCORE.INTRA.SOLV.lig_0>
-160.638

>  <SCORE.INTRA.VDW>
9.38617

>  <SCORE.INTRA.VDW.0>
-7.61953

>  <SCORE.INTRA.norm>
0.400528

>  <SCORE.RESTR>
4.70989

>  <SCORE.RESTR.CAVITY>
4.70989

>  <SCORE.RESTR.norm>
0.11214

>  <SCORE.SYSTEM>
0

>  <SCORE.SYSTEM.CONST>
0

>  <SCORE.SYSTEM.DIHEDRAL>
0

>  <SCORE.SYSTEM.SOLV>
0

>  <SCORE.SYSTEM.norm>
0

>  <SCORE.heavy>
42

>  <SCORE.norm>
-0.319907

>  <RMSD>
2.864

$$$$
1NEM.B
 OpenBabel11021811403D
libRbt.so/2013.1/901 2013/11/27
 42 45  0  0  0  0  0  0  0  0999 V2000
    2.3212   -5.5195    2.5781 O   0  0  0  0  0  0  0  0  0  0  0  0
    2.1888   -4.1348    2.9053 C   0  0  0  0  0  0  0  0  0  0  0  0
    1.8863   -3.2591    1.6902 C   0  0  1  0  0  0  0  0  0  0  0  0
    0.6929   -3.6910    1.0429 O   0  0  0  0  0  0  0  0  0  0  0  0
    1.5964   -1.8023    2.0145 C   0  0  1  0  0  0  0  0  0  0  0  0
    2.8351   -1.1964    2.3912 O   0  0  0  0  0  0  0  0  0  0  0  0
    1.0118   -1.3744    0.6814 C   0  0  1  0  0  0  0  0  0  0  0  0
    2.0016   -1.3245   -0.3516 O   0  0  0  0  0  0  0  0  0  0  0  0
    0.0634   -2.5561    0.4477 C   0  0  2  0  0  0  0  0  0  0  0  0
    2.7979   -0.3568    3.5096 C   0  0  2  0  0  0  0  0  0  0  0  0
    2.5374    1.0847    3.0518 C   0  0  2  0  0  0  0  0  0  0  0  0
    3.5277    1.4776    2.0149 N   0  3  0  0  0  0  0  0  0  0  0  0
    2.5541    2.0470    4.2440 C   0  0  1  0  0  0  0  0  0  0  0  0
    1.4009    1.8328    5.0469 O   0  0  0  0  0  0  0  0  0  0  0  0
    3.8144    1.8536    5.0929 C   0  0  2  0  0  0  0  0  0  0  0  0
    4.9643    2.2833    4.3750 O   0  0  0  0  0  0  0  0  0  0  0  0
    3.9571    0.3824    5.4722 C   0  0  1  0  0  0  0  0  0  0  0  0
    3.9911   -0.4252    4.2795 O   0  0  0  0  0  0  0  0  0  0  0  0
    5.2138    0.0892    6.2727 C   0  0  0  0  0  0  0  0  0  0  0  0
    6.3248   -0.3683    5.4088 N   0  3  0  0  0  0  0  0  0  0  0  0
   -2.4510   -2.8654    4.3500 C   0  0  0  0  0  0  0  0  0  0  0  0
   -3.7053   -4.5126    1.2774 C   0  0  2  0  0  0  0  0  0  0  0  0
   -5.1431   -4.8309    1.6804 C   0  0  2  0  0  0  0  0  0  0  0  0
   -5.9729   -5.0694    0.4755 N   0  3  0  0  0  0  0  0  0  0  0  0
   -5.7325   -3.6754    2.4781 C   0  0  1  0  0  0  0  0  0  0  0  0
   -7.0403   -4.0151    2.9126 O   0  0  0  0  0  0  0  0  0  0  0  0
   -4.8402   -3.3771    3.6809 C   0  0  2  0  0  0  0  0  0  0  0  0
   -5.3463   -2.2548    4.3922 O   0  0  0  0  0  0  0  0  0  0  0  0
   -2.3431   -4.0678    5.2076 N   0  3  0  0  0  0  0  0  0  0  0  0
   -3.4198   -3.0850    3.2011 C   0  0  2  0  0  0  0  0  0  0  0  0
   -2.9213   -4.1926    2.4237 O   0  0  0  0  0  0  0  0  0  0  0  0
   -3.1430    0.7276    0.4506 C   0  0  2  0  0  0  0  0  0  0  0  0
   -3.0065    2.1042    0.9794 N   0  3  0  0  0  0  0  0  0  0  0  0
   -4.5069    0.1585    0.8248 C   0  0  0  0  0  0  0  0  0  0  0  0
   -4.6605   -1.2581    0.2892 C   0  0  2  0  0  0  0  0  0  0  0  0
   -5.9781   -1.7412    0.6774 N   0  3  0  0  0  0  0  0  0  0  0  0
   -3.5624   -2.1502    0.8635 C   0  0  1  0  0  0  0  0  0  0  0  0
   -3.6979   -3.4819    0.3300 O   0  0  0  0  0  0  0  0  0  0  0  0
   -2.1736   -1.5987    0.5125 C   0  0  2  0  0  0  0  0  0  0  0  0
   -1.1651   -2.4017    1.1549 O   0  0  0  0  0  0  0  0  0  0  0  0
   -2.0123   -0.1539    0.9785 C   0  0  1  0  0  0  0  0  0  0  0  0
   -0.7647    0.3544    0.5251 O   0  0  0  0  0  0  0  0  0  0  0  0
  1  2  1  0  0  0  0
  3  2  1  1  0  0  0
  3  5  1  0  0  0  0
  3  4  1  0  0  0  0
  4  9  1  0  0  0  0
  5  7  1  0  0  0  0
  5  6  1  6  0  0  0
  7  9  1  0  0  0  0
  7  8  1  6  0  0  0
  9 40  1  1  0  0  0
 10  6  1  6  0  0  0
 10 11  1  0  0  0  0
 10 18  1  0  0  0  0
 11 13  1  0  0  0  0
 11 12  1  6  0  0  0
 13 15  1  0  0  0  0
 13 14  1  1  0  0  0
 15 17  1  0  0  0  0
 15 16  1  6  0  0  0
 17 19  1  6  0  0  0
 17 18  1  0  0  0  0
 19 20  1  0  0  0  0
 21 29  1  0  0  0  0
 22 23  1  0  0  0  0
 22 31  1  0  0  0  0
 22 38  1  6  0  0  0
 23 25  1  0  0  0  0
 23 24  1  6  0  0  0
 25 27  1  0  0  0  0
 25 26  1  1  0  0  0
 27 30  1  0  0  0  0
 27 28  1  6  0  0  0
 30 21  1  1  0  0  0
 30 31  1  0  0  0  0
 32 34  1  0  0  0  0
 32 41  1  0  0  0  0
 32 33  1  1  0  0  0
 34 35  1  0  0  0  0
 35 37  1  0  0  0  0
 35 36  1  1  0  0  0
 37 39  1  0  0  0  0
 37 38  1  6  0  0  0
 39 41  1  0  0  0  0
 39 40  1  1  0  0  0
 41 42  1  6  0  0  0
M  CHG  6  12   1  20   1  24   1  29   1  33   1  36   1
M  END
>  <CHROM.1>
-90.99932276,57.80388458,-136.30895113,-91.80371354,171.32143994,-161.86684485
48.32450934,-90.68839630,174.51251128,-95.10689492,-121.66063980,61.48590552
147.76047442,92.59219570,91.42007996,178.88319161,-61.93219050,-41.11332939
-52.83951600,-129.16570339,146.72703506,43.78788004,-0.65220041,-1.57779357
2.43340547,-0.31946743,0.30670342,2.99283057

>  <Name>
1NEM.B

>  <RI>
0

>  <Rbt.Current_Directory>
/home/itssahil/PROJECTS/Mol_Feturizer/New_Systems/rnas/1nem

>  <Rbt.Executable>
rbdock ($Id: //depot/dev/client3/rdock/2013.1/src/exe/rbdock.cxx#4 $)

>  <Rbt.Library>
libRbt.so (2013.1, Build901 2013/11/27)

>  <Rbt.Parameter_File>
/export/apps/rDock/src/rDock_2013.1_src/data/scripts/dock_solv.prm

>  <Rbt.Receptor>
prm/blind_docking_60.prm

>  <SCORE>
-2.56135

>  <SCORE.INTER>
-34.7607

>  <SCORE.INTER.CONST>
1

>  <SCORE.INTER.POLAR>
-5.14192

>  <SCORE.INTER.ROT>
9

>  <SCORE.INTER.SOLV>
41.07

>  <SCORE.INTER.VDW>
-29.3241

>  <SCORE.INTER.norm>
-0.827637

>  <SCORE.INTRA>
29.4615

>  <SCORE.INTRA.DIHEDRAL>
25.7515

>  <SCORE.INTRA.DIHEDRAL.0>
22.4324

>  <SCORE.INTRA.POLAR>
0.528391

>  <SCORE.INTRA.POLAR.0>
-1.83749

>  <SCORE.INTRA.REPUL>
0.00187689

>  <SCORE.INTRA.REPUL.0>
0

>  <SCORE.INTRA.SOLV>
5.08824

>  <SCORE.INTRA.SOLV.lig_0>
-160.638

>  <SCORE.INTRA.VDW>
12.2357

>  <SCORE.INTRA.VDW.0>
-7.61953

>  <SCORE.INTRA.norm>
0.701464

>  <SCORE.RESTR>
2.7379

>  <SCORE.RESTR.CAVITY>
2.7379

>  <SCORE.RESTR.norm>
0.0651881

>  <SCORE.SYSTEM>
0

>  <SCORE.SYSTEM.CONST>
0

>  <SCORE.SYSTEM.DIHEDRAL>
0

>  <SCORE.SYSTEM.SOLV>
0

>  <SCORE.SYSTEM.norm>
0

>  <SCORE.heavy>
42

>  <SCORE.norm>
-0.0609845

>  <RMSD>
2.914

$$$$
1NEM.B
 OpenBabel11021811403D
libRbt.so/2013.1/901 2013/11/27
 42 45  0  0  0  0  0  0  0  0999 V2000
    2.9233   -3.8880    3.0970 O   0  0  0  0  0  0  0  0  0  0  0  0
    1.6367   -4.1400    2.5284 C   0  0  0  0  0  0  0  0  0  0  0  0
    1.2626   -3.1453    1.4305 C   0  0  1  0  0  0  0  0  0  0  0  0
   -0.1416   -3.1646    1.1908 O   0  0  0  0  0  0  0  0  0  0  0  0
    1.5352   -1.6895    1.7737 C   0  0  1  0  0  0  0  0  0  0  0  0
    2.9519   -1.5023    1.7356 O   0  0  0  0  0  0  0  0  0  0  0  0
    0.7358   -1.0308    0.6651 C   0  0  1  0  0  0  0  0  0  0  0  0
    1.3380   -1.2179   -0.6200 O   0  0  0  0  0  0  0  0  0  0  0  0
   -0.5485   -1.8614    0.7728 C   0  0  2  0  0  0  0  0  0  0  0  0
    3.4317   -0.3021    2.2710 C   0  0  2  0  0  0  0  0  0  0  0  0
    4.1991   -0.5972    3.5669 C   0  0  2  0  0  0  0  0  0  0  0  0
    3.3506   -1.3931    4.4926 N   0  3  0  0  0  0  0  0  0  0  0  0
    4.6860    0.7005    4.2199 C   0  0  1  0  0  0  0  0  0  0  0  0
    5.7313    1.2650    3.4394 O   0  0  0  0  0  0  0  0  0  0  0  0
    3.5441    1.7121    4.3582 C   0  0  2  0  0  0  0  0  0  0  0  0
    2.5964    1.2592    5.3168 O   0  0  0  0  0  0  0  0  0  0  0  0
    2.8644    1.9070    3.0058 C   0  0  1  0  0  0  0  0  0  0  0  0
    2.3930    0.6380    2.5123 O   0  0  0  0  0  0  0  0  0  0  0  0
    1.6812    2.8571    3.0614 C   0  0  0  0  0  0  0  0  0  0  0  0
    1.1655    3.1767    1.7116 N   0  3  0  0  0  0  0  0  0  0  0  0
   -6.5418   -4.9029    1.6060 C   0  0  0  0  0  0  0  0  0  0  0  0
   -4.8097   -2.6947    4.0248 C   0  0  2  0  0  0  0  0  0  0  0  0
   -4.4983   -3.6783    5.1502 C   0  0  2  0  0  0  0  0  0  0  0  0
   -3.4168   -3.1455    6.0127 N   0  3  0  0  0  0  0  0  0  0  0  0
   -4.0672   -5.0190    4.5710 C   0  0  1  0  0  0  0  0  0  0  0  0
   -3.8558   -5.9467    5.6242 O   0  0  0  0  0  0  0  0  0  0  0  0
   -5.1466   -5.5371    3.6233 C   0  0  2  0  0  0  0  0  0  0  0  0
   -4.7214   -6.7548    3.0251 O   0  0  0  0  0  0  0  0  0  0  0  0
   -7.8027   -5.1344    2.3473 N   0  3  0  0  0  0  0  0  0  0  0  0
   -5.4138   -4.4960    2.5380 C   0  0  2  0  0  0  0  0  0  0  0  0
   -5.7841   -3.2380    3.1380 O   0  0  0  0  0  0  0  0  0  0  0  0
   -4.2579    0.6045    0.3725 C   0  0  2  0  0  0  0  0  0  0  0  0
   -4.2795    1.9183   -0.3107 N   0  3  0  0  0  0  0  0  0  0  0  0
   -5.0867    0.6680    1.6504 C   0  0  0  0  0  0  0  0  0  0  0  0
   -5.0717   -0.6760    2.3650 C   0  0  2  0  0  0  0  0  0  0  0  0
   -5.8786   -0.5493    3.5704 N   0  3  0  0  0  0  0  0  0  0  0  0
   -3.6353   -1.0628    2.7094 C   0  0  1  0  0  0  0  0  0  0  0  0
   -3.6273   -2.3486    3.3599 O   0  0  0  0  0  0  0  0  0  0  0  0
   -2.7700   -1.1261    1.4431 C   0  0  2  0  0  0  0  0  0  0  0  0
   -1.4029   -1.3897    1.8123 O   0  0  0  0  0  0  0  0  0  0  0  0
   -2.8179    0.1880    0.6676 C   0  0  1  0  0  0  0  0  0  0  0  0
   -2.1068    0.0437   -0.5547 O   0  0  0  0  0  0  0  0  0  0  0  0
  1  2  1  0  0  0  0
  3  2  1  1  0  0  0
  3  5  1  0  0  0  0
  3  4  1  0  0  0  0
  4  9  1  0  0  0  0
  5  7  1  0  0  0  0
  5  6  1  6  0  0  0
  7  9  1  0  0  0  0
  7  8  1  6  0  0  0
  9 40  1  1  0  0  0
 10  6  1  1  0  0  0
 10 11  1  0  0  0  0
 10 18  1  0  0  0  0
 11 13  1  0  0  0  0
 11 12  1  1  0  0  0
 13 15  1  0  0  0  0
 13 14  1  6  0  0  0
 15 17  1  0  0  0  0
 15 16  1  1  0  0  0
 17 19  1  1  0  0  0
 17 18  1  0  0  0  0
 19 20  1  0  0  0  0
 21 29  1  0  0  0  0
 22 23  1  0  0  0  0
 22 31  1  0  0  0  0
 22 38  1  6  0  0  0
 23 25  1  0  0  0  0
 23 24  1  1  0  0  0
 25 27  1  0  0  0  0
 25 26  1  1  0  0  0
 27 30  1  0  0  0  0
 27 28  1  6  0  0  0
 30 21  1  6  0  0  0
 30 31  1  0  0  0  0
 32 34  1  0  0  0  0
 32 41  1  0  0  0  0
 32 33  1  1  0  0  0
 34 35  1  0  0  0  0
 35 37  1  0  0  0  0
 35 36  1  1  0  0  0
 37 39  1  0  0  0  0
 37 38  1  6  0  0  0
 39 41  1  0  0  0  0
 39 40  1  1  0  0  0
 41 42  1  6  0  0  0
M  CHG  6  12   1  20   1  24   1  29   1  33   1  36   1
M  END
>  <CHROM.1>
129.25669156,-161.93484679,-168.06568627,110.90237857,-55.70547543,-117.34694971
146.02997341,59.95954875,77.43319379,171.82353011,-58.15550379,58.10281858
-58.76703782,-153.97719590,49.69857147,-169.23287678,68.12370537,-146.44340674
142.95481088,-25.52022925,162.34316329,-60.67666138,-1.17985745,-1.55078356
2.61494708,-0.40522438,0.18875644,2.69060076

>  <Name>
1NEM.B

>  <RI>
0

>  <Rbt.Current_Directory>
/home/itssahil/PROJECTS/Mol_Feturizer/New_Systems/rnas/1nem

>  <Rbt.Executable>
rbdock ($Id: //depot/dev/client3/rdock/2013.1/src/exe/rbdock.cxx#4 $)

>  <Rbt.Library>
libRbt.so (2013.1, Build901 2013/11/27)

>  <Rbt.Parameter_File>
/export/apps/rDock/src/rDock_2013.1_src/data/scripts/dock_solv.prm

>  <Rbt.Receptor>
prm/blind_docking_60.prm

>  <SCORE>
-8.69891

>  <SCORE.INTER>
-41.2206

>  <SCORE.INTER.CONST>
1

>  <SCORE.INTER.POLAR>
-5.59873

>  <SCORE.INTER.ROT>
9

>  <SCORE.INTER.SOLV>
45.3045

>  <SCORE.INTER.VDW>
-33.5195

>  <SCORE.INTER.norm>
-0.981443

>  <SCORE.INTRA>
27.8444

>  <SCORE.INTRA.DIHEDRAL>
19.0787

>  <SCORE.INTRA.DIHEDRAL.0>
22.4324

>  <SCORE.INTRA.POLAR>
0.583451

>  <SCORE.INTRA.POLAR.0>
-1.83749

>  <SCORE.INTRA.REPUL>
0.000854983

>  <SCORE.INTRA.REPUL.0>
0

>  <SCORE.INTRA.SOLV>
-0.247321

>  <SCORE.INTRA.SOLV.lig_0>
-160.638

>  <SCORE.INTRA.VDW>
16.4407

>  <SCORE.INTRA.VDW.0>
-7.61953

>  <SCORE.INTRA.norm>
0.662963

>  <SCORE.RESTR>
4.67727

>  <SCORE.RESTR.CAVITY>
4.67727

>  <SCORE.RESTR.norm>
0.111364

>  <SCORE.SYSTEM>
0

>  <SCORE.SYSTEM.CONST>
0

>  <SCORE.SYSTEM.DIHEDRAL>
0

>  <SCORE.SYSTEM.SOLV>
0

>  <SCORE.SYSTEM.norm>
0

>  <SCORE.heavy>
42

>  <SCORE.norm>
-0.207117

>  <RMSD>
2.941

$$$$
1NEM.B
 OpenBabel11021811403D
libRbt.so/2013.1/901 2013/11/27
 42 45  0  0  0  0  0  0  0  0999 V2000
    2.1742   -2.9046    0.5258 O   0  0  0  0  0  0  0  0  0  0  0  0
    3.1187   -2.0202   -0.0807 C   0  0  0  0  0  0  0  0  0  0  0  0
    2.6653   -0.5611   -0.0688 C   0  0  1  0  0  0  0  0  0  0  0  0
    1.4199   -0.4152   -0.7449 O   0  0  0  0  0  0  0  0  0  0  0  0
    2.3768    0.0024    1.3136 C   0  0  1  0  0  0  0  0  0  0  0  0
    3.6339    0.1806    1.9704 O   0  0  0  0  0  0  0  0  0  0  0  0
    1.6414    1.2653    0.9062 C   0  0  1  0  0  0  0  0  0  0  0  0
    2.5121    2.2257    0.2992 O   0  0  0  0  0  0  0  0  0  0  0  0
    0.7022    0.6642   -0.1461 C   0  0  2  0  0  0  0  0  0  0  0  0
    4.7516    0.3171    1.1401 C   0  0  2  0  0  0  0  0  0  0  0  0
    6.0037    0.5144    2.0054 C   0  0  2  0  0  0  0  0  0  0  0  0
    5.7959    1.6396    2.9546 N   0  3  0  0  0  0  0  0  0  0  0  0
    7.2422    0.7333    1.1305 C   0  0  1  0  0  0  0  0  0  0  0  0
    7.5855   -0.4811    0.4762 O   0  0  0  0  0  0  0  0  0  0  0  0
    6.9958    1.8272    0.0870 C   0  0  2  0  0  0  0  0  0  0  0  0
    6.8768    3.0953    0.7195 O   0  0  0  0  0  0  0  0  0  0  0  0
    5.7231    1.5138   -0.6945 C   0  0  1  0  0  0  0  0  0  0  0  0
    4.6132    1.3882    0.2156 O   0  0  0  0  0  0  0  0  0  0  0  0
    5.3713    2.5785   -1.7185 C   0  0  0  0  0  0  0  0  0  0  0  0
    5.6979    2.1491   -3.0965 N   0  3  0  0  0  0  0  0  0  0  0  0
   -4.0026   -2.5481    4.3958 C   0  0  0  0  0  0  0  0  0  0  0  0
   -1.5456   -2.4018    1.6266 C   0  0  2  0  0  0  0  0  0  0  0  0
   -1.0875   -3.8569    1.5627 C   0  0  2  0  0  0  0  0  0  0  0  0
   -0.4599   -4.1401    0.2500 N   0  3  0  0  0  0  0  0  0  0  0  0
   -2.2737   -4.7899    1.7664 C   0  0  1  0  0  0  0  0  0  0  0  0
   -1.8235   -6.1358    1.7824 O   0  0  0  0  0  0  0  0  0  0  0  0
   -2.9689   -4.4526    3.0836 C   0  0  2  0  0  0  0  0  0  0  0  0
   -4.1183   -5.2732    3.2479 O   0  0  0  0  0  0  0  0  0  0  0  0
   -4.8096   -1.3166    4.2366 N   0  3  0  0  0  0  0  0  0  0  0  0
   -3.3822   -2.9821    3.0793 C   0  0  2  0  0  0  0  0  0  0  0  0
   -2.2313   -2.1442    2.8491 O   0  0  0  0  0  0  0  0  0  0  0  0
   -3.4207    1.5830   -1.2961 C   0  0  2  0  0  0  0  0  0  0  0  0
   -3.8438    2.9945   -1.4447 N   0  3  0  0  0  0  0  0  0  0  0  0
   -4.4855    0.7967   -0.5397 C   0  0  0  0  0  0  0  0  0  0  0  0
   -4.0628   -0.6566   -0.3774 C   0  0  2  0  0  0  0  0  0  0  0  0
   -5.1182   -1.3497    0.3478 N   0  3  0  0  0  0  0  0  0  0  0  0
   -2.7410   -0.7291    0.3835 C   0  0  1  0  0  0  0  0  0  0  0  0
   -2.3338   -2.1057    0.5081 O   0  0  0  0  0  0  0  0  0  0  0  0
   -1.6478    0.0623   -0.3477 C   0  0  2  0  0  0  0  0  0  0  0  0
   -0.4460    0.0611    0.4463 O   0  0  0  0  0  0  0  0  0  0  0  0
   -2.0703    1.5100   -0.5852 C   0  0  1  0  0  0  0  0  0  0  0  0
   -1.0856    2.1688   -1.3706 O   0  0  0  0  0  0  0  0  0  0  0  0
  1  2  1  0  0  0  0
  3  2  1  1  0  0  0
  3  5  1  0  0  0  0
  3  4  1  0  0  0  0
  4  9  1  0  0  0  0
  5  7  1  0  0  0  0
  5  6  1  6  0  0  0
  7  9  1  0  0  0  0
  7  8  1  6  0  0  0
  9 40  1  1  0  0  0
 10  6  1  1  0  0  0
 10 11  1  0  0  0  0
 10 18  1  0  0  0  0
 11 13  1  0  0  0  0
 11 12  1  1  0  0  0
 13 15  1  0  0  0  0
 13 14  1  6  0  0  0
 15 17  1  0  0  0  0
 15 16  1  1  0  0  0
 17 19  1  6  0  0  0
 17 18  1  0  0  0  0
 19 20  1  0  0  0  0
 21 29  1  0  0  0  0
 22 23  1  0  0  0  0
 22 31  1  0  0  0  0
 22 38  1  6  0  0  0
 23 25  1  0  0  0  0
 23 24  1  6  0  0  0
 25 27  1  0  0  0  0
 25 26  1  1  0  0  0
 27 30  1  0  0  0  0
 27 28  1  6  0  0  0
 30 21  1  1  0  0  0
 30 31  1  0  0  0  0
 32 34  1  0  0  0  0
 32 41  1  0  0  0  0
 32 33  1  1  0  0  0
 34 35  1  0  0  0  0
 35 37  1  0  0  0  0
 35 36  1  1  0  0  0
 37 39  1  0  0  0  0
 37 38  1  6  0  0  0
 39 41  1  0  0  0  0
 39 40  1  1  0  0  0
 41 42  1  6  0  0  0
M  CHG  6  12   1  20   1  24   1  29   1  33   1  36   1
M  END
>  <CHROM.1>
-58.98996490,-58.37114113,23.34882498,179.35180805,-47.10890150,-94.91179949
44.68406542,65.80005662,175.08865901,103.92657147,61.23417940,-160.04854823
-43.64319882,-174.95628552,-131.84445762,-66.87310695,178.21292284,-149.67458354
-173.77601242,-152.10190219,175.02665605,66.44658672,0.64527937,-0.51952036
0.73070491,-0.40892747,0.06809358,2.60960587

>  <Name>
1NEM.B

>  <RI>
0

>  <Rbt.Current_Directory>
/home/itssahil/PROJECTS/Mol_Feturizer/New_Systems/rnas/1nem

>  <Rbt.Executable>
rbdock ($Id: //depot/dev/client3/rdock/2013.1/src/exe/rbdock.cxx#4 $)

>  <Rbt.Library>
libRbt.so (2013.1, Build901 2013/11/27)

>  <Rbt.Parameter_File>
/export/apps/rDock/src/rDock_2013.1_src/data/scripts/dock_solv.prm

>  <Rbt.Receptor>
prm/pocket_docking_4.prm

>  <SCORE>
-39.6355

>  <SCORE.INTER>
-50.883

>  <SCORE.INTER.CONST>
1

>  <SCORE.INTER.POLAR>
-7.06651

>  <SCORE.INTER.ROT>
9

>  <SCORE.INTER.SOLV>
39.0282

>  <SCORE.INTER.VDW>
-32.9764

>  <SCORE.INTER.norm>
-1.2115

>  <SCORE.INTRA>
11.1662

>  <SCORE.INTRA.DIHEDRAL>
4.29209

>  <SCORE.INTRA.DIHEDRAL.0>
22.4324

>  <SCORE.INTRA.POLAR>
-0.160352

>  <SCORE.INTRA.POLAR.0>
-1.83749

>  <SCORE.INTRA.REPUL>
0

>  <SCORE.INTRA.REPUL.0>
0

>  <SCORE.INTRA.SOLV>
-2.20608

>  <SCORE.INTRA.SOLV.lig_0>
-160.638

>  <SCORE.INTRA.VDW>
10.6684

>  <SCORE.INTRA.VDW.0>
-7.61953

>  <SCORE.INTRA.norm>
0.265863

>  <SCORE.RESTR>
0.0813274

>  <SCORE.RESTR.CAVITY>
0.0813274

>  <SCORE.RESTR.norm>
0.00193637

>  <SCORE.SYSTEM>
0

>  <SCORE.SYSTEM.CONST>
0

>  <SCORE.SYSTEM.DIHEDRAL>
0

>  <SCORE.SYSTEM.SOLV>
0

>  <SCORE.SYSTEM.norm>
0

>  <SCORE.heavy>
42

>  <SCORE.norm>
-0.943701

>  <RMSD>
2.981

$$$$
1NEM.B
 OpenBabel11021811403D
libRbt.so/2013.1/901 2013/11/27
 42 45  0  0  0  0  0  0  0  0999 V2000
    1.3858   -4.5397    2.8669 O   0  0  0  0  0  0  0  0  0  0  0  0
    2.2605   -3.5161    2.3882 C   0  0  0  0  0  0  0  0  0  0  0  0
    1.6314   -2.6552    1.2937 C   0  0  1  0  0  0  0  0  0  0  0  0
    0.2731   -3.0271    1.0788 O   0  0  0  0  0  0  0  0  0  0  0  0
    1.5364   -1.1748    1.6270 C   0  0  1  0  0  0  0  0  0  0  0  0
    2.8602   -0.6393    1.5634 O   0  0  0  0  0  0  0  0  0  0  0  0
    0.5797   -0.7458    0.5304 C   0  0  1  0  0  0  0  0  0  0  0  0
    1.1887   -0.7862   -0.7644 O   0  0  0  0  0  0  0  0  0  0  0  0
   -0.4538   -1.8706    0.6635 C   0  0  2  0  0  0  0  0  0  0  0  0
    3.0424    0.6280    2.1273 C   0  0  2  0  0  0  0  0  0  0  0  0
    3.6426    0.4754    3.5316 C   0  0  2  0  0  0  0  0  0  0  0  0
    2.8106   -0.4505    4.3444 N   0  3  0  0  0  0  0  0  0  0  0  0
    3.7973    1.8405    4.2098 C   0  0  1  0  0  0  0  0  0  0  0  0
    4.8381    2.5732    3.5768 O   0  0  0  0  0  0  0  0  0  0  0  0
    2.4929    2.6409    4.1453 C   0  0  2  0  0  0  0  0  0  0  0  0
    1.5011    2.0359    4.9653 O   0  0  0  0  0  0  0  0  0  0  0  0
    2.0037    2.7096    2.7014 C   0  0  1  0  0  0  0  0  0  0  0  0
    1.8349    1.3762    2.1822 O   0  0  0  0  0  0  0  0  0  0  0  0
    0.6819    3.4420    2.5509 C   0  0  0  0  0  0  0  0  0  0  0  0
    0.5855    4.6014    3.4654 N   0  3  0  0  0  0  0  0  0  0  0  0
   -6.2911   -4.0221    0.8313 C   0  0  0  0  0  0  0  0  0  0  0  0
   -5.0210   -2.1290    3.7519 C   0  0  2  0  0  0  0  0  0  0  0  0
   -5.0776   -3.1968    4.8417 C   0  0  2  0  0  0  0  0  0  0  0  0
   -4.1980   -2.8212    5.9743 N   0  3  0  0  0  0  0  0  0  0  0  0
   -4.6330   -4.5416    4.2824 C   0  0  1  0  0  0  0  0  0  0  0  0
   -4.7639   -5.5400    5.2826 O   0  0  0  0  0  0  0  0  0  0  0  0
   -5.4885   -4.8983    3.0688 C   0  0  2  0  0  0  0  0  0  0  0  0
   -5.0347   -6.1192    2.4989 O   0  0  0  0  0  0  0  0  0  0  0  0
   -5.9937   -3.0763   -0.2686 N   0  3  0  0  0  0  0  0  0  0  0  0
   -5.3942   -3.7799    2.0328 C   0  0  2  0  0  0  0  0  0  0  0  0
   -5.7921   -2.5245    2.6205 O   0  0  0  0  0  0  0  0  0  0  0  0
   -3.8571    0.6375   -0.0102 C   0  0  2  0  0  0  0  0  0  0  0  0
   -3.6537    1.8046   -0.8989 N   0  3  0  0  0  0  0  0  0  0  0  0
   -4.6085    1.0636    1.2459 C   0  0  0  0  0  0  0  0  0  0  0  0
   -4.8229   -0.1265    2.1705 C   0  0  2  0  0  0  0  0  0  0  0  0
   -5.5436    0.3450    3.3445 N   0  3  0  0  0  0  0  0  0  0  0  0
   -3.4747   -0.7259    2.5634 C   0  0  1  0  0  0  0  0  0  0  0  0
   -3.6873   -1.8684    3.4153 O   0  0  0  0  0  0  0  0  0  0  0  0
   -2.6869   -1.1570    1.3185 C   0  0  2  0  0  0  0  0  0  0  0  0
   -1.3822   -1.6198    1.7163 O   0  0  0  0  0  0  0  0  0  0  0  0
   -2.5128    0.0008    0.3389 C   0  0  1  0  0  0  0  0  0  0  0  0
   -1.8902   -0.4717   -0.8483 O   0  0  0  0  0  0  0  0  0  0  0  0
  1  2  1  0  0  0  0
  3  2  1  1  0  0  0
  3  5  1  0  0  0  0
  3  4  1  0  0  0  0
  4  9  1  0  0  0  0
  5  7  1  0  0  0  0
  5  6  1  6  0  0  0
  7  9  1  0  0  0  0
  7  8  1  6  0  0  0
  9 40  1  1  0  0  0
 10  6  1  1  0  0  0
 10 11  1  0  0  0  0
 10 18  1  0  0  0  0
 11 13  1  0  0  0  0
 11 12  1  1  0  0  0
 13 15  1  0  0  0  0
 13 14  1  6  0  0  0
 15 17  1  0  0  0  0
 15 16  1  1  0  0  0
 17 19  1  1  0  0  0
 17 18  1  0  0  0  0
 19 20  1  0  0  0  0
 21 29  1  0  0  0  0
 22 23  1  0  0  0  0
 22 31  1  0  0  0  0
 22 38  1  6  0  0  0
 23 25  1  0  0  0  0
 23 24  1  1  0  0  0
 25 27  1  0  0  0  0
 25 26  1  1  0  0  0
 27 30  1  0  0  0  0
 27 28  1  6  0  0  0
 30 21  1  6  0  0  0
 30 31  1  0  0  0  0
 32 34  1  0  0  0  0
 32 41  1  0  0  0  0
 32 33  1  6  0  0  0
 34 35  1  0  0  0  0
 35 37  1  0  0  0  0
 35 36  1  1  0  0  0
 37 39  1  0  0  0  0
 37 38  1  1  0  0  0
 39 41  1  0  0  0  0
 39 40  1  1  0  0  0
 41 42  1  6  0  0  0
M  CHG  6  12   1  20   1  24   1  29   1  33   1  36   1
M  END
>  <CHROM.1>
-75.17049253,4.15218774,-165.95172877,99.41047539,-153.77264769,-142.48736493
61.01436301,68.33680058,178.21961092,37.55094329,163.41380470,-168.93512101
-80.05319119,-170.00582189,130.98174013,90.97731697,-62.87531659,-175.55211557
-6.53002844,-3.45927516,-171.01665733,71.12301461,-1.36791272,-0.99530016
2.34942096,-0.50770488,0.18977394,2.85868231

>  <Name>
1NEM.B

>  <RI>
0

>  <Rbt.Current_Directory>
/home/itssahil/PROJECTS/Mol_Feturizer/New_Systems/rnas/1nem

>  <Rbt.Executable>
rbdock ($Id: //depot/dev/client3/rdock/2013.1/src/exe/rbdock.cxx#4 $)

>  <Rbt.Library>
libRbt.so (2013.1, Build901 2013/11/27)

>  <Rbt.Parameter_File>
/export/apps/rDock/src/rDock_2013.1_src/data/scripts/dock_solv.prm

>  <Rbt.Receptor>
prm/blind_docking_100.prm

>  <SCORE>
-12.9315

>  <SCORE.INTER>
-47.4715

>  <SCORE.INTER.CONST>
1

>  <SCORE.INTER.POLAR>
-7.49016

>  <SCORE.INTER.ROT>
9

>  <SCORE.INTER.SOLV>
51.7158

>  <SCORE.INTER.VDW>
-33.5191

>  <SCORE.INTER.norm>
-1.13027

>  <SCORE.INTRA>
32.6271

>  <SCORE.INTRA.DIHEDRAL>
21.5629

>  <SCORE.INTRA.DIHEDRAL.0>
22.4324

>  <SCORE.INTRA.POLAR>
1.46004

>  <SCORE.INTRA.POLAR.0>
-1.83749

>  <SCORE.INTRA.REPUL>
0.0443597

>  <SCORE.INTRA.REPUL.0>
0

>  <SCORE.INTRA.SOLV>
-0.995712

>  <SCORE.INTRA.SOLV.lig_0>
-160.638

>  <SCORE.INTRA.VDW>
17.1576

>  <SCORE.INTRA.VDW.0>
-7.61953

>  <SCORE.INTRA.norm>
0.776836

>  <SCORE.RESTR>
1.91291

>  <SCORE.RESTR.CAVITY>
1.91291

>  <SCORE.RESTR.norm>
0.0455454

>  <SCORE.SYSTEM>
0

>  <SCORE.SYSTEM.CONST>
0

>  <SCORE.SYSTEM.DIHEDRAL>
0

>  <SCORE.SYSTEM.SOLV>
0

>  <SCORE.SYSTEM.norm>
0

>  <SCORE.heavy>
42

>  <SCORE.norm>
-0.307893

>  <RMSD>
2.989

$$$$
1NEM.B
 OpenBabel11021811403D
libRbt.so/2013.1/901 2013/11/27
 42 45  0  0  0  0  0  0  0  0999 V2000
    1.0421   -4.9248    1.5742 O   0  0  0  0  0  0  0  0  0  0  0  0
    1.9849   -3.8724    1.7879 C   0  0  0  0  0  0  0  0  0  0  0  0
    1.6186   -2.5829    1.0547 C   0  0  1  0  0  0  0  0  0  0  0  0
    0.2818   -2.6437    0.5663 O   0  0  0  0  0  0  0  0  0  0  0  0
    1.6124   -1.3373    1.9265 C   0  0  1  0  0  0  0  0  0  0  0  0
    2.9743   -1.0176    2.2203 O   0  0  0  0  0  0  0  0  0  0  0  0
    0.8835   -0.3943    0.9876 C   0  0  1  0  0  0  0  0  0  0  0  0
    1.6810   -0.0376   -0.1464 O   0  0  0  0  0  0  0  0  0  0  0  0
   -0.2592   -1.3224    0.5589 C   0  0  2  0  0  0  0  0  0  0  0  0
    3.1970   -0.2663    3.3793 C   0  0  2  0  0  0  0  0  0  0  0  0
    2.6225    1.1437    3.1865 C   0  0  2  0  0  0  0  0  0  0  0  0
    3.1644    1.7498    1.9418 N   0  3  0  0  0  0  0  0  0  0  0  0
    2.9043    2.0196    4.4116 C   0  0  1  0  0  0  0  0  0  0  0  0
    2.1112    1.5794    5.5061 O   0  0  0  0  0  0  0  0  0  0  0  0
    4.3858    1.9698    4.7979 C   0  0  2  0  0  0  0  0  0  0  0  0
    5.1762    2.6165    3.8084 O   0  0  0  0  0  0  0  0  0  0  0  0
    4.8280    0.5172    4.9501 C   0  0  1  0  0  0  0  0  0  0  0  0
    4.5742   -0.1982    3.7255 O   0  0  0  0  0  0  0  0  0  0  0  0
    6.3030    0.3716    5.2808 C   0  0  0  0  0  0  0  0  0  0  0  0
    6.5212   -0.4878    6.4656 N   0  3  0  0  0  0  0  0  0  0  0  0
   -5.5235   -3.9460    0.1249 C   0  0  0  0  0  0  0  0  0  0  0  0
   -5.0045   -2.0108    3.2415 C   0  0  2  0  0  0  0  0  0  0  0  0
   -5.1061   -3.1134    4.2926 C   0  0  2  0  0  0  0  0  0  0  0  0
   -4.4810   -2.6714    5.5621 N   0  3  0  0  0  0  0  0  0  0  0  0
   -4.4089   -4.3743    3.7996 C   0  0  1  0  0  0  0  0  0  0  0  0
   -4.5771   -5.4142    4.7508 O   0  0  0  0  0  0  0  0  0  0  0  0
   -4.9994   -4.7920    2.4546 C   0  0  2  0  0  0  0  0  0  0  0  0
   -4.3070   -5.9286    1.9543 O   0  0  0  0  0  0  0  0  0  0  0  0
   -5.6082   -2.7397   -0.7299 N   0  3  0  0  0  0  0  0  0  0  0  0
   -4.8761   -3.6364    1.4635 C   0  0  2  0  0  0  0  0  0  0  0  0
   -5.5210   -2.4594    1.9913 O   0  0  0  0  0  0  0  0  0  0  0  0
   -3.7640    0.7813   -0.3929 C   0  0  2  0  0  0  0  0  0  0  0  0
   -3.5498    1.9154   -1.3210 N   0  3  0  0  0  0  0  0  0  0  0  0
   -4.5721    1.2420    0.8149 C   0  0  0  0  0  0  0  0  0  0  0  0
   -4.7983    0.0863    1.7795 C   0  0  2  0  0  0  0  0  0  0  0  0
   -5.5734    0.5896    2.9046 N   0  3  0  0  0  0  0  0  0  0  0  0
   -3.4545   -0.4671    2.2480 C   0  0  1  0  0  0  0  0  0  0  0  0
   -3.6770   -1.5782    3.1381 O   0  0  0  0  0  0  0  0  0  0  0  0
   -2.6104   -0.9315    1.0530 C   0  0  2  0  0  0  0  0  0  0  0  0
   -1.3130   -1.3491    1.5190 O   0  0  0  0  0  0  0  0  0  0  0  0
   -2.4217    0.1889    0.0334 C   0  0  1  0  0  0  0  0  0  0  0  0
   -1.7440   -0.3181   -1.1086 O   0  0  0  0  0  0  0  0  0  0  0  0
  1  2  1  0  0  0  0
  3  2  1  1  0  0  0
  3  5  1  0  0  0  0
  3  4  1  0  0  0  0
  4  9  1  0  0  0  0
  5  7  1  0  0  0  0
  5  6  1  6  0  0  0
  7  9  1  0  0  0  0
  7  8  1  6  0  0  0
  9 40  1  1  0  0  0
 10  6  1  6  0  0  0
 10 11  1  0  0  0  0
 10 18  1  0  0  0  0
 11 13  1  0  0  0  0
 11 12  1  6  0  0  0
 13 15  1  0  0  0  0
 13 14  1  1  0  0  0
 15 17  1  0  0  0  0
 15 16  1  6  0  0  0
 17 19  1  6  0  0  0
 17 18  1  0  0  0  0
 19 20  1  0  0  0  0
 21 29  1  0  0  0  0
 22 23  1  0  0  0  0
 22 31  1  0  0  0  0
 22 38  1  6  0  0  0
 23 25  1  0  0  0  0
 23 24  1  1  0  0  0
 25 27  1  0  0  0  0
 25 26  1  1  0  0  0
 27 30  1  0  0  0  0
 27 28  1  6  0  0  0
 30 21  1  6  0  0  0
 30 31  1  0  0  0  0
 32 34  1  0  0  0  0
 32 41  1  0  0  0  0
 32 33  1  6  0  0  0
 34 35  1  0  0  0  0
 35 37  1  0  0  0  0
 35 36  1  1  0  0  0
 37 39  1  0  0  0  0
 37 38  1  1  0  0  0
 39 41  1  0  0  0  0
 39 40  1  1  0  0  0
 41 42  1  6  0  0  0
M  CHG  6  12   1  20   1  24   1  29   1  33   1  36   1
M  END
>  <CHROM.1>
76.31235959,12.51990139,-156.08511669,-67.59828800,174.83006741,-124.97834056
-66.05154092,-165.66110583,176.35995580,128.27852600,73.32253685,169.79111529
50.38791673,-175.63396328,165.52398387,-58.48578288,-58.90394626,-162.81429897
113.24503936,7.85215375,-156.91700251,82.64149164,-0.79591237,-1.14596340
2.32349967,-0.12768176,0.37277959,2.50154623

>  <Name>
1NEM.B

>  <RI>
0

>  <Rbt.Current_Directory>
/home/itssahil/PROJECTS/Mol_Feturizer/New_Systems/rnas/1nem

>  <Rbt.Executable>
rbdock ($Id: //depot/dev/client3/rdock/2013.1/src/exe/rbdock.cxx#4 $)

>  <Rbt.Library>
libRbt.so (2013.1, Build901 2013/11/27)

>  <Rbt.Parameter_File>
/export/apps/rDock/src/rDock_2013.1_src/data/scripts/dock_solv.prm

>  <Rbt.Receptor>
prm/blind_docking_60.prm

>  <SCORE>
-15.9174

>  <SCORE.INTER>
-45.5011

>  <SCORE.INTER.CONST>
1

>  <SCORE.INTER.POLAR>
-7.05354

>  <SCORE.INTER.ROT>
9

>  <SCORE.INTER.SOLV>
40.5063

>  <SCORE.INTER.VDW>
-29.9243

>  <SCORE.INTER.norm>
-1.08336

>  <SCORE.INTRA>
23.2476

>  <SCORE.INTRA.DIHEDRAL>
17.3585

>  <SCORE.INTRA.DIHEDRAL.0>
22.4324

>  <SCORE.INTRA.POLAR>
0.570568

>  <SCORE.INTRA.POLAR.0>
-1.83749

>  <SCORE.INTRA.REPUL>
0

>  <SCORE.INTRA.REPUL.0>
0

>  <SCORE.INTRA.SOLV>
-2.37812

>  <SCORE.INTRA.SOLV.lig_0>
-160.638

>  <SCORE.INTRA.VDW>
13.8174

>  <SCORE.INTRA.VDW.0>
-7.61953

>  <SCORE.INTRA.norm>
0.553514

>  <SCORE.RESTR>
6.33609

>  <SCORE.RESTR.CAVITY>
6.33609

>  <SCORE.RESTR.norm>
0.150859

>  <SCORE.SYSTEM>
0

>  <SCORE.SYSTEM.CONST>
0

>  <SCORE.SYSTEM.DIHEDRAL>
0

>  <SCORE.SYSTEM.SOLV>
0

>  <SCORE.SYSTEM.norm>
0

>  <SCORE.heavy>
42

>  <SCORE.norm>
-0.378986

>  <RMSD>
3.001

$$$$
1NEM.B
 OpenBabel11021811403D
libRbt.so/2013.1/901 2013/11/27
 42 45  0  0  0  0  0  0  0  0999 V2000
    2.9791   -4.4914    2.5472 O   0  0  0  0  0  0  0  0  0  0  0  0
    1.6084   -4.1143    2.6922 C   0  0  0  0  0  0  0  0  0  0  0  0
    1.1406   -3.1342    1.6173 C   0  0  1  0  0  0  0  0  0  0  0  0
   -0.2478   -3.3067    1.3486 O   0  0  0  0  0  0  0  0  0  0  0  0
    1.2378   -1.6685    2.0095 C   0  0  1  0  0  0  0  0  0  0  0  0
    2.6238   -1.3189    2.0059 O   0  0  0  0  0  0  0  0  0  0  0  0
    0.3864   -1.0705    0.9052 C   0  0  1  0  0  0  0  0  0  0  0  0
    1.0276   -1.1459   -0.3724 O   0  0  0  0  0  0  0  0  0  0  0  0
   -0.7951   -2.0460    0.9617 C   0  0  2  0  0  0  0  0  0  0  0  0
    2.9431   -0.0512    2.5041 C   0  0  2  0  0  0  0  0  0  0  0  0
    3.8487    0.6740    1.4993 C   0  0  2  0  0  0  0  0  0  0  0  0
    5.0231   -0.1745    1.1659 N   0  3  0  0  0  0  0  0  0  0  0  0
    4.2746    2.0434    2.0385 C   0  0  1  0  0  0  0  0  0  0  0  0
    3.1584    2.9236    2.0419 O   0  0  0  0  0  0  0  0  0  0  0  0
    4.8417    1.9272    3.4567 C   0  0  2  0  0  0  0  0  0  0  0  0
    6.0860    1.2393    3.4363 O   0  0  0  0  0  0  0  0  0  0  0  0
    3.8500    1.1833    4.3467 C   0  0  1  0  0  0  0  0  0  0  0  0
    3.5659   -0.1108    3.7806 O   0  0  0  0  0  0  0  0  0  0  0  0
    4.3560    0.9744    5.7632 C   0  0  0  0  0  0  0  0  0  0  0  0
    5.1443    2.1307    6.2443 N   0  3  0  0  0  0  0  0  0  0  0  0
   -4.0995   -4.0485    0.0018 C   0  0  0  0  0  0  0  0  0  0  0  0
   -5.1965   -2.5599    3.2124 C   0  0  2  0  0  0  0  0  0  0  0  0
   -5.3370   -3.8070    4.0819 C   0  0  2  0  0  0  0  0  0  0  0  0
   -5.3161   -3.4368    5.5172 N   0  3  0  0  0  0  0  0  0  0  0  0
   -4.1994   -4.7778    3.7948 C   0  0  1  0  0  0  0  0  0  0  0  0
   -4.3839   -5.9644    4.5514 O   0  0  0  0  0  0  0  0  0  0  0  0
   -4.1708   -5.1047    2.3035 C   0  0  2  0  0  0  0  0  0  0  0  0
   -3.0690   -5.9561    2.0159 O   0  0  0  0  0  0  0  0  0  0  0  0
   -4.0755   -2.7739   -0.7516 N   0  3  0  0  0  0  0  0  0  0  0  0
   -4.0451   -3.8111    1.5009 C   0  0  2  0  0  0  0  0  0  0  0  0
   -5.1242   -2.9142    1.8339 O   0  0  0  0  0  0  0  0  0  0  0  0
   -3.9611    0.7683    0.2592 C   0  0  2  0  0  0  0  0  0  0  0  0
   -3.6441    1.9363   -0.5943 N   0  3  0  0  0  0  0  0  0  0  0  0
   -4.7150    1.2219    1.5042 C   0  0  0  0  0  0  0  0  0  0  0  0
   -5.0458    0.0310    2.3927 C   0  0  2  0  0  0  0  0  0  0  0  0
   -5.7632    0.5294    3.5577 N   0  3  0  0  0  0  0  0  0  0  0  0
   -3.7588   -0.6779    2.8079 C   0  0  1  0  0  0  0  0  0  0  0  0
   -4.0820   -1.8199    3.6251 O   0  0  0  0  0  0  0  0  0  0  0  0
   -2.9694   -1.1396    1.5751 C   0  0  2  0  0  0  0  0  0  0  0  0
   -1.7156   -1.7092    1.9973 O   0  0  0  0  0  0  0  0  0  0  0  0
   -2.6796    0.0235    0.6297 C   0  0  1  0  0  0  0  0  0  0  0  0
   -2.0596   -0.4682   -0.5512 O   0  0  0  0  0  0  0  0  0  0  0  0
  1  2  1  0  0  0  0
  3  2  1  1  0  0  0
  3  5  1  0  0  0  0
  3  4  1  0  0  0  0
  4  9  1  0  0  0  0
  5  7  1  0  0  0  0
  5  6  1  6  0  0  0
  7  9  1  0  0  0  0
  7  8  1  6  0  0  0
  9 40  1  1  0  0  0
 10  6  1  6  0  0  0
 10 11  1  0  0  0  0
 10 18  1  0  0  0  0
 11 13  1  0  0  0  0
 11 12  1  1  0  0  0
 13 15  1  0  0  0  0
 13 14  1  1  0  0  0
 15 17  1  0  0  0  0
 15 16  1  6  0  0  0
 17 19  1  1  0  0  0
 17 18  1  0  0  0  0
 19 20  1  0  0  0  0
 21 29  1  0  0  0  0
 22 23  1  0  0  0  0
 22 31  1  0  0  0  0
 22 38  1  1  0  0  0
 23 25  1  0  0  0  0
 23 24  1  1  0  0  0
 25 27  1  0  0  0  0
 25 26  1  1  0  0  0
 27 30  1  0  0  0  0
 27 28  1  1  0  0  0
 30 21  1  6  0  0  0
 30 31  1  0  0  0  0
 32 34  1  0  0  0  0
 32 41  1  0  0  0  0
 32 33  1  6  0  0  0
 34 35  1  0  0  0  0
 35 37  1  0  0  0  0
 35 36  1  1  0  0  0
 37 39  1  0  0  0  0
 37 38  1  1  0  0  0
 39 41  1  0  0  0  0
 39 40  1  1  0  0  0
 41 42  1  6  0  0  0
M  CHG  6  12   1  20   1  24   1  29   1  33   1  36   1
M  END
>  <CHROM.1>
54.88471074,149.98263050,-172.25540825,-129.93304596,-49.66240081,-138.38648788
-82.06307892,179.33801823,90.31822155,36.56532247,164.71467847,175.84114812
-176.85311268,174.46967264,-42.70243873,177.70292941,-46.84778836,-65.18067861
108.21677225,40.30853928,-172.96686724,80.83685238,-0.73003073,-1.32952697
2.27134705,-0.34281032,0.19770585,2.84902080

>  <Name>
1NEM.B

>  <RI>
0

>  <Rbt.Current_Directory>
/home/itssahil/PROJECTS/Mol_Feturizer/New_Systems/rnas/1nem

>  <Rbt.Executable>
rbdock ($Id: //depot/dev/client3/rdock/2013.1/src/exe/rbdock.cxx#4 $)

>  <Rbt.Library>
libRbt.so (2013.1, Build901 2013/11/27)

>  <Rbt.Parameter_File>
/export/apps/rDock/src/rDock_2013.1_src/data/scripts/dock_solv.prm

>  <Rbt.Receptor>
prm/pocket_docking_3.prm

>  <SCORE>
-35.1387

>  <SCORE.INTER>
-45.6072

>  <SCORE.INTER.CONST>
1

>  <SCORE.INTER.POLAR>
-7.25477

>  <SCORE.INTER.ROT>
9

>  <SCORE.INTER.SOLV>
40.6316

>  <SCORE.INTER.VDW>
-29.3661

>  <SCORE.INTER.norm>
-1.08589

>  <SCORE.INTRA>
10.3668

>  <SCORE.INTRA.DIHEDRAL>
10.24

>  <SCORE.INTRA.DIHEDRAL.0>
22.4324

>  <SCORE.INTRA.POLAR>
-0.343633

>  <SCORE.INTRA.POLAR.0>
-1.83749

>  <SCORE.INTRA.REPUL>
0

>  <SCORE.INTRA.REPUL.0>
0

>  <SCORE.INTRA.SOLV>
-0.517647

>  <SCORE.INTRA.SOLV.lig_0>
-160.638

>  <SCORE.INTRA.VDW>
6.67396

>  <SCORE.INTRA.VDW.0>
-7.61953

>  <SCORE.INTRA.norm>
0.246828

>  <SCORE.RESTR>
0.101703

>  <SCORE.RESTR.CAVITY>
0.101703

>  <SCORE.RESTR.norm>
0.0024215

>  <SCORE.SYSTEM>
0

>  <SCORE.SYSTEM.CONST>
0

>  <SCORE.SYSTEM.DIHEDRAL>
0

>  <SCORE.SYSTEM.SOLV>
0

>  <SCORE.SYSTEM.norm>
0

>  <SCORE.heavy>
42

>  <SCORE.norm>
-0.836636

>  <RMSD>
3.005

$$$$
1NEM.B
 OpenBabel11021811403D
libRbt.so/2013.1/901 2013/11/27
 42 45  0  0  0  0  0  0  0  0999 V2000
    2.5120    1.9754   -3.0152 O   0  0  0  0  0  0  0  0  0  0  0  0
    3.0362    2.6484   -1.8688 C   0  0  0  0  0  0  0  0  0  0  0  0
    2.5515    2.0490   -0.5495 C   0  0  1  0  0  0  0  0  0  0  0  0
    1.1305    1.9498   -0.5334 O   0  0  0  0  0  0  0  0  0  0  0  0
    3.0013    0.6184   -0.2994 C   0  0  1  0  0  0  0  0  0  0  0  0
    4.3978    0.6589    0.0031 O   0  0  0  0  0  0  0  0  0  0  0  0
    2.0702    0.2742    0.8480 C   0  0  1  0  0  0  0  0  0  0  0  0
    2.4106    0.9750    2.0489 O   0  0  0  0  0  0  0  0  0  0  0  0
    0.7631    0.8259    0.2668 C   0  0  2  0  0  0  0  0  0  0  0  0
    4.7646    1.3980    1.1329 C   0  0  2  0  0  0  0  0  0  0  0  0
    5.6536    2.5727    0.7025 C   0  0  2  0  0  0  0  0  0  0  0  0
    6.7951    2.0773   -0.1112 N   0  3  0  0  0  0  0  0  0  0  0  0
    6.1307    3.3704    1.9204 C   0  0  1  0  0  0  0  0  0  0  0  0
    5.0372    4.0839    2.4823 O   0  0  0  0  0  0  0  0  0  0  0  0
    6.7418    2.4486    2.9803 C   0  0  2  0  0  0  0  0  0  0  0  0
    7.9675    1.9011    2.5112 O   0  0  0  0  0  0  0  0  0  0  0  0
    5.7625    1.3258    3.3102 C   0  0  1  0  0  0  0  0  0  0  0  0
    5.4280    0.6048    2.1084 O   0  0  0  0  0  0  0  0  0  0  0  0
    6.3102    0.3297    4.3172 C   0  0  0  0  0  0  0  0  0  0  0  0
    5.3005   -0.6830    4.6977 N   0  3  0  0  0  0  0  0  0  0  0  0
   -3.7997   -5.1759    2.2972 C   0  0  0  0  0  0  0  0  0  0  0  0
   -1.5470   -2.2422    2.0833 C   0  0  2  0  0  0  0  0  0  0  0  0
   -0.1891   -2.8956    2.3291 C   0  0  2  0  0  0  0  0  0  0  0  0
    0.8995   -2.0165    1.8396 N   0  3  0  0  0  0  0  0  0  0  0  0
   -0.1148   -4.2371    1.6123 C   0  0  1  0  0  0  0  0  0  0  0  0
    1.1204   -4.8690    1.9115 O   0  0  0  0  0  0  0  0  0  0  0  0
   -1.2782   -5.1200    2.0585 C   0  0  2  0  0  0  0  0  0  0  0  0
   -1.2558   -6.3482    1.3426 O   0  0  0  0  0  0  0  0  0  0  0  0
   -5.0176   -4.8575    1.5173 N   0  3  0  0  0  0  0  0  0  0  0  0
   -2.5970   -4.3952    1.7965 C   0  0  2  0  0  0  0  0  0  0  0  0
   -2.6031   -3.1186    2.4673 O   0  0  0  0  0  0  0  0  0  0  0  0
   -3.1497    1.6573   -1.1196 C   0  0  2  0  0  0  0  0  0  0  0  0
   -3.4699    3.0830   -1.3610 N   0  3  0  0  0  0  0  0  0  0  0  0
   -3.7813    1.1957    0.1889 C   0  0  0  0  0  0  0  0  0  0  0  0
   -3.4584   -0.2686    0.4513 C   0  0  2  0  0  0  0  0  0  0  0  0
   -4.0888   -0.6459    1.7084 N   0  3  0  0  0  0  0  0  0  0  0  0
   -1.9452   -0.4600    0.5220 C   0  0  1  0  0  0  0  0  0  0  0  0
   -1.6473   -1.8525    0.7423 O   0  0  0  0  0  0  0  0  0  0  0  0
   -1.2762    0.0053   -0.7788 C   0  0  2  0  0  0  0  0  0  0  0  0
    0.1543   -0.0905   -0.6403 O   0  0  0  0  0  0  0  0  0  0  0  0
   -1.6357    1.4527   -1.1051 C   0  0  1  0  0  0  0  0  0  0  0  0
   -1.0988    1.8003   -2.3745 O   0  0  0  0  0  0  0  0  0  0  0  0
  1  2  1  0  0  0  0
  3  2  1  6  0  0  0
  3  5  1  0  0  0  0
  3  4  1  0  0  0  0
  4  9  1  0  0  0  0
  5  7  1  0  0  0  0
  5  6  1  1  0  0  0
  7  9  1  0  0  0  0
  7  8  1  1  0  0  0
  9 40  1  6  0  0  0
 10  6  1  6  0  0  0
 10 11  1  0  0  0  0
 10 18  1  0  0  0  0
 11 13  1  0  0  0  0
 11 12  1  1  0  0  0
 13 15  1  0  0  0  0
 13 14  1  1  0  0  0
 15 17  1  0  0  0  0
 15 16  1  6  0  0  0
 17 19  1  1  0  0  0
 17 18  1  0  0  0  0
 19 20  1  0  0  0  0
 21 29  1  0  0  0  0
 22 23  1  0  0  0  0
 22 31  1  0  0  0  0
 22 38  1  6  0  0  0
 23 25  1  0  0  0  0
 23 24  1  6  0  0  0
 25 27  1  0  0  0  0
 25 26  1  1  0  0  0
 27 30  1  0  0  0  0
 27 28  1  6  0  0  0
 30 21  1  1  0  0  0
 30 31  1  0  0  0  0
 32 34  1  0  0  0  0
 32 41  1  0  0  0  0
 32 33  1  1  0  0  0
 34 35  1  0  0  0  0
 35 37  1  0  0  0  0
 35 36  1  1  0  0  0
 37 39  1  0  0  0  0
 37 38  1  6  0  0  0
 39 41  1  0  0  0  0
 39 40  1  1  0  0  0
 41 42  1  6  0  0  0
M  CHG  6  12   1  20   1  24   1  29   1  33   1  36   1
M  END
>  <CHROM.1>
65.96736640,-52.15202622,60.78188814,-116.85307734,-171.95810044,-92.28761264
161.51022576,-67.81545443,97.78617327,175.42133958,57.13424288,-152.44966115
37.27717225,-124.14060000,-53.36822263,-145.30021016,-55.71298671,-51.71845562
-60.46803949,-90.46606785,-68.89465838,-60.27856772,1.10741123,-0.19993556
0.95734579,0.39701187,-0.32769869,-0.54260710

>  <Name>
1NEM.B

>  <RI>
0

>  <Rbt.Current_Directory>
/home/itssahil/PROJECTS/Mol_Feturizer/New_Systems/rnas/1nem

>  <Rbt.Executable>
rbdock ($Id: //depot/dev/client3/rdock/2013.1/src/exe/rbdock.cxx#4 $)

>  <Rbt.Library>
libRbt.so (2013.1, Build901 2013/11/27)

>  <Rbt.Parameter_File>
/export/apps/rDock/src/rDock_2013.1_src/data/scripts/dock_solv.prm

>  <Rbt.Receptor>
prm/pocket_docking_4.prm

>  <SCORE>
-37.9883

>  <SCORE.INTER>
-48.8622

>  <SCORE.INTER.CONST>
1

>  <SCORE.INTER.POLAR>
-7.26027

>  <SCORE.INTER.ROT>
9

>  <SCORE.INTER.SOLV>
32.9687

>  <SCORE.INTER.VDW>
-28.9634

>  <SCORE.INTER.norm>
-1.16339

>  <SCORE.INTRA>
10.8627

>  <SCORE.INTRA.DIHEDRAL>
15.8559

>  <SCORE.INTRA.DIHEDRAL.0>
22.4324

>  <SCORE.INTRA.POLAR>
-0.455617

>  <SCORE.INTRA.POLAR.0>
-1.83749

>  <SCORE.INTRA.REPUL>
0

>  <SCORE.INTRA.REPUL.0>
0

>  <SCORE.INTRA.SOLV>
0.268337

>  <SCORE.INTRA.SOLV.lig_0>
-160.638

>  <SCORE.INTRA.VDW>
4.34968

>  <SCORE.INTRA.VDW.0>
-7.61953

>  <SCORE.INTRA.norm>
0.258635

>  <SCORE.RESTR>
0.0111748

>  <SCORE.RESTR.CAVITY>
0.0111748

>  <SCORE.RESTR.norm>
0.000266066

>  <SCORE.SYSTEM>
0

>  <SCORE.SYSTEM.CONST>
0

>  <SCORE.SYSTEM.DIHEDRAL>
0

>  <SCORE.SYSTEM.SOLV>
0

>  <SCORE.SYSTEM.norm>
0

>  <SCORE.heavy>
42

>  <SCORE.norm>
-0.904484

>  <RMSD>
3.118

$$$$
1NEM.B
 OpenBabel11021811403D
libRbt.so/2013.1/901 2013/11/27
 42 45  0  0  0  0  0  0  0  0999 V2000
    2.2928   -5.6814    2.0782 O   0  0  0  0  0  0  0  0  0  0  0  0
    1.8128   -4.5187    2.7562 C   0  0  0  0  0  0  0  0  0  0  0  0
    1.2627   -3.4562    1.8057 C   0  0  1  0  0  0  0  0  0  0  0  0
   -0.0860   -3.7476    1.4512 O   0  0  0  0  0  0  0  0  0  0  0  0
    1.1705   -2.0599    2.4000 C   0  0  1  0  0  0  0  0  0  0  0  0
    2.5037   -1.5559    2.5094 O   0  0  0  0  0  0  0  0  0  0  0  0
    0.2868   -1.4131    1.3499 C   0  0  1  0  0  0  0  0  0  0  0  0
    0.9706   -1.2316    0.1055 O   0  0  0  0  0  0  0  0  0  0  0  0
   -0.7695   -2.5163    1.2163 C   0  0  2  0  0  0  0  0  0  0  0  0
    2.6349   -0.2593    3.0180 C   0  0  2  0  0  0  0  0  0  0  0  0
    4.0185    0.2919    2.6479 C   0  0  2  0  0  0  0  0  0  0  0  0
    5.0785   -0.6549    3.0842 N   0  3  0  0  0  0  0  0  0  0  0  0
    4.2266    1.6881    3.2435 C   0  0  1  0  0  0  0  0  0  0  0  0
    3.4002    2.6248    2.5650 O   0  0  0  0  0  0  0  0  0  0  0  0
    3.9007    1.7050    4.7401 C   0  0  2  0  0  0  0  0  0  0  0  0
    4.8639    0.9496    5.4638 O   0  0  0  0  0  0  0  0  0  0  0  0
    2.5070    1.1268    4.9685 C   0  0  1  0  0  0  0  0  0  0  0  0
    2.4395   -0.2060    4.4252 O   0  0  0  0  0  0  0  0  0  0  0  0
    2.1212    1.0550    6.4355 C   0  0  0  0  0  0  0  0  0  0  0  0
    1.6940    2.3713    6.9594 N   0  3  0  0  0  0  0  0  0  0  0  0
   -5.4746   -4.5866    1.1154 C   0  0  0  0  0  0  0  0  0  0  0  0
   -5.1635   -2.6042    4.2300 C   0  0  2  0  0  0  0  0  0  0  0  0
   -5.1477   -3.7104    5.2822 C   0  0  2  0  0  0  0  0  0  0  0  0
   -4.5730   -3.2033    6.5512 N   0  3  0  0  0  0  0  0  0  0  0  0
   -4.3208   -4.8908    4.7903 C   0  0  1  0  0  0  0  0  0  0  0  0
   -4.3778   -5.9417    5.7426 O   0  0  0  0  0  0  0  0  0  0  0  0
   -4.8637   -5.3700    3.4459 C   0  0  2  0  0  0  0  0  0  0  0  0
   -4.0548   -6.4273    2.9466 O   0  0  0  0  0  0  0  0  0  0  0  0
   -6.9383   -4.3618    1.1032 N   0  3  0  0  0  0  0  0  0  0  0  0
   -4.8637   -4.2088    2.4536 C   0  0  2  0  0  0  0  0  0  0  0  0
   -5.6296   -3.1063    2.9803 O   0  0  0  0  0  0  0  0  0  0  0  0
   -4.2332   -0.4832    0.1864 C   0  0  2  0  0  0  0  0  0  0  0  0
   -4.0420    0.3942   -0.9914 N   0  3  0  0  0  0  0  0  0  0  0  0
   -4.8247    0.3167    1.3415 C   0  0  0  0  0  0  0  0  0  0  0  0
   -5.0247   -0.5725    2.5607 C   0  0  2  0  0  0  0  0  0  0  0  0
   -5.5908    0.2473    3.6226 N   0  3  0  0  0  0  0  0  0  0  0  0
   -3.6871   -1.1713    2.9894 C   0  0  1  0  0  0  0  0  0  0  0  0
   -3.8894   -2.0335    4.1260 O   0  0  0  0  0  0  0  0  0  0  0  0
   -3.0587   -1.9764    1.8435 C   0  0  2  0  0  0  0  0  0  0  0  0
   -1.7547   -2.4385    2.2442 O   0  0  0  0  0  0  0  0  0  0  0  0
   -2.9064   -1.1286    0.5831 C   0  0  1  0  0  0  0  0  0  0  0  0
   -2.4390   -1.9439   -0.4834 O   0  0  0  0  0  0  0  0  0  0  0  0
  1  2  1  0  0  0  0
  3  2  1  1  0  0  0
  3  5  1  0  0  0  0
  3  4  1  0  0  0  0
  4  9  1  0  0  0  0
  5  7  1  0  0  0  0
  5  6  1  6  0  0  0
  7  9  1  0  0  0  0
  7  8  1  6  0  0  0
  9 40  1  1  0  0  0
 10  6  1  1  0  0  0
 10 11  1  0  0  0  0
 10 18  1  0  0  0  0
 11 13  1  0  0  0  0
 11 12  1  1  0  0  0
 13 15  1  0  0  0  0
 13 14  1  6  0  0  0
 15 17  1  0  0  0  0
 15 16  1  1  0  0  0
 17 19  1  1  0  0  0
 17 18  1  0  0  0  0
 19 20  1  0  0  0  0
 21 29  1  0  0  0  0
 22 23  1  0  0  0  0
 22 31  1  0  0  0  0
 22 38  1  6  0  0  0
 23 25  1  0  0  0  0
 23 24  1  1  0  0  0
 25 27  1  0  0  0  0
 25 26  1  1  0  0  0
 27 30  1  0  0  0  0
 27 28  1  6  0  0  0
 30 21  1  6  0  0  0
 30 31  1  0  0  0  0
 32 34  1  0  0  0  0
 32 41  1  0  0  0  0
 32 33  1  6  0  0  0
 34 35  1  0  0  0  0
 35 37  1  0  0  0  0
 35 36  1  1  0  0  0
 37 39  1  0  0  0  0
 37 38  1  1  0  0  0
 39 41  1  0  0  0  0
 39 40  1  1  0  0  0
 41 42  1  6  0  0  0
M  CHG  6  12   1  20   1  24   1  29   1  33   1  36   1
M  END
>  <CHROM.1>
-175.96521757,82.99911569,178.88471000,-161.54248921,150.96664105,-137.75423788
50.22947385,-171.93880306,80.48085530,78.66002374,125.31753103,88.66503282
40.90638267,167.80018458,96.33148099,68.25366669,33.70635514,-66.40431182
-20.60927602,26.77468619,-146.18828567,68.30612790,-1.18978330,-1.78528823
2.91329554,-0.41430175,0.16158601,3.04596157

>  <Name>
1NEM.B

>  <RI>
0

>  <Rbt.Current_Directory>
/home/itssahil/PROJECTS/Mol_Feturizer/New_Systems/rnas/1nem

>  <Rbt.Executable>
rbdock ($Id: //depot/dev/client3/rdock/2013.1/src/exe/rbdock.cxx#4 $)

>  <Rbt.Library>
libRbt.so (2013.1, Build901 2013/11/27)

>  <Rbt.Parameter_File>
/export/apps/rDock/src/rDock_2013.1_src/data/scripts/dock_solv.prm

>  <Rbt.Receptor>
prm/blind_docking_100.prm

>  <SCORE>
-18.9829

>  <SCORE.INTER>
-44.2707

>  <SCORE.INTER.CONST>
1

>  <SCORE.INTER.POLAR>
-6.57742

>  <SCORE.INTER.ROT>
9

>  <SCORE.INTER.SOLV>
42.9001

>  <SCORE.INTER.VDW>
-31.4891

>  <SCORE.INTER.norm>
-1.05406

>  <SCORE.INTRA>
22.6888

>  <SCORE.INTRA.DIHEDRAL>
18.8575

>  <SCORE.INTRA.DIHEDRAL.0>
22.4324

>  <SCORE.INTRA.POLAR>
0.81702

>  <SCORE.INTRA.POLAR.0>
-1.83749

>  <SCORE.INTRA.REPUL>
0

>  <SCORE.INTRA.REPUL.0>
0

>  <SCORE.INTRA.SOLV>
-6.98037

>  <SCORE.INTRA.SOLV.lig_0>
-160.638

>  <SCORE.INTRA.VDW>
13.9724

>  <SCORE.INTRA.VDW.0>
-7.61953

>  <SCORE.INTRA.norm>
0.54021

>  <SCORE.RESTR>
2.59893

>  <SCORE.RESTR.CAVITY>
2.59893

>  <SCORE.RESTR.norm>
0.0618793

>  <SCORE.SYSTEM>
0

>  <SCORE.SYSTEM.CONST>
0

>  <SCORE.SYSTEM.DIHEDRAL>
0

>  <SCORE.SYSTEM.SOLV>
0

>  <SCORE.SYSTEM.norm>
0

>  <SCORE.heavy>
42

>  <SCORE.norm>
-0.451974

>  <RMSD>
3.143

$$$$
1NEM.B
 OpenBabel11021811403D
libRbt.so/2013.1/901 2013/11/27
 42 45  0  0  0  0  0  0  0  0999 V2000
    1.8084   -5.6065    1.8894 O   0  0  0  0  0  0  0  0  0  0  0  0
    1.4706   -4.3903    2.5594 C   0  0  0  0  0  0  0  0  0  0  0  0
    1.3916   -3.1901    1.6171 C   0  0  1  0  0  0  0  0  0  0  0  0
    0.1492   -3.1779    0.9202 O   0  0  0  0  0  0  0  0  0  0  0  0
    1.4131   -1.8369    2.3100 C   0  0  1  0  0  0  0  0  0  0  0  0
    2.7436   -1.6257    2.7881 O   0  0  0  0  0  0  0  0  0  0  0  0
    0.9657   -0.9688    1.1490 C   0  0  1  0  0  0  0  0  0  0  0  0
    1.9672   -0.8694    0.1311 O   0  0  0  0  0  0  0  0  0  0  0  0
   -0.2082   -1.8215    0.6535 C   0  0  2  0  0  0  0  0  0  0  0  0
    2.8882   -0.6972    3.8245 C   0  0  2  0  0  0  0  0  0  0  0  0
    2.6490    0.7158    3.2752 C   0  0  2  0  0  0  0  0  0  0  0  0
    3.5234    0.9604    2.0979 N   0  3  0  0  0  0  0  0  0  0  0  0
    2.8625    1.7689    4.3674 C   0  0  1  0  0  0  0  0  0  0  0  0
    1.8071    1.6932    5.3167 O   0  0  0  0  0  0  0  0  0  0  0  0
    4.2058    1.5668    5.0752 C   0  0  2  0  0  0  0  0  0  0  0  0
    5.2794    1.8639    4.1914 O   0  0  0  0  0  0  0  0  0  0  0  0
    4.3170    0.1252    5.5635 C   0  0  1  0  0  0  0  0  0  0  0  0
    4.1618   -0.7772    4.4511 O   0  0  0  0  0  0  0  0  0  0  0  0
    5.6456   -0.1798    6.2326 C   0  0  0  0  0  0  0  0  0  0  0  0
    6.7017   -0.4954    5.2453 N   0  3  0  0  0  0  0  0  0  0  0  0
   -5.2249   -6.5097    3.4124 C   0  0  0  0  0  0  0  0  0  0  0  0
   -5.1283   -2.8385    2.9219 C   0  0  2  0  0  0  0  0  0  0  0  0
   -4.9179   -2.3558    4.3549 C   0  0  2  0  0  0  0  0  0  0  0  0
   -4.3908   -0.9703    4.3575 N   0  3  0  0  0  0  0  0  0  0  0  0
   -3.9375   -3.2697    5.0779 C   0  0  1  0  0  0  0  0  0  0  0  0
   -3.8101   -2.8567    6.4299 O   0  0  0  0  0  0  0  0  0  0  0  0
   -4.4394   -4.7104    5.0137 C   0  0  2  0  0  0  0  0  0  0  0  0
   -3.4954   -5.5794    5.6262 O   0  0  0  0  0  0  0  0  0  0  0  0
   -6.6650   -6.5335    3.7568 N   0  3  0  0  0  0  0  0  0  0  0  0
   -4.6407   -5.1150    3.5546 C   0  0  2  0  0  0  0  0  0  0  0  0
   -5.5483   -4.2003    2.9070 O   0  0  0  0  0  0  0  0  0  0  0  0
   -3.7241    0.4510   -0.7232 C   0  0  2  0  0  0  0  0  0  0  0  0
   -3.5668    1.7964   -1.3219 N   0  3  0  0  0  0  0  0  0  0  0  0
   -4.8987    0.4473    0.2487 C   0  0  0  0  0  0  0  0  0  0  0  0
   -5.0711   -0.9299    0.8739 C   0  0  2  0  0  0  0  0  0  0  0  0
   -6.2043   -0.8668    1.7861 N   0  3  0  0  0  0  0  0  0  0  0  0
   -3.7962   -1.3246    1.6157 C   0  0  1  0  0  0  0  0  0  0  0  0
   -3.9573   -2.6404    2.1804 O   0  0  0  0  0  0  0  0  0  0  0  0
   -2.5904   -1.3210    0.6659 C   0  0  2  0  0  0  0  0  0  0  0  0
   -1.3915   -1.5943    1.4160 O   0  0  0  0  0  0  0  0  0  0  0  0
   -2.4304    0.0290   -0.0286 C   0  0  1  0  0  0  0  0  0  0  0  0
   -1.3833   -0.0514   -0.9865 O   0  0  0  0  0  0  0  0  0  0  0  0
  1  2  1  0  0  0  0
  3  2  1  1  0  0  0
  3  5  1  0  0  0  0
  3  4  1  0  0  0  0
  4  9  1  0  0  0  0
  5  7  1  0  0  0  0
  5  6  1  6  0  0  0
  7  9  1  0  0  0  0
  7  8  1  6  0  0  0
  9 40  1  1  0  0  0
 10  6  1  6  0  0  0
 10 11  1  0  0  0  0
 10 18  1  0  0  0  0
 11 13  1  0  0  0  0
 11 12  1  6  0  0  0
 13 15  1  0  0  0  0
 13 14  1  1  0  0  0
 15 17  1  0  0  0  0
 15 16  1  6  0  0  0
 17 19  1  6  0  0  0
 17 18  1  0  0  0  0
 19 20  1  0  0  0  0
 21 29  1  0  0  0  0
 22 23  1  0  0  0  0
 22 31  1  0  0  0  0
 22 38  1  6  0  0  0
 23 25  1  0  0  0  0
 23 24  1  6  0  0  0
 25 27  1  0  0  0  0
 25 26  1  1  0  0  0
 27 30  1  0  0  0  0
 27 28  1  6  0  0  0
 30 21  1  1  0  0  0
 30 31  1  0  0  0  0
 32 34  1  0  0  0  0
 32 41  1  0  0  0  0
 32 33  1  1  0  0  0
 34 35  1  0  0  0  0
 35 37  1  0  0  0  0
 35 36  1  1  0  0  0
 37 39  1  0  0  0  0
 37 38  1  6  0  0  0
 39 41  1  0  0  0  0
 39 40  1  1  0  0  0
 41 42  1  6  0  0  0
M  CHG  6  12   1  20   1  24   1  29   1  33   1  36   1
M  END
>  <CHROM.1>
60.39969179,79.67002204,-158.78384013,-71.08969673,90.96473667,-115.37760099
-36.16275264,-63.61927915,-77.54076943,-82.76954562,-38.31533307,74.44262272
65.69148151,-84.50882546,63.36021195,72.93287819,57.71447412,89.18410720
67.57240853,-49.93783727,171.05380942,-57.14696822,-0.82325105,-1.62102161
2.78460014,-0.15707888,0.33496658,2.35341279

>  <Name>
1NEM.B

>  <RI>
0

>  <Rbt.Current_Directory>
/home/itssahil/PROJECTS/Mol_Feturizer/New_Systems/rnas/1nem

>  <Rbt.Executable>
rbdock ($Id: //depot/dev/client3/rdock/2013.1/src/exe/rbdock.cxx#4 $)

>  <Rbt.Library>
libRbt.so (2013.1, Build901 2013/11/27)

>  <Rbt.Parameter_File>
/export/apps/rDock/src/rDock_2013.1_src/data/scripts/dock_solv.prm

>  <Rbt.Receptor>
prm/blind_docking_40.prm

>  <SCORE>
-6.37789

>  <SCORE.INTER>
-35.9337

>  <SCORE.INTER.CONST>
1

>  <SCORE.INTER.POLAR>
-4.05223

>  <SCORE.INTER.ROT>
9

>  <SCORE.INTER.SOLV>
34.7897

>  <SCORE.INTER.VDW>
-31.6449

>  <SCORE.INTER.norm>
-0.855565

>  <SCORE.INTRA>
25.7441

>  <SCORE.INTRA.DIHEDRAL>
4.92744

>  <SCORE.INTRA.DIHEDRAL.0>
22.4324

>  <SCORE.INTRA.POLAR>
0.466937

>  <SCORE.INTRA.POLAR.0>
-1.83749

>  <SCORE.INTRA.REPUL>
0

>  <SCORE.INTRA.REPUL.0>
0

>  <SCORE.INTRA.SOLV>
5.76011

>  <SCORE.INTRA.SOLV.lig_0>
-160.638

>  <SCORE.INTRA.VDW>
18.8127

>  <SCORE.INTRA.VDW.0>
-7.61953

>  <SCORE.INTRA.norm>
0.612954

>  <SCORE.RESTR>
3.81175

>  <SCORE.RESTR.CAVITY>
3.81175

>  <SCORE.RESTR.norm>
0.0907559

>  <SCORE.SYSTEM>
0

>  <SCORE.SYSTEM.CONST>
0

>  <SCORE.SYSTEM.DIHEDRAL>
0

>  <SCORE.SYSTEM.SOLV>
0

>  <SCORE.SYSTEM.norm>
0

>  <SCORE.heavy>
42

>  <SCORE.norm>
-0.151855

>  <RMSD>
3.158

$$$$
1NEM.B
 OpenBabel11021811403D
libRbt.so/2013.1/901 2013/11/27
 42 45  0  0  0  0  0  0  0  0999 V2000
    4.8515    0.0916   -1.3400 O   0  0  0  0  0  0  0  0  0  0  0  0
    5.2305    0.9909   -0.2961 C   0  0  0  0  0  0  0  0  0  0  0  0
    4.1373    1.1837    0.7539 C   0  0  1  0  0  0  0  0  0  0  0  0
    2.9025    1.5350    0.1365 O   0  0  0  0  0  0  0  0  0  0  0  0
    3.7866   -0.0684    1.5417 C   0  0  1  0  0  0  0  0  0  0  0  0
    4.8734   -0.3277    2.4332 O   0  0  0  0  0  0  0  0  0  0  0  0
    2.4910    0.4044    2.1740 C   0  0  1  0  0  0  0  0  0  0  0  0
    2.7108    1.4084    3.1704 O   0  0  0  0  0  0  0  0  0  0  0  0
    1.8346    1.0246    0.9350 C   0  0  2  0  0  0  0  0  0  0  0  0
    5.2428    0.7230    3.2800 C   0  0  2  0  0  0  0  0  0  0  0  0
    6.7705    0.7425    3.4254 C   0  0  2  0  0  0  0  0  0  0  0  0
    7.2600   -0.5959    3.8490 N   0  3  0  0  0  0  0  0  0  0  0  0
    7.2117    1.8406    4.3985 C   0  0  1  0  0  0  0  0  0  0  0  0
    7.0058    3.1157    3.8050 O   0  0  0  0  0  0  0  0  0  0  0  0
    6.4356    1.7559    5.7164 C   0  0  2  0  0  0  0  0  0  0  0  0
    6.8068    0.5856    6.4339 O   0  0  0  0  0  0  0  0  0  0  0  0
    4.9369    1.7372    5.4293 C   0  0  1  0  0  0  0  0  0  0  0  0
    4.6237    0.6343    4.5567 O   0  0  0  0  0  0  0  0  0  0  0  0
    4.0887    1.5996    6.6814 C   0  0  0  0  0  0  0  0  0  0  0  0
    4.2198    2.7762    7.5693 N   0  3  0  0  0  0  0  0  0  0  0  0
   -0.8462   -3.1373    2.7873 C   0  0  0  0  0  0  0  0  0  0  0  0
   -1.8001   -0.8872    0.0026 C   0  0  2  0  0  0  0  0  0  0  0  0
   -3.2914   -1.1894   -0.1220 C   0  0  2  0  0  0  0  0  0  0  0  0
   -3.9786   -0.0926   -0.8448 N   0  3  0  0  0  0  0  0  0  0  0  0
   -3.9117   -1.3490    1.2596 C   0  0  1  0  0  0  0  0  0  0  0  0
   -5.2793   -1.7057    1.1292 O   0  0  0  0  0  0  0  0  0  0  0  0
   -3.1592   -2.4273    2.0361 C   0  0  2  0  0  0  0  0  0  0  0  0
   -3.6879   -2.5341    3.3516 O   0  0  0  0  0  0  0  0  0  0  0  0
    0.5876   -2.7695    2.8297 N   0  3  0  0  0  0  0  0  0  0  0  0
   -1.6770   -2.0646    2.1046 C   0  0  2  0  0  0  0  0  0  0  0  0
   -1.1468   -1.8912    0.7748 O   0  0  0  0  0  0  0  0  0  0  0  0
    0.2257    2.1164   -2.8719 C   0  0  2  0  0  0  0  0  0  0  0  0
    1.0184    3.0416   -3.7139 N   0  3  0  0  0  0  0  0  0  0  0  0
   -0.9117    2.8728   -2.1950 C   0  0  0  0  0  0  0  0  0  0  0  0
   -1.7344    1.9340   -1.3237 C   0  0  2  0  0  0  0  0  0  0  0  0
   -2.7998    2.7141   -0.7100 N   0  3  0  0  0  0  0  0  0  0  0  0
   -0.8414    1.3002   -0.2597 C   0  0  1  0  0  0  0  0  0  0  0  0
   -1.6212    0.3920    0.5425 O   0  0  0  0  0  0  0  0  0  0  0  0
    0.3219    0.5376   -0.9089 C   0  0  2  0  0  0  0  0  0  0  0  0
    1.2003    0.0419    0.1194 O   0  0  0  0  0  0  0  0  0  0  0  0
    1.1277    1.4374   -1.8425 C   0  0  1  0  0  0  0  0  0  0  0  0
    2.1130    0.6633   -2.5138 O   0  0  0  0  0  0  0  0  0  0  0  0
  1  2  1  0  0  0  0
  3  2  1  6  0  0  0
  3  5  1  0  0  0  0
  3  4  1  0  0  0  0
  4  9  1  0  0  0  0
  5  7  1  0  0  0  0
  5  6  1  1  0  0  0
  7  9  1  0  0  0  0
  7  8  1  1  0  0  0
  9 40  1  6  0  0  0
 10  6  1  6  0  0  0
 10 11  1  0  0  0  0
 10 18  1  0  0  0  0
 11 13  1  0  0  0  0
 11 12  1  1  0  0  0
 13 15  1  0  0  0  0
 13 14  1  6  0  0  0
 15 17  1  0  0  0  0
 15 16  1  6  0  0  0
 17 19  1  1  0  0  0
 17 18  1  0  0  0  0
 19 20  1  0  0  0  0
 21 29  1  0  0  0  0
 22 23  1  0  0  0  0
 22 31  1  0  0  0  0
 22 38  1  1  0  0  0
 23 25  1  0  0  0  0
 23 24  1  1  0  0  0
 25 27  1  0  0  0  0
 25 26  1  6  0  0  0
 27 30  1  0  0  0  0
 27 28  1  1  0  0  0
 30 21  1  6  0  0  0
 30 31  1  0  0  0  0
 32 34  1  0  0  0  0
 32 41  1  0  0  0  0
 32 33  1  1  0  0  0
 34 35  1  0  0  0  0
 35 37  1  0  0  0  0
 35 36  1  1  0  0  0
 37 39  1  0  0  0  0
 37 38  1  6  0  0  0
 39 41  1  0  0  0  0
 39 40  1  1  0  0  0
 41 42  1  6  0  0  0
M  CHG  6  12   1  20   1  24   1  29   1  33   1  36   1
M  END
>  <CHROM.1>
61.62577963,-52.02105002,54.52283054,-142.06376554,-170.07007443,-77.94908461
-157.88494623,69.36495653,67.86097503,65.25166445,43.54325823,179.43774867
166.33644218,-123.00280974,44.20089477,-166.42484080,69.36431916,-168.60197573
-158.13811880,82.74485811,-62.27222173,-51.71989422,1.60624865,0.43297584
1.55016476,-0.39661686,-0.34613813,-1.20930122

>  <Name>
1NEM.B

>  <RI>
0

>  <Rbt.Current_Directory>
/home/itssahil/PROJECTS/Mol_Feturizer/New_Systems/rnas/1nem

>  <Rbt.Executable>
rbdock ($Id: //depot/dev/client3/rdock/2013.1/src/exe/rbdock.cxx#4 $)

>  <Rbt.Library>
libRbt.so (2013.1, Build901 2013/11/27)

>  <Rbt.Parameter_File>
/export/apps/rDock/src/rDock_2013.1_src/data/scripts/dock_solv.prm

>  <Rbt.Receptor>
prm/pocket_docking_3.prm

>  <SCORE>
-18.7386

>  <SCORE.INTER>
-29.7215

>  <SCORE.INTER.CONST>
1

>  <SCORE.INTER.POLAR>
-4.75869

>  <SCORE.INTER.ROT>
9

>  <SCORE.INTER.SOLV>
27.1609

>  <SCORE.INTER.VDW>
-22.6057

>  <SCORE.INTER.norm>
-0.707655

>  <SCORE.INTRA>
10.8553

>  <SCORE.INTRA.DIHEDRAL>
1.73648

>  <SCORE.INTRA.DIHEDRAL.0>
22.4324

>  <SCORE.INTRA.POLAR>
0.812776

>  <SCORE.INTRA.POLAR.0>
-1.83749

>  <SCORE.INTRA.REPUL>
0

>  <SCORE.INTRA.REPUL.0>
0

>  <SCORE.INTRA.SOLV>
0.536197

>  <SCORE.INTRA.SOLV.lig_0>
-160.638

>  <SCORE.INTRA.VDW>
6.9555

>  <SCORE.INTRA.VDW.0>
-7.61953

>  <SCORE.INTRA.norm>
0.258459

>  <SCORE.RESTR>
0.12766

>  <SCORE.RESTR.CAVITY>
0.12766

>  <SCORE.RESTR.norm>
0.00303953

>  <SCORE.SYSTEM>
0

>  <SCORE.SYSTEM.CONST>
0

>  <SCORE.SYSTEM.DIHEDRAL>
0

>  <SCORE.SYSTEM.SOLV>
0

>  <SCORE.SYSTEM.norm>
0

>  <SCORE.heavy>
42

>  <SCORE.norm>
-0.446157

>  <RMSD>
3.160

$$$$
1NEM.B
 OpenBabel11021811403D
libRbt.so/2013.1/901 2013/11/27
 42 45  0  0  0  0  0  0  0  0999 V2000
    2.9493   -3.6115    3.3704 O   0  0  0  0  0  0  0  0  0  0  0  0
    1.7785   -4.1349    2.7399 C   0  0  0  0  0  0  0  0  0  0  0  0
    1.2630   -3.2497    1.6062 C   0  0  1  0  0  0  0  0  0  0  0  0
   -0.1396   -3.4245    1.4287 O   0  0  0  0  0  0  0  0  0  0  0  0
    1.3968   -1.7560    1.8565 C   0  0  1  0  0  0  0  0  0  0  0  0
    2.7841   -1.4296    1.7470 O   0  0  0  0  0  0  0  0  0  0  0  0
    0.4928   -1.2480    0.7489 C   0  0  1  0  0  0  0  0  0  0  0  0
    1.0627   -1.4493   -0.5487 O   0  0  0  0  0  0  0  0  0  0  0  0
   -0.6940   -2.1960    0.9575 C   0  0  2  0  0  0  0  0  0  0  0  0
    3.1424   -0.1248    2.1027 C   0  0  2  0  0  0  0  0  0  0  0  0
    3.7682   -0.1360    3.5039 C   0  0  2  0  0  0  0  0  0  0  0  0
    2.8568   -0.8118    4.4645 N   0  3  0  0  0  0  0  0  0  0  0  0
    4.1154    1.2857    3.9575 C   0  0  1  0  0  0  0  0  0  0  0  0
    5.2161    1.7729    3.2015 O   0  0  0  0  0  0  0  0  0  0  0  0
    2.9192    2.2275    3.7888 C   0  0  2  0  0  0  0  0  0  0  0  0
    1.8894    1.8877    4.7088 O   0  0  0  0  0  0  0  0  0  0  0  0
    2.3916    2.1362    2.3598 C   0  0  1  0  0  0  0  0  0  0  0  0
    2.0400    0.7718    2.0585 O   0  0  0  0  0  0  0  0  0  0  0  0
    1.1667    3.0003    2.1170 C   0  0  0  0  0  0  0  0  0  0  0  0
    1.5227    4.4255    1.9385 N   0  3  0  0  0  0  0  0  0  0  0  0
   -5.3424   -4.3920    0.9614 C   0  0  0  0  0  0  0  0  0  0  0  0
   -4.9738   -2.3757    4.0477 C   0  0  2  0  0  0  0  0  0  0  0  0
   -4.8838   -3.4721    5.1064 C   0  0  2  0  0  0  0  0  0  0  0  0
   -4.2770   -2.9375    6.3487 N   0  3  0  0  0  0  0  0  0  0  0  0
   -4.0405   -4.6309    4.5914 C   0  0  1  0  0  0  0  0  0  0  0  0
   -4.0288   -5.6752    5.5525 O   0  0  0  0  0  0  0  0  0  0  0  0
   -4.6193   -5.1374    3.2722 C   0  0  2  0  0  0  0  0  0  0  0  0
   -3.7979   -6.1736    2.7496 O   0  0  0  0  0  0  0  0  0  0  0  0
   -6.7083   -4.9232    1.1735 N   0  3  0  0  0  0  0  0  0  0  0  0
   -4.6927   -3.9848    2.2724 C   0  0  2  0  0  0  0  0  0  0  0  0
   -5.4715   -2.9019    2.8204 O   0  0  0  0  0  0  0  0  0  0  0  0
   -4.2605    0.0232    0.0768 C   0  0  2  0  0  0  0  0  0  0  0  0
   -4.1826    1.0051   -1.0291 N   0  3  0  0  0  0  0  0  0  0  0  0
   -4.9496    0.6506    1.2832 C   0  0  0  0  0  0  0  0  0  0  0  0
   -5.0347   -0.3475    2.4295 C   0  0  2  0  0  0  0  0  0  0  0  0
   -5.7013    0.3100    3.5447 N   0  3  0  0  0  0  0  0  0  0  0  0
   -3.6318   -0.8020    2.8250 C   0  0  1  0  0  0  0  0  0  0  0  0
   -3.7226   -1.7673    3.8910 O   0  0  0  0  0  0  0  0  0  0  0  0
   -2.9054   -1.4307    1.6278 C   0  0  2  0  0  0  0  0  0  0  0  0
   -1.5531   -1.7522    2.0054 O   0  0  0  0  0  0  0  0  0  0  0  0
   -2.8623   -0.4765    0.4368 C   0  0  1  0  0  0  0  0  0  0  0  0
   -2.2942   -1.1417   -0.6836 O   0  0  0  0  0  0  0  0  0  0  0  0
  1  2  1  0  0  0  0
  3  2  1  1  0  0  0
  3  5  1  0  0  0  0
  3  4  1  0  0  0  0
  4  9  1  0  0  0  0
  5  7  1  0  0  0  0
  5  6  1  6  0  0  0
  7  9  1  0  0  0  0
  7  8  1  6  0  0  0
  9 40  1  1  0  0  0
 10  6  1  1  0  0  0
 10 11  1  0  0  0  0
 10 18  1  0  0  0  0
 11 13  1  0  0  0  0
 11 12  1  1  0  0  0
 13 15  1  0  0  0  0
 13 14  1  6  0  0  0
 15 17  1  0  0  0  0
 15 16  1  1  0  0  0
 17 19  1  1  0  0  0
 17 18  1  0  0  0  0
 19 20  1  0  0  0  0
 21 29  1  0  0  0  0
 22 23  1  0  0  0  0
 22 31  1  0  0  0  0
 22 38  1  6  0  0  0
 23 25  1  0  0  0  0
 23 24  1  1  0  0  0
 25 27  1  0  0  0  0
 25 26  1  1  0  0  0
 27 30  1  0  0  0  0
 27 28  1  6  0  0  0
 30 21  1  6  0  0  0
 30 31  1  0  0  0  0
 32 34  1  0  0  0  0
 32 41  1  0  0  0  0
 32 33  1  6  0  0  0
 34 35  1  0  0  0  0
 35 37  1  0  0  0  0
 35 36  1  1  0  0  0
 37 39  1  0  0  0  0
 37 38  1  1  0  0  0
 39 41  1  0  0  0  0
 39 40  1  1  0  0  0
 41 42  1  6  0  0  0
M  CHG  6  12   1  20   1  24   1  29   1  33   1  36   1
M  END
>  <CHROM.1>
-34.82506696,-153.18099485,-172.56237158,102.16352835,61.57226860,-127.59722462
91.36354368,-58.85256540,72.79038867,78.14761942,-64.35070602,57.56991550
-65.03398668,174.04644714,-26.78622803,-169.07297025,-36.93350710,-16.91171890
-26.74701319,18.72253435,-172.66887489,67.41380977,-1.22863739,-1.39302082
2.47329879,-0.45950152,0.18077993,2.76460498

>  <Name>
1NEM.B

>  <RI>
0

>  <Rbt.Current_Directory>
/home/itssahil/PROJECTS/Mol_Feturizer/New_Systems/rnas/1nem

>  <Rbt.Executable>
rbdock ($Id: //depot/dev/client3/rdock/2013.1/src/exe/rbdock.cxx#4 $)

>  <Rbt.Library>
libRbt.so (2013.1, Build901 2013/11/27)

>  <Rbt.Parameter_File>
/export/apps/rDock/src/rDock_2013.1_src/data/scripts/dock_solv.prm

>  <Rbt.Receptor>
prm/blind_docking_20.prm

>  <SCORE>
-26.1343

>  <SCORE.INTER>
-50.9212

>  <SCORE.INTER.CONST>
1

>  <SCORE.INTER.POLAR>
-7.42677

>  <SCORE.INTER.ROT>
9

>  <SCORE.INTER.SOLV>
48.4243

>  <SCORE.INTER.VDW>
-34.9331

>  <SCORE.INTER.norm>
-1.21241

>  <SCORE.INTRA>
20.9299

>  <SCORE.INTRA.DIHEDRAL>
16.3839

>  <SCORE.INTRA.DIHEDRAL.0>
22.4324

>  <SCORE.INTRA.POLAR>
0.2713

>  <SCORE.INTRA.POLAR.0>
-1.83749

>  <SCORE.INTRA.REPUL>
0

>  <SCORE.INTRA.REPUL.0>
0

>  <SCORE.INTRA.SOLV>
-1.55913

>  <SCORE.INTRA.SOLV.lig_0>
-160.638

>  <SCORE.INTRA.VDW>
12.5951

>  <SCORE.INTRA.VDW.0>
-7.61953

>  <SCORE.INTRA.norm>
0.498331

>  <SCORE.RESTR>
3.85708

>  <SCORE.RESTR.CAVITY>
3.85708

>  <SCORE.RESTR.norm>
0.0918352

>  <SCORE.SYSTEM>
0

>  <SCORE.SYSTEM.CONST>
0

>  <SCORE.SYSTEM.DIHEDRAL>
0

>  <SCORE.SYSTEM.SOLV>
0

>  <SCORE.SYSTEM.norm>
0

>  <SCORE.heavy>
42

>  <SCORE.norm>
-0.622245

>  <RMSD>
3.175

$$$$
1NEM.B
 OpenBabel11021811403D
libRbt.so/2013.1/901 2013/11/27
 42 45  0  0  0  0  0  0  0  0999 V2000
    3.7872    3.0402   -2.7656 O   0  0  0  0  0  0  0  0  0  0  0  0
    3.7721    2.0172   -1.7679 C   0  0  0  0  0  0  0  0  0  0  0  0
    2.7543    2.2785   -0.6585 C   0  0  1  0  0  0  0  0  0  0  0  0
    1.4260    2.2222   -1.1703 O   0  0  0  0  0  0  0  0  0  0  0  0
    2.7427    1.2377    0.4498 C   0  0  1  0  0  0  0  0  0  0  0  0
    3.9303    1.4268    1.2225 O   0  0  0  0  0  0  0  0  0  0  0  0
    1.4339    1.6165    1.1171 C   0  0  1  0  0  0  0  0  0  0  0  0
    1.5193    2.8713    1.8008 O   0  0  0  0  0  0  0  0  0  0  0  0
    0.5603    1.7556   -0.1352 C   0  0  2  0  0  0  0  0  0  0  0  0
    4.2635    0.3953    2.1070 C   0  0  2  0  0  0  0  0  0  0  0  0
    3.1940    0.3042    3.2039 C   0  0  2  0  0  0  0  0  0  0  0  0
    3.0053    1.6326    3.8443 N   0  3  0  0  0  0  0  0  0  0  0  0
    3.5569   -0.7730    4.2313 C   0  0  1  0  0  0  0  0  0  0  0  0
    3.4159   -2.0598    3.6441 O   0  0  0  0  0  0  0  0  0  0  0  0
    4.9915   -0.5934    4.7372 C   0  0  2  0  0  0  0  0  0  0  0  0
    5.0933    0.5856    5.5256 O   0  0  0  0  0  0  0  0  0  0  0  0
    5.9477   -0.5106    3.5507 C   0  0  1  0  0  0  0  0  0  0  0  0
    5.5516    0.5691    2.6828 O   0  0  0  0  0  0  0  0  0  0  0  0
    7.3914   -0.2775    3.9599 C   0  0  0  0  0  0  0  0  0  0  0  0
    8.2890   -0.1802    2.7874 N   0  3  0  0  0  0  0  0  0  0  0  0
   -3.5428   -3.5537    3.7208 C   0  0  0  0  0  0  0  0  0  0  0  0
   -0.9370   -1.8406    1.7202 C   0  0  2  0  0  0  0  0  0  0  0  0
    0.0771   -2.9664    1.5325 C   0  0  2  0  0  0  0  0  0  0  0  0
    0.9733   -2.6647    0.3909 N   0  3  0  0  0  0  0  0  0  0  0  0
   -0.6426   -4.2833    1.2743 C   0  0  1  0  0  0  0  0  0  0  0  0
    0.3068   -5.3340    1.1789 O   0  0  0  0  0  0  0  0  0  0  0  0
   -1.6222   -4.5620    2.4122 C   0  0  2  0  0  0  0  0  0  0  0  0
   -2.3481   -5.7548    2.1444 O   0  0  0  0  0  0  0  0  0  0  0  0
   -4.6849   -4.4306    3.3747 N   0  3  0  0  0  0  0  0  0  0  0  0
   -2.5911   -3.3891    2.5487 C   0  0  2  0  0  0  0  0  0  0  0  0
   -1.8601   -2.1636    2.7569 O   0  0  0  0  0  0  0  0  0  0  0  0
   -3.3722    1.8184   -1.3113 C   0  0  2  0  0  0  0  0  0  0  0  0
   -3.8615    3.2022   -1.5083 N   0  3  0  0  0  0  0  0  0  0  0  0
   -4.0529    1.1926   -0.0992 C   0  0  0  0  0  0  0  0  0  0  0  0
   -3.5574   -0.2305    0.1169 C   0  0  2  0  0  0  0  0  0  0  0  0
   -4.2438   -0.7694    1.2825 N   0  3  0  0  0  0  0  0  0  0  0  0
   -2.0454   -0.2252    0.3294 C   0  0  1  0  0  0  0  0  0  0  0  0
   -1.5807   -1.5778    0.5050 O   0  0  0  0  0  0  0  0  0  0  0  0
   -1.3291    0.4088   -0.8710 C   0  0  2  0  0  0  0  0  0  0  0  0
    0.0820    0.4933   -0.5944 O   0  0  0  0  0  0  0  0  0  0  0  0
   -1.8524    1.8145   -1.1552 C   0  0  1  0  0  0  0  0  0  0  0  0
   -1.2530    2.3125   -2.3440 O   0  0  0  0  0  0  0  0  0  0  0  0
  1  2  1  0  0  0  0
  3  2  1  6  0  0  0
  3  5  1  0  0  0  0
  3  4  1  0  0  0  0
  4  9  1  0  0  0  0
  5  7  1  0  0  0  0
  5  6  1  1  0  0  0
  7  9  1  0  0  0  0
  7  8  1  6  0  0  0
  9 40  1  6  0  0  0
 10  6  1  6  0  0  0
 10 11  1  0  0  0  0
 10 18  1  0  0  0  0
 11 13  1  0  0  0  0
 11 12  1  1  0  0  0
 13 15  1  0  0  0  0
 13 14  1  6  0  0  0
 15 17  1  0  0  0  0
 15 16  1  6  0  0  0
 17 19  1  1  0  0  0
 17 18  1  0  0  0  0
 19 20  1  0  0  0  0
 21 29  1  0  0  0  0
 22 23  1  0  0  0  0
 22 31  1  0  0  0  0
 22 38  1  6  0  0  0
 23 25  1  0  0  0  0
 23 24  1  6  0  0  0
 25 27  1  0  0  0  0
 25 26  1  1  0  0  0
 27 30  1  0  0  0  0
 27 28  1  6  0  0  0
 30 21  1  1  0  0  0
 30 31  1  0  0  0  0
 32 34  1  0  0  0  0
 32 41  1  0  0  0  0
 32 33  1  1  0  0  0
 34 35  1  0  0  0  0
 35 37  1  0  0  0  0
 35 36  1  1  0  0  0
 37 39  1  0  0  0  0
 37 38  1  6  0  0  0
 39 41  1  0  0  0  0
 39 40  1  1  0  0  0
 41 42  1  6  0  0  0
M  CHG  6  12   1  20   1  24   1  29   1  33   1  36   1
M  END
>  <CHROM.1>
-171.60374190,65.93369352,-166.37868340,-65.86988653,179.37680169,-114.50078255
179.46785168,65.91637492,72.72107360,-179.07714709,63.74121811,-81.49621357
-156.08107266,-151.42580134,77.67676551,-66.65427255,152.30333186,75.77162753
-59.06802402,-120.50856348,-98.41164178,177.06633218,0.79298864,-0.35749744
1.32874465,0.09366630,-0.31523973,-0.63838161

>  <Name>
1NEM.B

>  <RI>
0

>  <Rbt.Current_Directory>
/home/itssahil/PROJECTS/Mol_Feturizer/New_Systems/rnas/1nem

>  <Rbt.Executable>
rbdock ($Id: //depot/dev/client3/rdock/2013.1/src/exe/rbdock.cxx#4 $)

>  <Rbt.Library>
libRbt.so (2013.1, Build901 2013/11/27)

>  <Rbt.Parameter_File>
/export/apps/rDock/src/rDock_2013.1_src/data/scripts/dock_solv.prm

>  <Rbt.Receptor>
prm/pocket_docking_5.prm

>  <SCORE>
-46.8397

>  <SCORE.INTER>
-56.4198

>  <SCORE.INTER.CONST>
1

>  <SCORE.INTER.POLAR>
-7.7493

>  <SCORE.INTER.ROT>
9

>  <SCORE.INTER.SOLV>
34.3272

>  <SCORE.INTER.VDW>
-32.8246

>  <SCORE.INTER.norm>
-1.34333

>  <SCORE.INTRA>
9.58004

>  <SCORE.INTRA.DIHEDRAL>
10.9139

>  <SCORE.INTRA.DIHEDRAL.0>
22.4324

>  <SCORE.INTRA.POLAR>
-0.447961

>  <SCORE.INTRA.POLAR.0>
-1.83749

>  <SCORE.INTRA.REPUL>
0

>  <SCORE.INTRA.REPUL.0>
0

>  <SCORE.INTRA.SOLV>
0.264596

>  <SCORE.INTRA.SOLV.lig_0>
-160.638

>  <SCORE.INTRA.VDW>
5.51385

>  <SCORE.INTRA.VDW.0>
-7.61953

>  <SCORE.INTRA.norm>
0.228096

>  <SCORE.RESTR>
0

>  <SCORE.RESTR.CAVITY>
0

>  <SCORE.RESTR.norm>
0

>  <SCORE.SYSTEM>
0

>  <SCORE.SYSTEM.CONST>
0

>  <SCORE.SYSTEM.DIHEDRAL>
0

>  <SCORE.SYSTEM.SOLV>
0

>  <SCORE.SYSTEM.norm>
0

>  <SCORE.heavy>
42

>  <SCORE.norm>
-1.11523

>  <RMSD>
3.181

$$$$
1NEM.B
 OpenBabel11021811403D
libRbt.so/2013.1/901 2013/11/27
 42 45  0  0  0  0  0  0  0  0999 V2000
    2.6980   -5.3337    1.9599 O   0  0  0  0  0  0  0  0  0  0  0  0
    1.4047   -4.8145    2.2757 C   0  0  0  0  0  0  0  0  0  0  0  0
    1.0835   -3.5171    1.5353 C   0  0  1  0  0  0  0  0  0  0  0  0
   -0.2866   -3.4853    1.1462 O   0  0  0  0  0  0  0  0  0  0  0  0
    1.2356   -2.2557    2.3703 C   0  0  1  0  0  0  0  0  0  0  0  0
    2.6357   -2.0358    2.5563 O   0  0  0  0  0  0  0  0  0  0  0  0
    0.5126   -1.2803    1.4605 C   0  0  1  0  0  0  0  0  0  0  0  0
    1.2487   -1.0115    0.2625 O   0  0  0  0  0  0  0  0  0  0  0  0
   -0.7254   -2.1266    1.1411 C   0  0  2  0  0  0  0  0  0  0  0  0
    3.0012   -0.7961    3.0920 C   0  0  2  0  0  0  0  0  0  0  0  0
    4.5252   -0.7499    3.2669 C   0  0  2  0  0  0  0  0  0  0  0  0
    4.9844   -1.9246    4.0540 N   0  3  0  0  0  0  0  0  0  0  0  0
    4.9603    0.5695    3.9130 C   0  0  1  0  0  0  0  0  0  0  0  0
    4.7875    1.6344    2.9873 O   0  0  0  0  0  0  0  0  0  0  0  0
    4.1526    0.8561    5.1826 C   0  0  2  0  0  0  0  0  0  0  0  0
    4.4893   -0.0753    6.2029 O   0  0  0  0  0  0  0  0  0  0  0  0
    2.6609    0.7716    4.8719 C   0  0  1  0  0  0  0  0  0  0  0  0
    2.3514   -0.5259    4.3272 O   0  0  0  0  0  0  0  0  0  0  0  0
    1.7818    0.9899    6.0908 C   0  0  0  0  0  0  0  0  0  0  0  0
    1.6693    2.4233    6.4411 N   0  3  0  0  0  0  0  0  0  0  0  0
   -7.5765   -5.2446    3.8509 C   0  0  0  0  0  0  0  0  0  0  0  0
   -4.6579   -3.2019    4.8692 C   0  0  2  0  0  0  0  0  0  0  0  0
   -3.9778   -4.1372    5.8660 C   0  0  2  0  0  0  0  0  0  0  0  0
   -2.5623   -3.7410    6.0580 N   0  3  0  0  0  0  0  0  0  0  0  0
   -4.0357   -5.5731    5.3621 C   0  0  1  0  0  0  0  0  0  0  0  0
   -3.4701   -6.4412    6.3321 O   0  0  0  0  0  0  0  0  0  0  0  0
   -5.4875   -5.9617    5.0919 C   0  0  2  0  0  0  0  0  0  0  0  0
   -5.5445   -7.2772    4.5556 O   0  0  0  0  0  0  0  0  0  0  0  0
   -7.7754   -6.4753    3.0517 N   0  3  0  0  0  0  0  0  0  0  0  0
   -6.1031   -4.9748    4.1019 C   0  0  2  0  0  0  0  0  0  0  0  0
   -5.9924   -3.6294    4.6090 O   0  0  0  0  0  0  0  0  0  0  0  0
   -4.6666   -0.3953    0.5357 C   0  0  2  0  0  0  0  0  0  0  0  0
   -4.7771    0.8743   -0.2187 N   0  3  0  0  0  0  0  0  0  0  0  0
   -5.5449   -0.3399    1.7806 C   0  0  0  0  0  0  0  0  0  0  0  0
   -5.4395   -1.6386    2.5677 C   0  0  2  0  0  0  0  0  0  0  0  0
   -6.2988   -1.5220    3.7374 N   0  3  0  0  0  0  0  0  0  0  0  0
   -3.9887   -1.8777    2.9795 C   0  0  1  0  0  0  0  0  0  0  0  0
   -3.8930   -3.1223    3.6993 O   0  0  0  0  0  0  0  0  0  0  0  0
   -3.0745   -1.9290    1.7475 C   0  0  2  0  0  0  0  0  0  0  0  0
   -1.7044   -2.0505    2.1750 O   0  0  0  0  0  0  0  0  0  0  0  0
   -3.2077   -0.6662    0.9001 C   0  0  1  0  0  0  0  0  0  0  0  0
   -2.4417   -0.8096   -0.2887 O   0  0  0  0  0  0  0  0  0  0  0  0
  1  2  1  0  0  0  0
  3  2  1  1  0  0  0
  3  5  1  0  0  0  0
  3  4  1  0  0  0  0
  4  9  1  0  0  0  0
  5  7  1  0  0  0  0
  5  6  1  6  0  0  0
  7  9  1  0  0  0  0
  7  8  1  6  0  0  0
  9 40  1  1  0  0  0
 10  6  1  1  0  0  0
 10 11  1  0  0  0  0
 10 18  1  0  0  0  0
 11 13  1  0  0  0  0
 11 12  1  1  0  0  0
 13 15  1  0  0  0  0
 13 14  1  6  0  0  0
 15 17  1  0  0  0  0
 15 16  1  1  0  0  0
 17 19  1  1  0  0  0
 17 18  1  0  0  0  0
 19 20  1  0  0  0  0
 21 29  1  0  0  0  0
 22 23  1  0  0  0  0
 22 31  1  0  0  0  0
 22 38  1  6  0  0  0
 23 25  1  0  0  0  0
 23 24  1  6  0  0  0
 25 27  1  0  0  0  0
 25 26  1  1  0  0  0
 27 30  1  0  0  0  0
 27 28  1  6  0  0  0
 30 21  1  1  0  0  0
 30 31  1  0  0  0  0
 32 34  1  0  0  0  0
 32 41  1  0  0  0  0
 32 33  1  1  0  0  0
 34 35  1  0  0  0  0
 35 37  1  0  0  0  0
 35 36  1  1  0  0  0
 37 39  1  0  0  0  0
 37 38  1  6  0  0  0
 39 41  1  0  0  0  0
 39 40  1  1  0  0  0
 41 42  1  6  0  0  0
M  CHG  6  12   1  20   1  24   1  29   1  33   1  36   1
M  END
>  <CHROM.1>
-70.64546522,142.16270759,168.82477491,178.10073734,174.23096134,-107.39792184
-53.87273040,55.51173012,63.05673453,78.16748220,38.27283167,-71.42112540
173.82900762,-150.52065236,-5.61255503,66.60124543,-44.14112029,105.36549396
-85.00848320,-59.79411320,179.30599081,55.55584135,-1.24611575,-2.22204582
3.30533893,-0.30789587,0.27094812,2.46565031

>  <Name>
1NEM.B

>  <RI>
0

>  <Rbt.Current_Directory>
/home/itssahil/PROJECTS/Mol_Feturizer/New_Systems/rnas/1nem

>  <Rbt.Executable>
rbdock ($Id: //depot/dev/client3/rdock/2013.1/src/exe/rbdock.cxx#4 $)

>  <Rbt.Library>
libRbt.so (2013.1, Build901 2013/11/27)

>  <Rbt.Parameter_File>
/export/apps/rDock/src/rDock_2013.1_src/data/scripts/dock_solv.prm

>  <Rbt.Receptor>
prm/blind_docking_40.prm

>  <SCORE>
-23.0485

>  <SCORE.INTER>
-41.3842

>  <SCORE.INTER.CONST>
1

>  <SCORE.INTER.POLAR>
-7.1003

>  <SCORE.INTER.ROT>
9

>  <SCORE.INTER.SOLV>
50.3345

>  <SCORE.INTER.VDW>
-30.3

>  <SCORE.INTER.norm>
-0.985339

>  <SCORE.INTRA>
15.3688

>  <SCORE.INTRA.DIHEDRAL>
5.52842

>  <SCORE.INTRA.DIHEDRAL.0>
22.4324

>  <SCORE.INTRA.POLAR>
0.714567

>  <SCORE.INTRA.POLAR.0>
-1.83749

>  <SCORE.INTRA.REPUL>
0

>  <SCORE.INTRA.REPUL.0>
0

>  <SCORE.INTRA.SOLV>
-3.35405

>  <SCORE.INTRA.SOLV.lig_0>
-160.638

>  <SCORE.INTRA.VDW>
11.8521

>  <SCORE.INTRA.VDW.0>
-7.61953

>  <SCORE.INTRA.norm>
0.365924

>  <SCORE.RESTR>
2.96688

>  <SCORE.RESTR.CAVITY>
2.96688

>  <SCORE.RESTR.norm>
0.0706399

>  <SCORE.SYSTEM>
0

>  <SCORE.SYSTEM.CONST>
0

>  <SCORE.SYSTEM.DIHEDRAL>
0

>  <SCORE.SYSTEM.SOLV>
0

>  <SCORE.SYSTEM.norm>
0

>  <SCORE.heavy>
42

>  <SCORE.norm>
-0.548775

>  <RMSD>
3.243

$$$$
1NEM.B
 OpenBabel11021811403D
libRbt.so/2013.1/901 2013/11/27
 42 45  0  0  0  0  0  0  0  0999 V2000
    2.3749    3.1608    1.5235 O   0  0  0  0  0  0  0  0  0  0  0  0
    3.5676    2.4882    1.9324 C   0  0  0  0  0  0  0  0  0  0  0  0
    3.2958    1.1411    2.6004 C   0  0  1  0  0  0  0  0  0  0  0  0
    2.0800    0.5762    2.1184 O   0  0  0  0  0  0  0  0  0  0  0  0
    4.3233    0.0628    2.2953 C   0  0  1  0  0  0  0  0  0  0  0  0
    5.5162    0.3994    3.0073 O   0  0  0  0  0  0  0  0  0  0  0  0
    3.5548   -1.1456    2.7961 C   0  0  1  0  0  0  0  0  0  0  0  0
    3.4331   -1.1557    4.2224 O   0  0  0  0  0  0  0  0  0  0  0  0
    2.1959   -0.8464    2.1522 C   0  0  2  0  0  0  0  0  0  0  0  0
    5.4002    0.4949    4.3982 C   0  0  2  0  0  0  0  0  0  0  0  0
    5.1324    1.9559    4.7845 C   0  0  2  0  0  0  0  0  0  0  0  0
    6.1678    2.8398    4.1871 N   0  3  0  0  0  0  0  0  0  0  0  0
    5.0634    2.1136    6.3069 C   0  0  1  0  0  0  0  0  0  0  0  0
    3.8738    1.5088    6.7964 O   0  0  0  0  0  0  0  0  0  0  0  0
    6.2803    1.4761    6.9845 C   0  0  2  0  0  0  0  0  0  0  0  0
    7.4571    2.2154    6.6832 O   0  0  0  0  0  0  0  0  0  0  0  0
    6.4354    0.0341    6.5095 C   0  0  1  0  0  0  0  0  0  0  0  0
    6.5516    0.0059    5.0737 O   0  0  0  0  0  0  0  0  0  0  0  0
    7.6536   -0.6607    7.0920 C   0  0  0  0  0  0  0  0  0  0  0  0
    7.3140   -1.4578    8.2916 N   0  3  0  0  0  0  0  0  0  0  0  0
   -3.8165   -3.3677    3.2701 C   0  0  0  0  0  0  0  0  0  0  0  0
   -0.4200   -2.4564    2.1040 C   0  0  2  0  0  0  0  0  0  0  0  0
    0.2165   -3.8351    1.9459 C   0  0  2  0  0  0  0  0  0  0  0  0
    1.4031   -3.7542    1.0611 N   0  3  0  0  0  0  0  0  0  0  0  0
   -0.7893   -4.8125    1.3524 C   0  0  1  0  0  0  0  0  0  0  0  0
   -0.2113   -6.1069    1.2828 O   0  0  0  0  0  0  0  0  0  0  0  0
   -2.0450   -4.8438    2.2209 C   0  0  2  0  0  0  0  0  0  0  0  0
   -3.0164   -5.7016    1.6361 O   0  0  0  0  0  0  0  0  0  0  0  0
   -3.4386   -3.6483    4.6742 N   0  3  0  0  0  0  0  0  0  0  0  0
   -2.6134   -3.4315    2.3454 C   0  0  2  0  0  0  0  0  0  0  0  0
   -1.6133   -2.5397    2.8786 O   0  0  0  0  0  0  0  0  0  0  0  0
    0.6607    1.6491   -1.0986 C   0  0  2  0  0  0  0  0  0  0  0  0
    1.1497    3.0323   -1.3002 N   0  3  0  0  0  0  0  0  0  0  0  0
   -0.6718    1.6702   -0.3582 C   0  0  0  0  0  0  0  0  0  0  0  0
   -1.1859    0.2538   -0.1418 C   0  0  2  0  0  0  0  0  0  0  0  0
   -2.4556    0.3435    0.5653 N   0  3  0  0  0  0  0  0  0  0  0  0
   -0.1682   -0.5482    0.6659 C   0  0  1  0  0  0  0  0  0  0  0  0
   -0.6493   -1.8950    0.8421 O   0  0  0  0  0  0  0  0  0  0  0  0
    1.1900   -0.5808   -0.0485 C   0  0  2  0  0  0  0  0  0  0  0  0
    2.1520   -1.2534    0.7863 O   0  0  0  0  0  0  0  0  0  0  0  0
    1.7018    0.8277   -0.3399 C   0  0  1  0  0  0  0  0  0  0  0  0
    2.8949    0.7493   -1.1086 O   0  0  0  0  0  0  0  0  0  0  0  0
  1  2  1  0  0  0  0
  3  2  1  6  0  0  0
  3  5  1  0  0  0  0
  3  4  1  0  0  0  0
  4  9  1  0  0  0  0
  5  7  1  0  0  0  0
  5  6  1  1  0  0  0
  7  9  1  0  0  0  0
  7  8  1  1  0  0  0
  9 40  1  6  0  0  0
 10  6  1  6  0  0  0
 10 11  1  0  0  0  0
 10 18  1  0  0  0  0
 11 13  1  0  0  0  0
 11 12  1  1  0  0  0
 13 15  1  0  0  0  0
 13 14  1  1  0  0  0
 15 17  1  0  0  0  0
 15 16  1  6  0  0  0
 17 19  1  1  0  0  0
 17 18  1  0  0  0  0
 19 20  1  0  0  0  0
 21 29  1  0  0  0  0
 22 23  1  0  0  0  0
 22 31  1  0  0  0  0
 22 38  1  6  0  0  0
 23 25  1  0  0  0  0
 23 24  1  6  0  0  0
 25 27  1  0  0  0  0
 25 26  1  1  0  0  0
 27 30  1  0  0  0  0
 27 28  1  6  0  0  0
 30 21  1  1  0  0  0
 30 31  1  0  0  0  0
 32 34  1  0  0  0  0
 32 41  1  0  0  0  0
 32 33  1  1  0  0  0
 34 35  1  0  0  0  0
 35 37  1  0  0  0  0
 35 36  1  1  0  0  0
 37 39  1  0  0  0  0
 37 38  1  6  0  0  0
 39 41  1  0  0  0  0
 39 40  1  1  0  0  0
 41 42  1  6  0  0  0
M  CHG  6  12   1  20   1  24   1  29   1  33   1  36   1
M  END
>  <CHROM.1>
47.22458801,27.88047036,59.45190127,-93.93392883,-155.69589199,-41.58252708
-60.76814135,58.26759990,70.37815598,95.79355091,174.94618447,67.15454497
-69.95752483,-130.07846923,122.97178284,-67.97019806,-56.64445057,-165.91088910
-52.86687793,-140.13364546,-47.54372929,71.62024530,2.05638198,-0.59722889
2.70937430,0.00119260,-0.64564482,-0.74623685

>  <Name>
1NEM.B

>  <RI>
0

>  <Rbt.Current_Directory>
/home/itssahil/PROJECTS/Mol_Feturizer/New_Systems/rnas/1nem

>  <Rbt.Executable>
rbdock ($Id: //depot/dev/client3/rdock/2013.1/src/exe/rbdock.cxx#4 $)

>  <Rbt.Library>
libRbt.so (2013.1, Build901 2013/11/27)

>  <Rbt.Parameter_File>
/export/apps/rDock/src/rDock_2013.1_src/data/scripts/dock_solv.prm

>  <Rbt.Receptor>
prm/pocket_docking_3.prm

>  <SCORE>
-25.5879

>  <SCORE.INTER>
-40.1318

>  <SCORE.INTER.CONST>
1

>  <SCORE.INTER.POLAR>
-5.53176

>  <SCORE.INTER.ROT>
9

>  <SCORE.INTER.SOLV>
26.5742

>  <SCORE.INTER.VDW>
-26.7734

>  <SCORE.INTER.norm>
-0.955519

>  <SCORE.INTRA>
12.1713

>  <SCORE.INTRA.DIHEDRAL>
12.6609

>  <SCORE.INTRA.DIHEDRAL.0>
22.4324

>  <SCORE.INTRA.POLAR>
-0.763265

>  <SCORE.INTRA.POLAR.0>
-1.83749

>  <SCORE.INTRA.REPUL>
0

>  <SCORE.INTRA.REPUL.0>
0

>  <SCORE.INTRA.SOLV>
2.36352

>  <SCORE.INTRA.SOLV.lig_0>
-160.638

>  <SCORE.INTRA.VDW>
7.25416

>  <SCORE.INTRA.VDW.0>
-7.61953

>  <SCORE.INTRA.norm>
0.289792

>  <SCORE.RESTR>
2.37266

>  <SCORE.RESTR.CAVITY>
2.37266

>  <SCORE.RESTR.norm>
0.0564919

>  <SCORE.SYSTEM>
0

>  <SCORE.SYSTEM.CONST>
0

>  <SCORE.SYSTEM.DIHEDRAL>
0

>  <SCORE.SYSTEM.SOLV>
0

>  <SCORE.SYSTEM.norm>
0

>  <SCORE.heavy>
42

>  <SCORE.norm>
-0.609235

>  <RMSD>
3.325

$$$$
1NEM.B
 OpenBabel11021811403D
libRbt.so/2013.1/901 2013/11/27
 42 45  0  0  0  0  0  0  0  0999 V2000
    2.4665   -4.4995    2.7757 O   0  0  0  0  0  0  0  0  0  0  0  0
    1.3249   -4.6808    1.9355 C   0  0  0  0  0  0  0  0  0  0  0  0
    0.9339   -3.4141    1.1757 C   0  0  1  0  0  0  0  0  0  0  0  0
   -0.4444   -3.4473    0.8170 O   0  0  0  0  0  0  0  0  0  0  0  0
    1.0512   -2.1297    1.9808 C   0  0  1  0  0  0  0  0  0  0  0  0
    2.4446   -1.8482    2.1307 O   0  0  0  0  0  0  0  0  0  0  0  0
    0.2686   -1.2050    1.0675 C   0  0  1  0  0  0  0  0  0  0  0  0
    0.9668   -0.9320   -0.1520 O   0  0  0  0  0  0  0  0  0  0  0  0
   -0.9396   -2.1083    0.7936 C   0  0  2  0  0  0  0  0  0  0  0  0
    2.7826   -0.8963    3.0986 C   0  0  2  0  0  0  0  0  0  0  0  0
    2.5033    0.5082    2.5464 C   0  0  2  0  0  0  0  0  0  0  0  0
    3.1851    0.6867    1.2374 N   0  3  0  0  0  0  0  0  0  0  0  0
    2.9221    1.5836    3.5541 C   0  0  1  0  0  0  0  0  0  0  0  0
    2.0306    1.5739    4.6612 O   0  0  0  0  0  0  0  0  0  0  0  0
    4.3544    1.3529    4.0457 C   0  0  2  0  0  0  0  0  0  0  0  0
    5.2815    1.5850    2.9927 O   0  0  0  0  0  0  0  0  0  0  0  0
    4.4968   -0.0772    4.5590 C   0  0  1  0  0  0  0  0  0  0  0  0
    4.1370   -1.0049    3.5169 O   0  0  0  0  0  0  0  0  0  0  0  0
    5.9051   -0.4115    5.0182 C   0  0  0  0  0  0  0  0  0  0  0  0
    6.0107   -0.4485    6.4938 N   0  3  0  0  0  0  0  0  0  0  0  0
   -6.0673   -2.8441   -0.0771 C   0  0  0  0  0  0  0  0  0  0  0  0
   -5.4530   -2.5989    3.5684 C   0  0  2  0  0  0  0  0  0  0  0  0
   -5.4866   -4.0710    3.9719 C   0  0  2  0  0  0  0  0  0  0  0  0
   -4.8162   -4.2598    5.2806 N   0  3  0  0  0  0  0  0  0  0  0  0
   -4.7861   -4.9198    2.9194 C   0  0  1  0  0  0  0  0  0  0  0  0
   -4.8918   -6.2919    3.2668 O   0  0  0  0  0  0  0  0  0  0  0  0
   -5.4257   -4.6725    1.5550 C   0  0  2  0  0  0  0  0  0  0  0  0
   -4.7328   -5.4086    0.5552 O   0  0  0  0  0  0  0  0  0  0  0  0
   -5.1027   -2.7248   -1.1944 N   0  3  0  0  0  0  0  0  0  0  0  0
   -5.3689   -3.1813    1.2287 C   0  0  2  0  0  0  0  0  0  0  0  0
   -6.0140   -2.4208    2.2705 O   0  0  0  0  0  0  0  0  0  0  0  0
   -4.2007    0.5016    0.3023 C   0  0  2  0  0  0  0  0  0  0  0  0
   -3.9173    1.6702   -0.5622 N   0  3  0  0  0  0  0  0  0  0  0  0
   -4.8485    0.9609    1.6036 C   0  0  0  0  0  0  0  0  0  0  0  0
   -5.1437   -0.2306    2.5038 C   0  0  2  0  0  0  0  0  0  0  0  0
   -5.7599    0.2734    3.7230 N   0  3  0  0  0  0  0  0  0  0  0  0
   -3.8485   -0.9764    2.8163 C   0  0  1  0  0  0  0  0  0  0  0  0
   -4.1402   -2.1184    3.6451 O   0  0  0  0  0  0  0  0  0  0  0  0
   -3.1646   -1.4448    1.5243 C   0  0  2  0  0  0  0  0  0  0  0  0
   -1.8983   -2.0504    1.8474 O   0  0  0  0  0  0  0  0  0  0  0  0
   -2.9152   -0.2794    0.5702 C   0  0  1  0  0  0  0  0  0  0  0  0
   -2.3972   -0.7741   -0.6576 O   0  0  0  0  0  0  0  0  0  0  0  0
  1  2  1  0  0  0  0
  3  2  1  1  0  0  0
  3  5  1  0  0  0  0
  3  4  1  0  0  0  0
  4  9  1  0  0  0  0
  5  7  1  0  0  0  0
  5  6  1  6  0  0  0
  7  9  1  0  0  0  0
  7  8  1  6  0  0  0
  9 40  1  1  0  0  0
 10  6  1  6  0  0  0
 10 11  1  0  0  0  0
 10 18  1  0  0  0  0
 11 13  1  0  0  0  0
 11 12  1  6  0  0  0
 13 15  1  0  0  0  0
 13 14  1  1  0  0  0
 15 17  1  0  0  0  0
 15 16  1  6  0  0  0
 17 19  1  6  0  0  0
 17 18  1  0  0  0  0
 19 20  1  0  0  0  0
 21 29  1  0  0  0  0
 22 23  1  0  0  0  0
 22 31  1  0  0  0  0
 22 38  1  6  0  0  0
 23 25  1  0  0  0  0
 23 24  1  1  0  0  0
 25 27  1  0  0  0  0
 25 26  1  1  0  0  0
 27 30  1  0  0  0  0
 27 28  1  6  0  0  0
 30 21  1  6  0  0  0
 30 31  1  0  0  0  0
 32 34  1  0  0  0  0
 32 41  1  0  0  0  0
 32 33  1  6  0  0  0
 34 35  1  0  0  0  0
 35 37  1  0  0  0  0
 35 36  1  1  0  0  0
 37 39  1  0  0  0  0
 37 38  1  1  0  0  0
 39 41  1  0  0  0  0
 39 40  1  1  0  0  0
 41 42  1  6  0  0  0
M  CHG  6  12   1  20   1  24   1  29   1  33   1  36   1
M  END
>  <CHROM.1>
-36.63061910,-155.86377042,-165.30172841,-77.68319624,175.68417667,-132.77201791
82.08693588,-173.13630655,-82.03292320,104.83166291,-145.35320490,-98.25539208
23.29046472,155.87467945,-138.50347906,106.15265419,-43.23694594,-175.12378750
-129.12074683,23.19957443,-158.53451245,71.56348836,-1.12731127,-1.61415021
2.25361882,-0.19660013,0.27304660,2.79537612

>  <Name>
1NEM.B

>  <RI>
0

>  <Rbt.Current_Directory>
/home/itssahil/PROJECTS/Mol_Feturizer/New_Systems/rnas/1nem

>  <Rbt.Executable>
rbdock ($Id: //depot/dev/client3/rdock/2013.1/src/exe/rbdock.cxx#4 $)

>  <Rbt.Library>
libRbt.so (2013.1, Build901 2013/11/27)

>  <Rbt.Parameter_File>
/export/apps/rDock/src/rDock_2013.1_src/data/scripts/dock_solv.prm

>  <Rbt.Receptor>
prm/blind_docking_20.prm

>  <SCORE>
-4.50935

>  <SCORE.INTER>
-42.7461

>  <SCORE.INTER.CONST>
1

>  <SCORE.INTER.POLAR>
-5.70822

>  <SCORE.INTER.ROT>
9

>  <SCORE.INTER.SOLV>
41.4666

>  <SCORE.INTER.VDW>
-32.8922

>  <SCORE.INTER.norm>
-1.01777

>  <SCORE.INTRA>
34.6683

>  <SCORE.INTRA.DIHEDRAL>
31.6331

>  <SCORE.INTRA.DIHEDRAL.0>
22.4324

>  <SCORE.INTRA.POLAR>
0.327455

>  <SCORE.INTRA.POLAR.0>
-1.83749

>  <SCORE.INTRA.REPUL>
0

>  <SCORE.INTRA.REPUL.0>
0

>  <SCORE.INTRA.SOLV>
-0.854311

>  <SCORE.INTRA.SOLV.lig_0>
-160.638

>  <SCORE.INTRA.VDW>
18.1655

>  <SCORE.INTRA.VDW.0>
-7.61953

>  <SCORE.INTRA.norm>
0.825435

>  <SCORE.RESTR>
3.56852

>  <SCORE.RESTR.CAVITY>
3.56852

>  <SCORE.RESTR.norm>
0.0849646

>  <SCORE.SYSTEM>
0

>  <SCORE.SYSTEM.CONST>
0

>  <SCORE.SYSTEM.DIHEDRAL>
0

>  <SCORE.SYSTEM.SOLV>
0

>  <SCORE.SYSTEM.norm>
0

>  <SCORE.heavy>
42

>  <SCORE.norm>
-0.107365

>  <RMSD>
3.345

$$$$
1NEM.B
 OpenBabel11021811403D
libRbt.so/2013.1/901 2013/11/27
 42 45  0  0  0  0  0  0  0  0999 V2000
    4.7081    0.6396   -1.3352 O   0  0  0  0  0  0  0  0  0  0  0  0
    5.1720    0.3799   -0.0087 C   0  0  0  0  0  0  0  0  0  0  0  0
    4.1019    0.6158    1.0562 C   0  0  1  0  0  0  0  0  0  0  0  0
    2.8459    0.9098    0.4516 O   0  0  0  0  0  0  0  0  0  0  0  0
    3.7935   -0.5936    1.9245 C   0  0  1  0  0  0  0  0  0  0  0  0
    4.9067   -0.7820    2.8012 O   0  0  0  0  0  0  0  0  0  0  0  0
    2.5057   -0.1060    2.5614 C   0  0  1  0  0  0  0  0  0  0  0  0
    2.7321    0.9583    3.4916 O   0  0  0  0  0  0  0  0  0  0  0  0
    1.8076    0.4295    1.3058 C   0  0  2  0  0  0  0  0  0  0  0  0
    5.2356    0.3003    3.6244 C   0  0  2  0  0  0  0  0  0  0  0  0
    6.7229    0.2208    3.9947 C   0  0  2  0  0  0  0  0  0  0  0  0
    7.0345   -1.1136    4.5715 N   0  3  0  0  0  0  0  0  0  0  0  0
    7.1084    1.3546    4.9503 C   0  0  1  0  0  0  0  0  0  0  0  0
    7.0956    2.5928    4.2522 O   0  0  0  0  0  0  0  0  0  0  0  0
    6.1465    1.4257    6.1403 C   0  0  2  0  0  0  0  0  0  0  0  0
    6.3130    0.2893    6.9787 O   0  0  0  0  0  0  0  0  0  0  0  0
    4.7083    1.4933    5.6345 C   0  0  1  0  0  0  0  0  0  0  0  0
    4.4342    0.3530    4.7974 O   0  0  0  0  0  0  0  0  0  0  0  0
    3.6804    1.5121    6.7521 C   0  0  0  0  0  0  0  0  0  0  0  0
    3.5578    2.8524    7.3673 N   0  3  0  0  0  0  0  0  0  0  0  0
   -0.6151   -3.2491    2.4374 C   0  0  0  0  0  0  0  0  0  0  0  0
   -2.0390   -0.8938   -0.0429 C   0  0  2  0  0  0  0  0  0  0  0  0
   -3.5259   -0.9752    0.2940 C   0  0  2  0  0  0  0  0  0  0  0  0
   -4.2395    0.2075   -0.2439 N   0  3  0  0  0  0  0  0  0  0  0  0
   -3.7193   -1.0376    1.8033 C   0  0  1  0  0  0  0  0  0  0  0  0
   -5.0986   -1.1912    2.1005 O   0  0  0  0  0  0  0  0  0  0  0  0
   -2.9253   -2.2115    2.3721 C   0  0  2  0  0  0  0  0  0  0  0  0
   -3.0448   -2.2352    3.7887 O   0  0  0  0  0  0  0  0  0  0  0  0
    0.8331   -2.9561    2.3371 N   0  3  0  0  0  0  0  0  0  0  0  0
   -1.4555   -2.0690    1.9816 C   0  0  2  0  0  0  0  0  0  0  0  0
   -1.3297   -1.9797    0.5477 O   0  0  0  0  0  0  0  0  0  0  0  0
    1.1238    0.8124   -2.9239 C   0  0  2  0  0  0  0  0  0  0  0  0
    2.2155    1.3408   -3.7738 N   0  3  0  0  0  0  0  0  0  0  0  0
    0.0995    1.9080   -2.6506 C   0  0  0  0  0  0  0  0  0  0  0  0
   -1.0284    1.3794   -1.7755 C   0  0  2  0  0  0  0  0  0  0  0  0
   -1.9689    2.4686   -1.5541 N   0  3  0  0  0  0  0  0  0  0  0  0
   -0.4616    0.8717   -0.4517 C   0  0  1  0  0  0  0  0  0  0  0  0
   -1.5314    0.3475    0.3589 O   0  0  0  0  0  0  0  0  0  0  0  0
    0.5823   -0.2276   -0.6923 C   0  0  2  0  0  0  0  0  0  0  0  0
    1.1711   -0.6098    0.5655 O   0  0  0  0  0  0  0  0  0  0  0  0
    1.6941    0.2517   -1.6222 C   0  0  1  0  0  0  0  0  0  0  0  0
    2.5670   -0.8312   -1.9155 O   0  0  0  0  0  0  0  0  0  0  0  0
  1  2  1  0  0  0  0
  3  2  1  6  0  0  0
  3  5  1  0  0  0  0
  3  4  1  0  0  0  0
  4  9  1  0  0  0  0
  5  7  1  0  0  0  0
  5  6  1  1  0  0  0
  7  9  1  0  0  0  0
  7  8  1  1  0  0  0
  9 40  1  6  0  0  0
 10  6  1  1  0  0  0
 10 11  1  0  0  0  0
 10 18  1  0  0  0  0
 11 13  1  0  0  0  0
 11 12  1  1  0  0  0
 13 15  1  0  0  0  0
 13 14  1  6  0  0  0
 15 17  1  0  0  0  0
 15 16  1  1  0  0  0
 17 19  1  1  0  0  0
 17 18  1  0  0  0  0
 19 20  1  0  0  0  0
 21 29  1  0  0  0  0
 22 23  1  0  0  0  0
 22 31  1  0  0  0  0
 22 38  1  1  0  0  0
 23 25  1  0  0  0  0
 23 24  1  1  0  0  0
 25 27  1  0  0  0  0
 25 26  1  6  0  0  0
 27 30  1  0  0  0  0
 27 28  1  1  0  0  0
 30 21  1  6  0  0  0
 30 31  1  0  0  0  0
 32 34  1  0  0  0  0
 32 41  1  0  0  0  0
 32 33  1  6  0  0  0
 34 35  1  0  0  0  0
 35 37  1  0  0  0  0
 35 36  1  1  0  0  0
 37 39  1  0  0  0  0
 37 38  1  1  0  0  0
 39 41  1  0  0  0  0
 39 40  1  1  0  0  0
 41 42  1  6  0  0  0
M  CHG  6  12   1  20   1  24   1  29   1  33   1  36   1
M  END
>  <CHROM.1>
-165.40325224,5.99696206,57.64889961,-154.40382708,67.00569522,-60.30291268
-44.48955660,177.47771298,58.65071016,78.70911969,23.64879253,-166.68289177
-39.76817398,-148.10534361,81.25304121,-171.58093459,-179.38970725,178.20822852
-141.65811410,74.18245376,-58.16910738,66.67914684,1.72485666,0.07649708
1.74057829,-0.52137138,-0.25407328,-1.41337993

>  <Name>
1NEM.B

>  <RI>
0

>  <Rbt.Current_Directory>
/home/itssahil/PROJECTS/Mol_Feturizer/New_Systems/rnas/1nem

>  <Rbt.Executable>
rbdock ($Id: //depot/dev/client3/rdock/2013.1/src/exe/rbdock.cxx#4 $)

>  <Rbt.Library>
libRbt.so (2013.1, Build901 2013/11/27)

>  <Rbt.Parameter_File>
/export/apps/rDock/src/rDock_2013.1_src/data/scripts/dock_solv.prm

>  <Rbt.Receptor>
prm/pocket_docking_2.prm

>  <SCORE>
-14.6572

>  <SCORE.INTER>
-37.1238

>  <SCORE.INTER.CONST>
1

>  <SCORE.INTER.POLAR>
-5.63297

>  <SCORE.INTER.ROT>
9

>  <SCORE.INTER.SOLV>
27.9877

>  <SCORE.INTER.VDW>
-24.9019

>  <SCORE.INTER.norm>
-0.883901

>  <SCORE.INTRA>
14.937

>  <SCORE.INTRA.DIHEDRAL>
2.34912

>  <SCORE.INTRA.DIHEDRAL.0>
22.4324

>  <SCORE.INTRA.POLAR>
0.192405

>  <SCORE.INTRA.POLAR.0>
-1.83749

>  <SCORE.INTRA.REPUL>
0

>  <SCORE.INTRA.REPUL.0>
0

>  <SCORE.INTRA.SOLV>
2.3422

>  <SCORE.INTRA.SOLV.lig_0>
-160.638

>  <SCORE.INTRA.VDW>
11.9372

>  <SCORE.INTRA.VDW.0>
-7.61953

>  <SCORE.INTRA.norm>
0.355643

>  <SCORE.RESTR>
7.52963

>  <SCORE.RESTR.CAVITY>
7.52963

>  <SCORE.RESTR.norm>
0.179277

>  <SCORE.SYSTEM>
0

>  <SCORE.SYSTEM.CONST>
0

>  <SCORE.SYSTEM.DIHEDRAL>
0

>  <SCORE.SYSTEM.SOLV>
0

>  <SCORE.SYSTEM.norm>
0

>  <SCORE.heavy>
42

>  <SCORE.norm>
-0.348981

>  <RMSD>
3.391

$$$$
1NEM.B
 OpenBabel11021811403D
libRbt.so/2013.1/901 2013/11/27
 42 45  0  0  0  0  0  0  0  0999 V2000
    2.0553   -4.7227    2.8408 O   0  0  0  0  0  0  0  0  0  0  0  0
    1.1092   -4.9021    1.7850 C   0  0  0  0  0  0  0  0  0  0  0  0
    0.7280   -3.5935    1.0944 C   0  0  1  0  0  0  0  0  0  0  0  0
   -0.6426   -3.6096    0.7062 O   0  0  0  0  0  0  0  0  0  0  0  0
    0.8233   -2.3592    1.9770 C   0  0  1  0  0  0  0  0  0  0  0  0
    2.2121   -2.0826    2.1719 O   0  0  0  0  0  0  0  0  0  0  0  0
    0.0552   -1.3840    1.1047 C   0  0  1  0  0  0  0  0  0  0  0  0
    0.7767   -1.0362   -0.0817 O   0  0  0  0  0  0  0  0  0  0  0  0
   -1.1431   -2.2732    0.7527 C   0  0  2  0  0  0  0  0  0  0  0  0
    2.5169   -0.9108    2.8728 C   0  0  2  0  0  0  0  0  0  0  0  0
    2.7987    0.2185    1.8725 C   0  0  2  0  0  0  0  0  0  0  0  0
    3.8380   -0.2093    0.8993 N   0  3  0  0  0  0  0  0  0  0  0  0
    3.2009    1.5048    2.6013 C   0  0  1  0  0  0  0  0  0  0  0  0
    2.0708    2.0474    3.2714 O   0  0  0  0  0  0  0  0  0  0  0  0
    4.3201    1.2402    3.6131 C   0  0  2  0  0  0  0  0  0  0  0  0
    5.5291    0.9153    2.9385 O   0  0  0  0  0  0  0  0  0  0  0  0
    3.9160    0.0954    4.5378 C   0  0  1  0  0  0  0  0  0  0  0  0
    3.6183   -1.0778    3.7562 O   0  0  0  0  0  0  0  0  0  0  0  0
    4.9936   -0.2720    5.5426 C   0  0  0  0  0  0  0  0  0  0  0  0
    6.1282   -0.9749    4.9036 N   0  3  0  0  0  0  0  0  0  0  0  0
   -5.8559   -3.4401    0.0129 C   0  0  0  0  0  0  0  0  0  0  0  0
   -5.4990   -2.7013    3.6259 C   0  0  2  0  0  0  0  0  0  0  0  0
   -5.3982   -4.1101    4.2056 C   0  0  2  0  0  0  0  0  0  0  0  0
   -4.7938   -4.0663    5.5585 N   0  3  0  0  0  0  0  0  0  0  0  0
   -4.5460   -4.9901    3.3008 C   0  0  1  0  0  0  0  0  0  0  0  0
   -4.5241   -6.3151    3.8090 O   0  0  0  0  0  0  0  0  0  0  0  0
   -5.1228   -4.9791    1.8869 C   0  0  2  0  0  0  0  0  0  0  0  0
   -4.2937   -5.7427    1.0203 O   0  0  0  0  0  0  0  0  0  0  0  0
   -6.8004   -4.5558   -0.2239 N   0  3  0  0  0  0  0  0  0  0  0  0
   -5.2075   -3.5398    1.3827 C   0  0  2  0  0  0  0  0  0  0  0  0
   -5.9944   -2.7418    2.2903 O   0  0  0  0  0  0  0  0  0  0  0  0
   -4.5016    0.0599    0.0384 C   0  0  2  0  0  0  0  0  0  0  0  0
   -4.2649    1.0923   -0.9967 N   0  3  0  0  0  0  0  0  0  0  0  0
   -5.0677    0.7053    1.2982 C   0  0  0  0  0  0  0  0  0  0  0  0
   -5.3142   -0.3446    2.3726 C   0  0  2  0  0  0  0  0  0  0  0  0
   -5.8533    0.3331    3.5431 N   0  3  0  0  0  0  0  0  0  0  0  0
   -4.0062   -1.0566    2.7099 C   0  0  1  0  0  0  0  0  0  0  0  0
   -4.2533   -2.0675    3.7065 O   0  0  0  0  0  0  0  0  0  0  0  0
   -3.4037   -1.7101    1.4585 C   0  0  2  0  0  0  0  0  0  0  0  0
   -2.1233   -2.2815    1.7883 O   0  0  0  0  0  0  0  0  0  0  0  0
   -3.2063   -0.6931    0.3372 C   0  0  1  0  0  0  0  0  0  0  0  0
   -2.7655   -1.3614   -0.8373 O   0  0  0  0  0  0  0  0  0  0  0  0
  1  2  1  0  0  0  0
  3  2  1  1  0  0  0
  3  5  1  0  0  0  0
  3  4  1  0  0  0  0
  4  9  1  0  0  0  0
  5  7  1  0  0  0  0
  5  6  1  6  0  0  0
  7  9  1  0  0  0  0
  7  8  1  6  0  0  0
  9 40  1  1  0  0  0
 10  6  1  6  0  0  0
 10 11  1  0  0  0  0
 10 18  1  0  0  0  0
 11 13  1  0  0  0  0
 11 12  1  6  0  0  0
 13 15  1  0  0  0  0
 13 14  1  1  0  0  0
 15 17  1  0  0  0  0
 15 16  1  6  0  0  0
 17 19  1  1  0  0  0
 17 18  1  0  0  0  0
 19 20  1  0  0  0  0
 21 29  1  0  0  0  0
 22 23  1  0  0  0  0
 22 31  1  0  0  0  0
 22 38  1  6  0  0  0
 23 25  1  0  0  0  0
 23 24  1  1  0  0  0
 25 27  1  0  0  0  0
 25 26  1  1  0  0  0
 27 30  1  0  0  0  0
 27 28  1  6  0  0  0
 30 21  1  6  0  0  0
 30 31  1  0  0  0  0
 32 34  1  0  0  0  0
 32 41  1  0  0  0  0
 32 33  1  6  0  0  0
 34 35  1  0  0  0  0
 35 37  1  0  0  0  0
 35 36  1  1  0  0  0
 37 39  1  0  0  0  0
 37 38  1  1  0  0  0
 39 41  1  0  0  0  0
 39 40  1  1  0  0  0
 41 42  1  6  0  0  0
M  CHG  6  12   1  20   1  24   1  29   1  33   1  36   1
M  END
>  <CHROM.1>
167.84516483,-144.56556118,174.92402858,-95.83725236,59.62501568,-130.34918277
-16.41642137,-70.05448692,-62.98936313,-72.54978131,-10.94064796,27.44526006
67.68139990,152.46894657,-65.27199152,-142.96432540,-53.74114938,-28.21753758
-20.72516272,33.81378830,-147.40615724,38.73534776,-1.25247068,-1.87464543
2.16946102,-0.22339503,0.22746801,2.77979101

>  <Name>
1NEM.B

>  <RI>
0

>  <Rbt.Current_Directory>
/home/itssahil/PROJECTS/Mol_Feturizer/New_Systems/rnas/1nem

>  <Rbt.Executable>
rbdock ($Id: //depot/dev/client3/rdock/2013.1/src/exe/rbdock.cxx#4 $)

>  <Rbt.Library>
libRbt.so (2013.1, Build901 2013/11/27)

>  <Rbt.Parameter_File>
/export/apps/rDock/src/rDock_2013.1_src/data/scripts/dock_solv.prm

>  <Rbt.Receptor>
prm/blind_docking_40.prm

>  <SCORE>
-4.53023

>  <SCORE.INTER>
-47.2256

>  <SCORE.INTER.CONST>
1

>  <SCORE.INTER.POLAR>
-6.8974

>  <SCORE.INTER.ROT>
9

>  <SCORE.INTER.SOLV>
40.7689

>  <SCORE.INTER.VDW>
-31.682

>  <SCORE.INTER.norm>
-1.12442

>  <SCORE.INTRA>
39.5594

>  <SCORE.INTRA.DIHEDRAL>
26.1815

>  <SCORE.INTRA.DIHEDRAL.0>
22.4324

>  <SCORE.INTRA.POLAR>
1.52103

>  <SCORE.INTRA.POLAR.0>
-1.83749

>  <SCORE.INTRA.REPUL>
0.0477474

>  <SCORE.INTRA.REPUL.0>
0

>  <SCORE.INTRA.SOLV>
0.551641

>  <SCORE.INTRA.SOLV.lig_0>
-160.638

>  <SCORE.INTRA.VDW>
20.7826

>  <SCORE.INTRA.VDW.0>
-7.61953

>  <SCORE.INTRA.norm>
0.94189

>  <SCORE.RESTR>
3.13601

>  <SCORE.RESTR.CAVITY>
3.13601

>  <SCORE.RESTR.norm>
0.0746669

>  <SCORE.SYSTEM>
0

>  <SCORE.SYSTEM.CONST>
0

>  <SCORE.SYSTEM.DIHEDRAL>
0

>  <SCORE.SYSTEM.SOLV>
0

>  <SCORE.SYSTEM.norm>
0

>  <SCORE.heavy>
42

>  <SCORE.norm>
-0.107863

>  <RMSD>
3.423

$$$$
1NEM.B
 OpenBabel11021811403D
libRbt.so/2013.1/901 2013/11/27
 42 45  0  0  0  0  0  0  0  0999 V2000
    2.0713   -4.6955    2.8895 O   0  0  0  0  0  0  0  0  0  0  0  0
    1.1754   -4.8143    1.7826 C   0  0  0  0  0  0  0  0  0  0  0  0
    0.8714   -3.4751    1.1125 C   0  0  1  0  0  0  0  0  0  0  0  0
   -0.4939   -3.4115    0.7108 O   0  0  0  0  0  0  0  0  0  0  0  0
    1.0224   -2.2636    2.0186 C   0  0  1  0  0  0  0  0  0  0  0  0
    2.4218   -2.0647    2.2320 O   0  0  0  0  0  0  0  0  0  0  0  0
    0.3164   -1.2335    1.1570 C   0  0  1  0  0  0  0  0  0  0  0  0
    1.0679   -0.9035   -0.0158 O   0  0  0  0  0  0  0  0  0  0  0  0
   -0.9235   -2.0515    0.7770 C   0  0  2  0  0  0  0  0  0  0  0  0
    2.7719   -1.0677    3.1489 C   0  0  2  0  0  0  0  0  0  0  0  0
    2.6106    0.3076    2.4872 C   0  0  2  0  0  0  0  0  0  0  0  0
    3.3660    0.3500    1.2074 N   0  3  0  0  0  0  0  0  0  0  0  0
    3.0473    1.4256    3.4395 C   0  0  1  0  0  0  0  0  0  0  0  0
    2.1036    1.5496    4.4952 O   0  0  0  0  0  0  0  0  0  0  0  0
    4.4359    1.1448    4.0219 C   0  0  2  0  0  0  0  0  0  0  0  0
    5.4266    1.2441    3.0066 O   0  0  0  0  0  0  0  0  0  0  0  0
    4.4610   -0.2506    4.6392 C   0  0  1  0  0  0  0  0  0  0  0  0
    4.0944   -1.2275    3.6457 O   0  0  0  0  0  0  0  0  0  0  0  0
    5.8208   -0.6353    5.1953 C   0  0  0  0  0  0  0  0  0  0  0  0
    6.0132   -0.1396    6.5763 N   0  3  0  0  0  0  0  0  0  0  0  0
   -7.3719   -5.9876    2.7828 C   0  0  0  0  0  0  0  0  0  0  0  0
   -5.2518   -3.2003    3.9927 C   0  0  2  0  0  0  0  0  0  0  0  0
   -4.4692   -3.8889    5.1082 C   0  0  2  0  0  0  0  0  0  0  0  0
   -3.2454   -3.1163    5.4289 N   0  3  0  0  0  0  0  0  0  0  0  0
   -4.0789   -5.2981    4.6828 C   0  0  1  0  0  0  0  0  0  0  0  0
   -3.4206   -5.9541    5.7555 O   0  0  0  0  0  0  0  0  0  0  0  0
   -5.3302   -6.0753    4.2801 C   0  0  2  0  0  0  0  0  0  0  0  0
   -4.9675   -7.3693    3.8158 O   0  0  0  0  0  0  0  0  0  0  0  0
   -8.4139   -5.7940    3.8171 N   0  3  0  0  0  0  0  0  0  0  0  0
   -6.0658   -5.3192    3.1754 C   0  0  2  0  0  0  0  0  0  0  0  0
   -6.3816   -3.9825    3.6149 O   0  0  0  0  0  0  0  0  0  0  0  0
   -4.2604    0.7576    0.8307 C   0  0  2  0  0  0  0  0  0  0  0  0
   -4.0057    2.1870    0.5386 N   0  3  0  0  0  0  0  0  0  0  0  0
   -5.1893    0.6288    2.0326 C   0  0  0  0  0  0  0  0  0  0  0  0
   -5.4583   -0.8363    2.3461 C   0  0  2  0  0  0  0  0  0  0  0  0
   -6.3485   -0.8899    3.4971 N   0  3  0  0  0  0  0  0  0  0  0  0
   -4.1424   -1.5522    2.6416 C   0  0  1  0  0  0  0  0  0  0  0  0
   -4.4028   -2.9439    2.9094 O   0  0  0  0  0  0  0  0  0  0  0  0
   -3.1787   -1.4329    1.4528 C   0  0  2  0  0  0  0  0  0  0  0  0
   -1.9137   -2.0262    1.8027 O   0  0  0  0  0  0  0  0  0  0  0  0
   -2.9408    0.0259    1.0709 C   0  0  1  0  0  0  0  0  0  0  0  0
   -2.1459    0.0846   -0.1061 O   0  0  0  0  0  0  0  0  0  0  0  0
  1  2  1  0  0  0  0
  3  2  1  1  0  0  0
  3  5  1  0  0  0  0
  3  4  1  0  0  0  0
  4  9  1  0  0  0  0
  5  7  1  0  0  0  0
  5  6  1  6  0  0  0
  7  9  1  0  0  0  0
  7  8  1  6  0  0  0
  9 40  1  1  0  0  0
 10  6  1  6  0  0  0
 10 11  1  0  0  0  0
 10 18  1  0  0  0  0
 11 13  1  0  0  0  0
 11 12  1  6  0  0  0
 13 15  1  0  0  0  0
 13 14  1  1  0  0  0
 15 17  1  0  0  0  0
 15 16  1  6  0  0  0
 17 19  1  6  0  0  0
 17 18  1  0  0  0  0
 19 20  1  0  0  0  0
 21 29  1  0  0  0  0
 22 23  1  0  0  0  0
 22 31  1  0  0  0  0
 22 38  1  6  0  0  0
 23 25  1  0  0  0  0
 23 24  1  6  0  0  0
 25 27  1  0  0  0  0
 25 26  1  1  0  0  0
 27 30  1  0  0  0  0
 27 28  1  6  0  0  0
 30 21  1  1  0  0  0
 30 31  1  0  0  0  0
 32 34  1  0  0  0  0
 32 41  1  0  0  0  0
 32 33  1  1  0  0  0
 34 35  1  0  0  0  0
 35 37  1  0  0  0  0
 35 36  1  1  0  0  0
 37 39  1  0  0  0  0
 37 38  1  6  0  0  0
 39 41  1  0  0  0  0
 39 40  1  1  0  0  0
 41 42  1  6  0  0  0
M  CHG  6  12   1  20   1  24   1  29   1  33   1  36   1
M  END
>  <CHROM.1>
56.30314640,-141.87929376,-174.10540991,-77.14904413,-174.19923335,-127.78191269
-165.47549878,-163.66806419,79.45712591,85.02850300,75.73801052,73.62455069
-161.33708056,-113.12323267,-164.98526429,71.38205168,25.62944890,-159.84256411
168.06631242,-59.62864327,177.19134699,76.21233003,-1.19720126,-2.00069327
2.87629931,-0.34335755,0.18999449,2.64476165

>  <Name>
1NEM.B

>  <RI>
0

>  <Rbt.Current_Directory>
/home/itssahil/PROJECTS/Mol_Feturizer/New_Systems/rnas/1nem

>  <Rbt.Executable>
rbdock ($Id: //depot/dev/client3/rdock/2013.1/src/exe/rbdock.cxx#4 $)

>  <Rbt.Library>
libRbt.so (2013.1, Build901 2013/11/27)

>  <Rbt.Parameter_File>
/export/apps/rDock/src/rDock_2013.1_src/data/scripts/dock_solv.prm

>  <Rbt.Receptor>
prm/blind_docking_60.prm

>  <SCORE>
-9.40073

>  <SCORE.INTER>
-31.6546

>  <SCORE.INTER.CONST>
1

>  <SCORE.INTER.POLAR>
-3.96083

>  <SCORE.INTER.ROT>
9

>  <SCORE.INTER.SOLV>
37.3068

>  <SCORE.INTER.VDW>
-29.9359

>  <SCORE.INTER.norm>
-0.75368

>  <SCORE.INTRA>
16.4167

>  <SCORE.INTRA.DIHEDRAL>
13.0786

>  <SCORE.INTRA.DIHEDRAL.0>
22.4324

>  <SCORE.INTRA.POLAR>
-0.319757

>  <SCORE.INTRA.POLAR.0>
-1.83749

>  <SCORE.INTRA.REPUL>
0

>  <SCORE.INTRA.REPUL.0>
0

>  <SCORE.INTRA.SOLV>
-1.16209

>  <SCORE.INTRA.SOLV.lig_0>
-160.638

>  <SCORE.INTRA.VDW>
11.5456

>  <SCORE.INTRA.VDW.0>
-7.61953

>  <SCORE.INTRA.norm>
0.390873

>  <SCORE.RESTR>
5.83716

>  <SCORE.RESTR.CAVITY>
5.83716

>  <SCORE.RESTR.norm>
0.13898

>  <SCORE.SYSTEM>
0

>  <SCORE.SYSTEM.CONST>
0

>  <SCORE.SYSTEM.DIHEDRAL>
0

>  <SCORE.SYSTEM.SOLV>
0

>  <SCORE.SYSTEM.norm>
0

>  <SCORE.heavy>
42

>  <SCORE.norm>
-0.223827

>  <RMSD>
3.444

$$$$
1NEM.B
 OpenBabel11021811403D
libRbt.so/2013.1/901 2013/11/27
 42 45  0  0  0  0  0  0  0  0999 V2000
    2.9376   -4.2922    2.9787 O   0  0  0  0  0  0  0  0  0  0  0  0
    1.7214   -4.6820    2.3375 C   0  0  0  0  0  0  0  0  0  0  0  0
    1.1892   -3.6250    1.3710 C   0  0  1  0  0  0  0  0  0  0  0  0
   -0.1552   -3.9142    0.9990 O   0  0  0  0  0  0  0  0  0  0  0  0
    1.0935   -2.2238    1.9531 C   0  0  1  0  0  0  0  0  0  0  0  0
    2.4268   -1.7238    2.0782 O   0  0  0  0  0  0  0  0  0  0  0  0
    0.2277   -1.5819    0.8853 C   0  0  1  0  0  0  0  0  0  0  0  0
    0.9303   -1.4125   -0.3504 O   0  0  0  0  0  0  0  0  0  0  0  0
   -0.8307   -2.6823    0.7446 C   0  0  2  0  0  0  0  0  0  0  0  0
    2.5671   -0.4922    2.7268 C   0  0  2  0  0  0  0  0  0  0  0  0
    3.1264    0.5397    1.7379 C   0  0  2  0  0  0  0  0  0  0  0  0
    4.3722    0.0237    1.1120 N   0  3  0  0  0  0  0  0  0  0  0  0
    3.3563    1.8880    2.4285 C   0  0  1  0  0  0  0  0  0  0  0  0
    2.1043    2.4903    2.7291 O   0  0  0  0  0  0  0  0  0  0  0  0
    4.1673    1.7181    3.7167 C   0  0  2  0  0  0  0  0  0  0  0  0
    5.5019    1.3323    3.4129 O   0  0  0  0  0  0  0  0  0  0  0  0
    3.5093    0.6639    4.6023 C   0  0  1  0  0  0  0  0  0  0  0  0
    3.3967   -0.5767    3.8782 O   0  0  0  0  0  0  0  0  0  0  0  0
    4.2795    0.3911    5.8823 C   0  0  0  0  0  0  0  0  0  0  0  0
    5.4821   -0.4360    5.6377 N   0  3  0  0  0  0  0  0  0  0  0  0
   -8.3909   -3.3328    1.2014 C   0  0  0  0  0  0  0  0  0  0  0  0
   -5.5872   -3.2292    3.6213 C   0  0  2  0  0  0  0  0  0  0  0  0
   -5.6551   -4.6360    4.2104 C   0  0  2  0  0  0  0  0  0  0  0  0
   -4.3666   -4.9852    4.8550 N   0  3  0  0  0  0  0  0  0  0  0  0
   -5.9621   -5.6491    3.1157 C   0  0  1  0  0  0  0  0  0  0  0  0
   -6.0993   -6.9409    3.6875 O   0  0  0  0  0  0  0  0  0  0  0  0
   -7.2508   -5.2522    2.3990 C   0  0  2  0  0  0  0  0  0  0  0  0
   -7.5077   -6.1542    1.3304 O   0  0  0  0  0  0  0  0  0  0  0  0
   -8.8194   -4.2186    0.0948 N   0  3  0  0  0  0  0  0  0  0  0  0
   -7.1130   -3.8324    1.8526 C   0  0  2  0  0  0  0  0  0  0  0  0
   -6.7890   -2.9193    2.9207 O   0  0  0  0  0  0  0  0  0  0  0  0
   -3.6045    0.6518    1.0328 C   0  0  2  0  0  0  0  0  0  0  0  0
   -3.0836    2.0268    0.8563 N   0  3  0  0  0  0  0  0  0  0  0  0
   -4.5508    0.6023    2.2270 C   0  0  0  0  0  0  0  0  0  0  0  0
   -5.0927   -0.8068    2.4219 C   0  0  2  0  0  0  0  0  0  0  0  0
   -5.9865   -0.7858    3.5712 N   0  3  0  0  0  0  0  0  0  0  0  0
   -3.9372   -1.7788    2.6484 C   0  0  1  0  0  0  0  0  0  0  0  0
   -4.4565   -3.1139    2.8038 O   0  0  0  0  0  0  0  0  0  0  0  0
   -2.9586   -1.7462    1.4663 C   0  0  2  0  0  0  0  0  0  0  0  0
   -1.8305   -2.5930    1.7574 O   0  0  0  0  0  0  0  0  0  0  0  0
   -2.4479   -0.3318    1.2028 C   0  0  1  0  0  0  0  0  0  0  0  0
   -1.6465   -0.3278    0.0288 O   0  0  0  0  0  0  0  0  0  0  0  0
  1  2  1  0  0  0  0
  3  2  1  1  0  0  0
  3  5  1  0  0  0  0
  3  4  1  0  0  0  0
  4  9  1  0  0  0  0
  5  7  1  0  0  0  0
  5  6  1  6  0  0  0
  7  9  1  0  0  0  0
  7  8  1  6  0  0  0
  9 40  1  1  0  0  0
 10  6  1  6  0  0  0
 10 11  1  0  0  0  0
 10 18  1  0  0  0  0
 11 13  1  0  0  0  0
 11 12  1  1  0  0  0
 13 15  1  0  0  0  0
 13 14  1  1  0  0  0
 15 17  1  0  0  0  0
 15 16  1  6  0  0  0
 17 19  1  1  0  0  0
 17 18  1  0  0  0  0
 19 20  1  0  0  0  0
 21 29  1  0  0  0  0
 22 23  1  0  0  0  0
 22 31  1  0  0  0  0
 22 38  1  6  0  0  0
 23 25  1  0  0  0  0
 23 24  1  6  0  0  0
 25 27  1  0  0  0  0
 25 26  1  1  0  0  0
 27 30  1  0  0  0  0
 27 28  1  6  0  0  0
 30 21  1  1  0  0  0
 30 31  1  0  0  0  0
 32 34  1  0  0  0  0
 32 41  1  0  0  0  0
 32 33  1  1  0  0  0
 34 35  1  0  0  0  0
 35 37  1  0  0  0  0
 35 36  1  1  0  0  0
 37 39  1  0  0  0  0
 37 38  1  6  0  0  0
 39 41  1  0  0  0  0
 39 40  1  1  0  0  0
 41 42  1  6  0  0  0
M  CHG  6  12   1  20   1  24   1  29   1  33   1  36   1
M  END
>  <CHROM.1>
-40.51306942,-166.58837298,-173.64178641,-116.12752929,-59.30825892,-157.31722044
23.57778888,-171.84184717,174.97049647,-75.91443121,1.13757646,-57.98485757
164.40475273,-154.39344401,-170.21902047,65.51727501,60.27377888,68.99803758
-169.41800908,-43.68030230,179.36264707,-52.86887570,-1.44192649,-1.87007736
2.38313785,-0.34635861,0.16661726,2.89989370

>  <Name>
1NEM.B

>  <RI>
0

>  <Rbt.Current_Directory>
/home/itssahil/PROJECTS/Mol_Feturizer/New_Systems/rnas/1nem

>  <Rbt.Executable>
rbdock ($Id: //depot/dev/client3/rdock/2013.1/src/exe/rbdock.cxx#4 $)

>  <Rbt.Library>
libRbt.so (2013.1, Build901 2013/11/27)

>  <Rbt.Parameter_File>
/export/apps/rDock/src/rDock_2013.1_src/data/scripts/dock_solv.prm

>  <Rbt.Receptor>
prm/blind_docking_40.prm

>  <SCORE>
-11.873

>  <SCORE.INTER>
-39.0777

>  <SCORE.INTER.CONST>
1

>  <SCORE.INTER.POLAR>
-5.03989

>  <SCORE.INTER.ROT>
9

>  <SCORE.INTER.SOLV>
37.4764

>  <SCORE.INTER.VDW>
-31.3443

>  <SCORE.INTER.norm>
-0.930422

>  <SCORE.INTRA>
23.9863

>  <SCORE.INTRA.DIHEDRAL>
3.31749

>  <SCORE.INTRA.DIHEDRAL.0>
22.4324

>  <SCORE.INTRA.POLAR>
-0.668527

>  <SCORE.INTRA.POLAR.0>
-1.83749

>  <SCORE.INTRA.REPUL>
0

>  <SCORE.INTRA.REPUL.0>
0

>  <SCORE.INTRA.SOLV>
1.76593

>  <SCORE.INTRA.SOLV.lig_0>
-160.638

>  <SCORE.INTRA.VDW>
23.7176

>  <SCORE.INTRA.VDW.0>
-7.61953

>  <SCORE.INTRA.norm>
0.571103

>  <SCORE.RESTR>
3.21845

>  <SCORE.RESTR.CAVITY>
3.21845

>  <SCORE.RESTR.norm>
0.0766297

>  <SCORE.SYSTEM>
0

>  <SCORE.SYSTEM.CONST>
0

>  <SCORE.SYSTEM.DIHEDRAL>
0

>  <SCORE.SYSTEM.SOLV>
0

>  <SCORE.SYSTEM.norm>
0

>  <SCORE.heavy>
42

>  <SCORE.norm>
-0.28269

>  <RMSD>
3.492

$$$$
1NEM.B
 OpenBabel11021811403D
libRbt.so/2013.1/901 2013/11/27
 42 45  0  0  0  0  0  0  0  0999 V2000
    4.3244   -0.8774    3.7839 O   0  0  0  0  0  0  0  0  0  0  0  0
    2.9573   -1.2503    3.5993 C   0  0  0  0  0  0  0  0  0  0  0  0
    2.6192   -1.5847    2.1472 C   0  0  1  0  0  0  0  0  0  0  0  0
    1.2166   -1.7768    1.9881 O   0  0  0  0  0  0  0  0  0  0  0  0
    2.9322   -0.4787    1.1520 C   0  0  1  0  0  0  0  0  0  0  0  0
    4.3539   -0.4200    1.0154 O   0  0  0  0  0  0  0  0  0  0  0  0
    2.1592   -1.0078   -0.0415 C   0  0  1  0  0  0  0  0  0  0  0  0
    2.7637   -2.1787   -0.6008 O   0  0  0  0  0  0  0  0  0  0  0  0
    0.8506   -1.3762    0.6675 C   0  0  2  0  0  0  0  0  0  0  0  0
    4.8610    0.6607    0.2860 C   0  0  2  0  0  0  0  0  0  0  0  0
    5.8574    1.4368    1.1579 C   0  0  2  0  0  0  0  0  0  0  0  0
    5.2244    1.8052    2.4516 N   0  3  0  0  0  0  0  0  0  0  0  0
    6.3873    2.6682    0.4161 C   0  0  1  0  0  0  0  0  0  0  0  0
    7.2506    2.2573   -0.6359 O   0  0  0  0  0  0  0  0  0  0  0  0
    5.2394    3.5042   -0.1581 C   0  0  2  0  0  0  0  0  0  0  0  0
    4.4979    4.1122    0.8919 O   0  0  0  0  0  0  0  0  0  0  0  0
    4.3243    2.6140   -0.9941 C   0  0  1  0  0  0  0  0  0  0  0  0
    3.8361    1.5254   -0.1862 O   0  0  0  0  0  0  0  0  0  0  0  0
    3.1242    3.3523   -1.5602 C   0  0  0  0  0  0  0  0  0  0  0  0
    3.4422    4.0243   -2.8397 N   0  3  0  0  0  0  0  0  0  0  0  0
   -1.2243   -4.1839    2.9290 C   0  0  0  0  0  0  0  0  0  0  0  0
   -2.2505   -2.0809    0.0565 C   0  0  2  0  0  0  0  0  0  0  0  0
   -3.3814   -2.9201   -0.5332 C   0  0  2  0  0  0  0  0  0  0  0  0
   -4.2446   -2.0819   -1.3992 N   0  3  0  0  0  0  0  0  0  0  0  0
   -4.2226   -3.5253    0.5827 C   0  0  1  0  0  0  0  0  0  0  0  0
   -5.2217   -4.3645    0.0241 O   0  0  0  0  0  0  0  0  0  0  0  0
   -3.3250   -4.3295    1.5205 C   0  0  2  0  0  0  0  0  0  0  0  0
   -4.0914   -4.8405    2.6036 O   0  0  0  0  0  0  0  0  0  0  0  0
   -0.0053   -4.5551    2.1744 N   0  3  0  0  0  0  0  0  0  0  0  0
   -2.2125   -3.4302    2.0560 C   0  0  2  0  0  0  0  0  0  0  0  0
   -1.4690   -2.8560    0.9617 O   0  0  0  0  0  0  0  0  0  0  0  0
   -1.1484    1.9420   -1.9996 C   0  0  2  0  0  0  0  0  0  0  0  0
   -0.6189    3.2246   -2.5172 N   0  3  0  0  0  0  0  0  0  0  0  0
   -2.5784    2.1300   -1.5057 C   0  0  0  0  0  0  0  0  0  0  0  0
   -3.1352    0.8192   -0.9683 C   0  0  2  0  0  0  0  0  0  0  0  0
   -4.4973    1.0652   -0.5163 N   0  3  0  0  0  0  0  0  0  0  0  0
   -2.2625    0.3185    0.1802 C   0  0  1  0  0  0  0  0  0  0  0  0
   -2.7798   -0.9362    0.6644 O   0  0  0  0  0  0  0  0  0  0  0  0
   -0.8112    0.1279   -0.2819 C   0  0  2  0  0  0  0  0  0  0  0  0
    0.0039   -0.2429    0.8463 O   0  0  0  0  0  0  0  0  0  0  0  0
   -0.2452    1.4096   -0.8883 C   0  0  1  0  0  0  0  0  0  0  0  0
    1.0508    1.1540   -1.4132 O   0  0  0  0  0  0  0  0  0  0  0  0
  1  2  1  0  0  0  0
  3  2  1  1  0  0  0
  3  5  1  0  0  0  0
  3  4  1  0  0  0  0
  4  9  1  0  0  0  0
  5  7  1  0  0  0  0
  5  6  1  6  0  0  0
  7  9  1  0  0  0  0
  7  8  1  1  0  0  0
  9 40  1  1  0  0  0
 10  6  1  1  0  0  0
 10 11  1  0  0  0  0
 10 18  1  0  0  0  0
 11 13  1  0  0  0  0
 11 12  1  1  0  0  0
 13 15  1  0  0  0  0
 13 14  1  6  0  0  0
 15 17  1  0  0  0  0
 15 16  1  1  0  0  0
 17 19  1  1  0  0  0
 17 18  1  0  0  0  0
 19 20  1  0  0  0  0
 21 29  1  0  0  0  0
 22 23  1  0  0  0  0
 22 31  1  0  0  0  0
 22 38  1  1  0  0  0
 23 25  1  0  0  0  0
 23 24  1  6  0  0  0
 25 27  1  0  0  0  0
 25 26  1  6  0  0  0
 27 30  1  0  0  0  0
 27 28  1  1  0  0  0
 30 21  1  1  0  0  0
 30 31  1  0  0  0  0
 32 34  1  0  0  0  0
 32 41  1  0  0  0  0
 32 33  1  1  0  0  0
 34 35  1  0  0  0  0
 35 37  1  0  0  0  0
 35 36  1  1  0  0  0
 37 39  1  0  0  0  0
 37 38  1  6  0  0  0
 39 41  1  0  0  0  0
 39 40  1  1  0  0  0
 41 42  1  6  0  0  0
M  CHG  6  12   1  20   1  24   1  29   1  33   1  36   1
M  END
>  <CHROM.1>
-43.78086960,-172.35838469,-171.24909505,123.42424413,51.94401338,-162.73296657
52.00389924,-55.18796727,-174.52782756,85.46236890,-169.83550106,98.88350754
-41.08178514,-123.55113481,156.65901857,-52.07828233,78.56751087,-176.63096631
7.90354571,90.95784004,130.66074754,152.20391058,0.71137264,-0.26341598,0.35891737
-0.47045483,0.28743297,2.53620360

>  <Name>
1NEM.B

>  <RI>
0

>  <Rbt.Current_Directory>
/home/itssahil/PROJECTS/Mol_Feturizer/New_Systems/rnas/1nem

>  <Rbt.Executable>
rbdock ($Id: //depot/dev/client3/rdock/2013.1/src/exe/rbdock.cxx#4 $)

>  <Rbt.Library>
libRbt.so (2013.1, Build901 2013/11/27)

>  <Rbt.Parameter_File>
/export/apps/rDock/src/rDock_2013.1_src/data/scripts/dock_solv.prm

>  <Rbt.Receptor>
prm/pocket_docking_5.prm

>  <SCORE>
-24.1801

>  <SCORE.INTER>
-37.6486

>  <SCORE.INTER.CONST>
1

>  <SCORE.INTER.POLAR>
-6.08219

>  <SCORE.INTER.ROT>
9

>  <SCORE.INTER.SOLV>
28.9643

>  <SCORE.INTER.VDW>
-24.0798

>  <SCORE.INTER.norm>
-0.896394

>  <SCORE.INTRA>
13.4684

>  <SCORE.INTRA.DIHEDRAL>
23.5445

>  <SCORE.INTRA.DIHEDRAL.0>
22.4324

>  <SCORE.INTRA.POLAR>
-1.94292

>  <SCORE.INTRA.POLAR.0>
-1.83749

>  <SCORE.INTRA.REPUL>
0.00742653

>  <SCORE.INTRA.REPUL.0>
0

>  <SCORE.INTRA.SOLV>
5.25535

>  <SCORE.INTRA.SOLV.lig_0>
-160.638

>  <SCORE.INTRA.VDW>
5.6373

>  <SCORE.INTRA.VDW.0>
-7.61953

>  <SCORE.INTRA.norm>
0.320677

>  <SCORE.RESTR>
0

>  <SCORE.RESTR.CAVITY>
0

>  <SCORE.RESTR.norm>
0

>  <SCORE.SYSTEM>
0

>  <SCORE.SYSTEM.CONST>
0

>  <SCORE.SYSTEM.DIHEDRAL>
0

>  <SCORE.SYSTEM.SOLV>
0

>  <SCORE.SYSTEM.norm>
0

>  <SCORE.heavy>
42

>  <SCORE.norm>
-0.575718

>  <RMSD>
3.537

$$$$
1NEM.B
 OpenBabel11021811403D
libRbt.so/2013.1/901 2013/11/27
 42 45  0  0  0  0  0  0  0  0999 V2000
    2.4538   -5.9400    2.5204 O   0  0  0  0  0  0  0  0  0  0  0  0
    2.2473   -4.6630    3.1275 C   0  0  0  0  0  0  0  0  0  0  0  0
    1.5960   -3.6512    2.1858 C   0  0  1  0  0  0  0  0  0  0  0  0
    0.3036   -4.0963    1.7844 O   0  0  0  0  0  0  0  0  0  0  0  0
    1.3161   -2.2930    2.8092 C   0  0  1  0  0  0  0  0  0  0  0  0
    2.5735   -1.6323    2.9701 O   0  0  0  0  0  0  0  0  0  0  0  0
    0.3879   -1.7318    1.7484 C   0  0  1  0  0  0  0  0  0  0  0  0
    1.0773   -1.4347    0.5295 O   0  0  0  0  0  0  0  0  0  0  0  0
   -0.5202   -2.9524    1.5576 C   0  0  2  0  0  0  0  0  0  0  0  0
    2.5210   -0.2864    3.3482 C   0  0  2  0  0  0  0  0  0  0  0  0
    3.5629    0.5055    2.5465 C   0  0  2  0  0  0  0  0  0  0  0  0
    4.9018   -0.1255    2.6864 N   0  3  0  0  0  0  0  0  0  0  0  0
    3.5818    1.9752    2.9789 C   0  0  1  0  0  0  0  0  0  0  0  0
    2.3932    2.6182    2.5381 O   0  0  0  0  0  0  0  0  0  0  0  0
    3.7007    2.1023    4.5008 C   0  0  2  0  0  0  0  0  0  0  0  0
    4.9845    1.6704    4.9338 O   0  0  0  0  0  0  0  0  0  0  0  0
    2.6158    1.2648    5.1721 C   0  0  1  0  0  0  0  0  0  0  0  0
    2.7264   -0.1063    4.7434 O   0  0  0  0  0  0  0  0  0  0  0  0
    2.6925    1.2893    6.6885 C   0  0  0  0  0  0  0  0  0  0  0  0
    1.3870    0.9795    7.3126 N   0  3  0  0  0  0  0  0  0  0  0  0
   -6.0619   -4.9040    2.3724 C   0  0  0  0  0  0  0  0  0  0  0  0
   -4.8691   -2.3602    4.7876 C   0  0  2  0  0  0  0  0  0  0  0  0
   -4.7851   -3.1872    6.0683 C   0  0  2  0  0  0  0  0  0  0  0  0
   -3.9038   -2.5178    7.0546 N   0  3  0  0  0  0  0  0  0  0  0  0
   -4.2369   -4.5745    5.7621 C   0  0  1  0  0  0  0  0  0  0  0  0
   -4.2367   -5.3582    6.9455 O   0  0  0  0  0  0  0  0  0  0  0  0
   -5.0991   -5.2398    4.6916 C   0  0  2  0  0  0  0  0  0  0  0  0
   -4.5537   -6.5076    4.3501 O   0  0  0  0  0  0  0  0  0  0  0  0
   -5.7941   -4.2767    1.0580 N   0  3  0  0  0  0  0  0  0  0  0  0
   -5.1482   -4.3494    3.4514 C   0  0  2  0  0  0  0  0  0  0  0  0
   -5.6405   -3.0396    3.8005 O   0  0  0  0  0  0  0  0  0  0  0  0
   -4.2270   -1.9779    0.1366 C   0  0  2  0  0  0  0  0  0  0  0  0
   -4.1501   -1.5556   -1.2808 N   0  3  0  0  0  0  0  0  0  0  0  0
   -4.7950   -0.8473    0.9870 C   0  0  0  0  0  0  0  0  0  0  0  0
   -4.8778   -1.2667    2.4480 C   0  0  2  0  0  0  0  0  0  0  0  0
   -5.4268   -0.1489    3.2025 N   0  3  0  0  0  0  0  0  0  0  0  0
   -3.4878   -1.6383    2.9592 C   0  0  1  0  0  0  0  0  0  0  0  0
   -3.5790   -2.0608    4.3337 O   0  0  0  0  0  0  0  0  0  0  0  0
   -2.8822   -2.7694    2.1166 C   0  0  2  0  0  0  0  0  0  0  0  0
   -1.5346   -3.0235    2.5572 O   0  0  0  0  0  0  0  0  0  0  0  0
   -2.8471   -2.4047    0.6346 C   0  0  1  0  0  0  0  0  0  0  0  0
   -2.3969   -3.5229   -0.1187 O   0  0  0  0  0  0  0  0  0  0  0  0
  1  2  1  0  0  0  0
  3  2  1  1  0  0  0
  3  5  1  0  0  0  0
  3  4  1  0  0  0  0
  4  9  1  0  0  0  0
  5  7  1  0  0  0  0
  5  6  1  6  0  0  0
  7  9  1  0  0  0  0
  7  8  1  6  0  0  0
  9 40  1  1  0  0  0
 10  6  1  1  0  0  0
 10 11  1  0  0  0  0
 10 18  1  0  0  0  0
 11 13  1  0  0  0  0
 11 12  1  1  0  0  0
 13 15  1  0  0  0  0
 13 14  1  1  0  0  0
 15 17  1  0  0  0  0
 15 16  1  1  0  0  0
 17 19  1  1  0  0  0
 17 18  1  0  0  0  0
 19 20  1  0  0  0  0
 21 29  1  0  0  0  0
 22 23  1  0  0  0  0
 22 31  1  0  0  0  0
 22 38  1  6  0  0  0
 23 25  1  0  0  0  0
 23 24  1  1  0  0  0
 25 27  1  0  0  0  0
 25 26  1  1  0  0  0
 27 30  1  0  0  0  0
 27 28  1  6  0  0  0
 30 21  1  6  0  0  0
 30 31  1  0  0  0  0
 32 34  1  0  0  0  0
 32 41  1  0  0  0  0
 32 33  1  6  0  0  0
 34 35  1  0  0  0  0
 35 37  1  0  0  0  0
 35 36  1  1  0  0  0
 37 39  1  0  0  0  0
 37 38  1  1  0  0  0
 39 41  1  0  0  0  0
 39 40  1  1  0  0  0
 41 42  1  6  0  0  0
M  CHG  6  12   1  20   1  24   1  29   1  33   1  36   1
M  END
>  <CHROM.1>
-94.53807535,61.83784059,170.93946333,-138.18046198,-60.80547634,-135.23736633
-64.61241496,-178.57775731,177.70984567,156.25004155,-166.97167773,-162.87572886
57.61842682,162.49071990,12.14187641,-170.02169708,-48.43214844,94.73383526
-39.97889410,15.12744572,-124.73718270,83.59855300,-1.12366263,-2.00936935
3.21930146,-0.14744851,-0.44496153,-1.75140394

>  <Name>
1NEM.B

>  <RI>
0

>  <Rbt.Current_Directory>
/home/itssahil/PROJECTS/Mol_Feturizer/New_Systems/rnas/1nem

>  <Rbt.Executable>
rbdock ($Id: //depot/dev/client3/rdock/2013.1/src/exe/rbdock.cxx#4 $)

>  <Rbt.Library>
libRbt.so (2013.1, Build901 2013/11/27)

>  <Rbt.Parameter_File>
/export/apps/rDock/src/rDock_2013.1_src/data/scripts/dock_solv.prm

>  <Rbt.Receptor>
prm/blind_docking_20.prm

>  <SCORE>
-11.1075

>  <SCORE.INTER>
-50.2242

>  <SCORE.INTER.CONST>
1

>  <SCORE.INTER.POLAR>
-9.4901

>  <SCORE.INTER.ROT>
9

>  <SCORE.INTER.SOLV>
46.9054

>  <SCORE.INTER.VDW>
-27.0842

>  <SCORE.INTER.norm>
-1.19581

>  <SCORE.INTRA>
33.9304

>  <SCORE.INTRA.DIHEDRAL>
22.7761

>  <SCORE.INTRA.DIHEDRAL.0>
22.4324

>  <SCORE.INTRA.POLAR>
1.2698

>  <SCORE.INTRA.POLAR.0>
-1.83749

>  <SCORE.INTRA.REPUL>
0

>  <SCORE.INTRA.REPUL.0>
0

>  <SCORE.INTRA.SOLV>
-2.20226

>  <SCORE.INTRA.SOLV.lig_0>
-160.638

>  <SCORE.INTRA.VDW>
19.3261

>  <SCORE.INTRA.VDW.0>
-7.61953

>  <SCORE.INTRA.norm>
0.807866

>  <SCORE.RESTR>
5.18625

>  <SCORE.RESTR.CAVITY>
5.18625

>  <SCORE.RESTR.norm>
0.123482

>  <SCORE.SYSTEM>
0

>  <SCORE.SYSTEM.CONST>
0

>  <SCORE.SYSTEM.DIHEDRAL>
0

>  <SCORE.SYSTEM.SOLV>
0

>  <SCORE.SYSTEM.norm>
0

>  <SCORE.heavy>
42

>  <SCORE.norm>
-0.264465

>  <RMSD>
3.554

$$$$
1NEM.B
 OpenBabel11021811403D
libRbt.so/2013.1/901 2013/11/27
 42 45  0  0  0  0  0  0  0  0999 V2000
    4.0271    1.7040   -2.3380 O   0  0  0  0  0  0  0  0  0  0  0  0
    4.0357    1.6065   -0.9123 C   0  0  0  0  0  0  0  0  0  0  0  0
    2.9797    2.4873   -0.2461 C   0  0  1  0  0  0  0  0  0  0  0  0
    1.6807    2.1796   -0.7434 O   0  0  0  0  0  0  0  0  0  0  0  0
    2.8345    2.2798    1.2531 C   0  0  1  0  0  0  0  0  0  0  0  0
    3.9885    2.8503    1.8745 O   0  0  0  0  0  0  0  0  0  0  0  0
    1.5211    3.0084    1.4672 C   0  0  1  0  0  0  0  0  0  0  0  0
    1.6568    4.4247    1.3100 O   0  0  0  0  0  0  0  0  0  0  0  0
    0.7291    2.4201    0.2936 C   0  0  2  0  0  0  0  0  0  0  0  0
    5.1947    2.1677    1.6838 C   0  0  2  0  0  0  0  0  0  0  0  0
    5.1381    0.8240    2.4232 C   0  0  2  0  0  0  0  0  0  0  0  0
    4.7668    1.0400    3.8465 N   0  3  0  0  0  0  0  0  0  0  0  0
    6.4673    0.0732    2.2927 C   0  0  1  0  0  0  0  0  0  0  0  0
    6.6260   -0.3883    0.9576 O   0  0  0  0  0  0  0  0  0  0  0  0
    7.6491    0.9718    2.6696 C   0  0  2  0  0  0  0  0  0  0  0  0
    7.6284    1.2566    4.0627 O   0  0  0  0  0  0  0  0  0  0  0  0
    7.5813    2.2708    1.8715 C   0  0  1  0  0  0  0  0  0  0  0  0
    6.3197    2.9235    2.1131 O   0  0  0  0  0  0  0  0  0  0  0  0
    8.6893    3.2481    2.2225 C   0  0  0  0  0  0  0  0  0  0  0  0
    8.5383    3.7854    3.5931 N   0  3  0  0  0  0  0  0  0  0  0  0
   -3.0476   -5.0478    1.7410 C   0  0  0  0  0  0  0  0  0  0  0  0
   -0.8837   -2.0569    2.0557 C   0  0  2  0  0  0  0  0  0  0  0  0
    0.4637   -2.7008    2.3736 C   0  0  2  0  0  0  0  0  0  0  0  0
    1.5660   -1.7512    2.0895 N   0  3  0  0  0  0  0  0  0  0  0  0
    0.6541   -3.9593    1.5375 C   0  0  1  0  0  0  0  0  0  0  0  0
    1.8734   -4.5901    1.8978 O   0  0  0  0  0  0  0  0  0  0  0  0
   -0.5181   -4.9098    1.7705 C   0  0  2  0  0  0  0  0  0  0  0  0
   -0.3831   -6.0569    0.9413 O   0  0  0  0  0  0  0  0  0  0  0  0
   -4.2146   -4.2186    2.1197 N   0  3  0  0  0  0  0  0  0  0  0  0
   -1.8274   -4.1923    1.4478 C   0  0  2  0  0  0  0  0  0  0  0  0
   -1.9433   -2.9921    2.2389 O   0  0  0  0  0  0  0  0  0  0  0  0
   -3.0472    1.4746   -1.2967 C   0  0  2  0  0  0  0  0  0  0  0  0
   -3.9131    2.6507   -1.5422 N   0  3  0  0  0  0  0  0  0  0  0  0
   -3.8171    0.4143   -0.5175 C   0  0  0  0  0  0  0  0  0  0  0  0
   -2.9380   -0.8006   -0.2557 C   0  0  2  0  0  0  0  0  0  0  0  0
   -3.7290   -1.7717    0.4869 N   0  3  0  0  0  0  0  0  0  0  0  0
   -1.7022   -0.3836    0.5382 C   0  0  1  0  0  0  0  0  0  0  0  0
   -0.8619   -1.5335    0.7573 O   0  0  0  0  0  0  0  0  0  0  0  0
   -0.9084    0.6925   -0.2155 C   0  0  2  0  0  0  0  0  0  0  0  0
    0.1891    1.1375    0.6043 O   0  0  0  0  0  0  0  0  0  0  0  0
   -1.7822    1.8982   -0.5520 C   0  0  1  0  0  0  0  0  0  0  0  0
   -1.0437    2.8103   -1.3540 O   0  0  0  0  0  0  0  0  0  0  0  0
  1  2  1  0  0  0  0
  3  2  1  6  0  0  0
  3  5  1  0  0  0  0
  3  4  1  0  0  0  0
  4  9  1  0  0  0  0
  5  7  1  0  0  0  0
  5  6  1  1  0  0  0
  7  9  1  0  0  0  0
  7  8  1  6  0  0  0
  9 40  1  1  0  0  0
 10  6  1  1  0  0  0
 10 11  1  0  0  0  0
 10 18  1  0  0  0  0
 11 13  1  0  0  0  0
 11 12  1  1  0  0  0
 13 15  1  0  0  0  0
 13 14  1  6  0  0  0
 15 17  1  0  0  0  0
 15 16  1  1  0  0  0
 17 19  1  1  0  0  0
 17 18  1  0  0  0  0
 19 20  1  0  0  0  0
 21 29  1  0  0  0  0
 22 23  1  0  0  0  0
 22 31  1  0  0  0  0
 22 38  1  6  0  0  0
 23 25  1  0  0  0  0
 23 24  1  6  0  0  0
 25 27  1  0  0  0  0
 25 26  1  1  0  0  0
 27 30  1  0  0  0  0
 27 28  1  6  0  0  0
 30 21  1  1  0  0  0
 30 31  1  0  0  0  0
 32 34  1  0  0  0  0
 32 41  1  0  0  0  0
 32 33  1  1  0  0  0
 34 35  1  0  0  0  0
 35 37  1  0  0  0  0
 35 36  1  1  0  0  0
 37 39  1  0  0  0  0
 37 38  1  6  0  0  0
 39 41  1  0  0  0  0
 39 40  1  1  0  0  0
 41 42  1  6  0  0  0
M  CHG  6  12   1  20   1  24   1  29   1  33   1  36   1
M  END
>  <CHROM.1>
-167.33214390,56.31372552,-70.81466445,-68.12509992,-176.59593030,-85.21125418
50.66577459,-57.62022704,70.39387545,-68.09611386,-73.47861534,149.96956404
89.31719422,-150.24502092,-63.44149073,-161.75306782,-32.46557678,98.71194028
115.91620490,-105.27161491,-158.42674610,63.94231820,1.59075792,0.12625854
1.11844792,0.37838052,-0.30437824,-0.33866475

>  <Name>
1NEM.B

>  <RI>
0

>  <Rbt.Current_Directory>
/home/itssahil/PROJECTS/Mol_Feturizer/New_Systems/rnas/1nem

>  <Rbt.Executable>
rbdock ($Id: //depot/dev/client3/rdock/2013.1/src/exe/rbdock.cxx#4 $)

>  <Rbt.Library>
libRbt.so (2013.1, Build901 2013/11/27)

>  <Rbt.Parameter_File>
/export/apps/rDock/src/rDock_2013.1_src/data/scripts/dock_solv.prm

>  <Rbt.Receptor>
prm/pocket_docking_7.prm

>  <SCORE>
-24.137

>  <SCORE.INTER>
-39.7111

>  <SCORE.INTER.CONST>
1

>  <SCORE.INTER.POLAR>
-5.60268

>  <SCORE.INTER.ROT>
9

>  <SCORE.INTER.SOLV>
24.9224

>  <SCORE.INTER.VDW>
-25.7059

>  <SCORE.INTER.norm>
-0.945502

>  <SCORE.INTRA>
15.5741

>  <SCORE.INTRA.DIHEDRAL>
11.3338

>  <SCORE.INTRA.DIHEDRAL.0>
22.4324

>  <SCORE.INTRA.POLAR>
-0.620737

>  <SCORE.INTRA.POLAR.0>
-1.83749

>  <SCORE.INTRA.REPUL>
0

>  <SCORE.INTRA.REPUL.0>
0

>  <SCORE.INTRA.SOLV>
5.67432

>  <SCORE.INTRA.SOLV.lig_0>
-160.638

>  <SCORE.INTRA.VDW>
9.18055

>  <SCORE.INTRA.VDW.0>
-7.61953

>  <SCORE.INTRA.norm>
0.370812

>  <SCORE.RESTR>
0

>  <SCORE.RESTR.CAVITY>
0

>  <SCORE.RESTR.norm>
0

>  <SCORE.SYSTEM>
0

>  <SCORE.SYSTEM.CONST>
0

>  <SCORE.SYSTEM.DIHEDRAL>
0

>  <SCORE.SYSTEM.SOLV>
0

>  <SCORE.SYSTEM.norm>
0

>  <SCORE.heavy>
42

>  <SCORE.norm>
-0.57469

>  <RMSD>
3.574

$$$$
1NEM.B
 OpenBabel11021811403D
libRbt.so/2013.1/901 2013/11/27
 42 45  0  0  0  0  0  0  0  0999 V2000
    5.6001    0.9128   -2.1281 O   0  0  0  0  0  0  0  0  0  0  0  0
    4.9392    0.3827   -0.9773 C   0  0  0  0  0  0  0  0  0  0  0  0
    4.3661    1.4659   -0.0646 C   0  0  1  0  0  0  0  0  0  0  0  0
    3.0153    1.7551   -0.4130 O   0  0  0  0  0  0  0  0  0  0  0  0
    4.2692    1.0744    1.4013 C   0  0  1  0  0  0  0  0  0  0  0  0
    5.5991    1.0577    1.9252 O   0  0  0  0  0  0  0  0  0  0  0  0
    3.3651    2.1921    1.8861 C   0  0  1  0  0  0  0  0  0  0  0  0
    4.0297    3.4599    1.8939 O   0  0  0  0  0  0  0  0  0  0  0  0
    2.3172    2.1519    0.7675 C   0  0  2  0  0  0  0  0  0  0  0  0
    5.7818    0.3648    3.1268 C   0  0  2  0  0  0  0  0  0  0  0  0
    5.1689    1.1756    4.2767 C   0  0  2  0  0  0  0  0  0  0  0  0
    5.7115    2.5598    4.2711 N   0  3  0  0  0  0  0  0  0  0  0  0
    5.4059    0.4802    5.6212 C   0  0  1  0  0  0  0  0  0  0  0  0
    4.6095   -0.6947    5.6982 O   0  0  0  0  0  0  0  0  0  0  0  0
    6.8821    0.1130    5.8011 C   0  0  2  0  0  0  0  0  0  0  0  0
    7.6680    1.2880    5.9556 O   0  0  0  0  0  0  0  0  0  0  0  0
    7.3648   -0.6809    4.5905 C   0  0  1  0  0  0  0  0  0  0  0  0
    7.1509    0.0867    3.3901 O   0  0  0  0  0  0  0  0  0  0  0  0
    8.8382   -1.0420    4.6595 C   0  0  0  0  0  0  0  0  0  0  0  0
    9.0493   -2.5066    4.6431 N   0  3  0  0  0  0  0  0  0  0  0  0
   -2.5766   -4.0519    2.5622 C   0  0  0  0  0  0  0  0  0  0  0  0
    0.2746   -1.7839    1.8886 C   0  0  2  0  0  0  0  0  0  0  0  0
    1.4516   -2.7499    2.0005 C   0  0  2  0  0  0  0  0  0  0  0  0
    2.6446   -2.1856    1.3253 N   0  3  0  0  0  0  0  0  0  0  0  0
    1.0961   -4.0863    1.3627 C   0  0  1  0  0  0  0  0  0  0  0  0
    2.1680   -4.9993    1.5416 O   0  0  0  0  0  0  0  0  0  0  0  0
   -0.1755   -4.6366    2.0046 C   0  0  2  0  0  0  0  0  0  0  0  0
   -0.5529   -5.8503    1.3673 O   0  0  0  0  0  0  0  0  0  0  0  0
   -2.9811   -5.4138    2.1442 N   0  3  0  0  0  0  0  0  0  0  0  0
   -1.2998   -3.6117    1.8675 C   0  0  2  0  0  0  0  0  0  0  0  0
   -0.9010   -2.3566    2.4551 O   0  0  0  0  0  0  0  0  0  0  0  0
   -1.3962    2.0270   -1.4412 C   0  0  2  0  0  0  0  0  0  0  0  0
   -2.1030    3.3062   -1.6807 N   0  3  0  0  0  0  0  0  0  0  0  0
   -2.3866    0.9620   -0.9842 C   0  0  0  0  0  0  0  0  0  0  0  0
   -1.6731   -0.3588   -0.7319 C   0  0  2  0  0  0  0  0  0  0  0  0
   -2.6700   -1.3291   -0.3018 N   0  3  0  0  0  0  0  0  0  0  0  0
   -0.5994   -0.1708    0.3373 C   0  0  1  0  0  0  0  0  0  0  0  0
    0.0898   -1.4183    0.5499 O   0  0  0  0  0  0  0  0  0  0  0  0
    0.4103    0.9041   -0.0881 C   0  0  2  0  0  0  0  0  0  0  0  0
    1.3458    1.1306    0.9834 O   0  0  0  0  0  0  0  0  0  0  0  0
   -0.2833    2.2247   -0.4132 C   0  0  1  0  0  0  0  0  0  0  0  0
    0.6702    3.1493   -0.9195 O   0  0  0  0  0  0  0  0  0  0  0  0
  1  2  1  0  0  0  0
  3  2  1  6  0  0  0
  3  5  1  0  0  0  0
  3  4  1  0  0  0  0
  4  9  1  0  0  0  0
  5  7  1  0  0  0  0
  5  6  1  1  0  0  0
  7  9  1  0  0  0  0
  7  8  1  6  0  0  0
  9 40  1  1  0  0  0
 10  6  1  6  0  0  0
 10 11  1  0  0  0  0
 10 18  1  0  0  0  0
 11 13  1  0  0  0  0
 11 12  1  1  0  0  0
 13 15  1  0  0  0  0
 13 14  1  6  0  0  0
 15 17  1  0  0  0  0
 15 16  1  6  0  0  0
 17 19  1  1  0  0  0
 17 18  1  0  0  0  0
 19 20  1  0  0  0  0
 21 29  1  0  0  0  0
 22 23  1  0  0  0  0
 22 31  1  0  0  0  0
 22 38  1  6  0  0  0
 23 25  1  0  0  0  0
 23 24  1  6  0  0  0
 25 27  1  0  0  0  0
 25 26  1  1  0  0  0
 27 30  1  0  0  0  0
 27 28  1  6  0  0  0
 30 21  1  1  0  0  0
 30 31  1  0  0  0  0
 32 34  1  0  0  0  0
 32 41  1  0  0  0  0
 32 33  1  1  0  0  0
 34 35  1  0  0  0  0
 35 37  1  0  0  0  0
 35 36  1  1  0  0  0
 37 39  1  0  0  0  0
 37 38  1  6  0  0  0
 39 41  1  0  0  0  0
 39 40  1  1  0  0  0
 41 42  1  6  0  0  0
M  CHG  6  12   1  20   1  24   1  29   1  33   1  36   1
M  END
>  <CHROM.1>
-156.41333410,91.85411279,-162.30765609,-72.91323391,69.78028014,-58.23907233
176.24458706,144.04373518,177.52245322,119.63869709,64.82248933,-51.79890852
92.86725096,-156.99404636,170.23491204,67.58159525,-52.69107824,68.69309444
158.74641685,-133.59857010,-177.17933260,70.05252329,2.44499307,-0.38925541
1.71534940,0.00133469,-0.46499288,-0.47605835

>  <Name>
1NEM.B

>  <RI>
0

>  <Rbt.Current_Directory>
/home/itssahil/PROJECTS/Mol_Feturizer/New_Systems/rnas/1nem

>  <Rbt.Executable>
rbdock ($Id: //depot/dev/client3/rdock/2013.1/src/exe/rbdock.cxx#4 $)

>  <Rbt.Library>
libRbt.so (2013.1, Build901 2013/11/27)

>  <Rbt.Parameter_File>
/export/apps/rDock/src/rDock_2013.1_src/data/scripts/dock_solv.prm

>  <Rbt.Receptor>
prm/pocket_docking_4.prm

>  <SCORE>
-33.8584

>  <SCORE.INTER>
-44.498

>  <SCORE.INTER.CONST>
1

>  <SCORE.INTER.POLAR>
-7.50909

>  <SCORE.INTER.ROT>
9

>  <SCORE.INTER.SOLV>
33.8768

>  <SCORE.INTER.VDW>
-25.5273

>  <SCORE.INTER.norm>
-1.05948

>  <SCORE.INTRA>
10.1876

>  <SCORE.INTRA.DIHEDRAL>
9.85411

>  <SCORE.INTRA.DIHEDRAL.0>
22.4324

>  <SCORE.INTRA.POLAR>
0.239619

>  <SCORE.INTRA.POLAR.0>
-1.83749

>  <SCORE.INTRA.REPUL>
0

>  <SCORE.INTRA.REPUL.0>
0

>  <SCORE.INTRA.SOLV>
-0.630704

>  <SCORE.INTRA.SOLV.lig_0>
-160.638

>  <SCORE.INTRA.VDW>
4.76123

>  <SCORE.INTRA.VDW.0>
-7.61953

>  <SCORE.INTRA.norm>
0.242563

>  <SCORE.RESTR>
0.451903

>  <SCORE.RESTR.CAVITY>
0.451903

>  <SCORE.RESTR.norm>
0.0107596

>  <SCORE.SYSTEM>
0

>  <SCORE.SYSTEM.CONST>
0

>  <SCORE.SYSTEM.DIHEDRAL>
0

>  <SCORE.SYSTEM.SOLV>
0

>  <SCORE.SYSTEM.norm>
0

>  <SCORE.heavy>
42

>  <SCORE.norm>
-0.806153

>  <RMSD>
3.600

$$$$
1NEM.B
 OpenBabel11021811403D
libRbt.so/2013.1/901 2013/11/27
 42 45  0  0  0  0  0  0  0  0999 V2000
    2.5528   -5.1503    1.9696 O   0  0  0  0  0  0  0  0  0  0  0  0
    1.1529   -4.8718    2.0393 C   0  0  0  0  0  0  0  0  0  0  0  0
    0.7443   -3.6499    1.2178 C   0  0  1  0  0  0  0  0  0  0  0  0
   -0.6075   -3.7647    0.7830 O   0  0  0  0  0  0  0  0  0  0  0  0
    0.7506   -2.3379    1.9860 C   0  0  1  0  0  0  0  0  0  0  0  0
    2.1173   -1.9807    2.2051 O   0  0  0  0  0  0  0  0  0  0  0  0
   -0.0225   -1.4822    1.0002 C   0  0  1  0  0  0  0  0  0  0  0  0
    0.7309   -1.2099   -0.1861 O   0  0  0  0  0  0  0  0  0  0  0  0
   -1.1664   -2.4543    0.6880 C   0  0  2  0  0  0  0  0  0  0  0  0
    2.3432   -0.7328    2.7958 C   0  0  2  0  0  0  0  0  0  0  0  0
    2.8214    0.2556    1.7235 C   0  0  2  0  0  0  0  0  0  0  0  0
    3.9901   -0.3064    0.9964 N   0  3  0  0  0  0  0  0  0  0  0  0
    3.1427    1.6194    2.3433 C   0  0  1  0  0  0  0  0  0  0  0  0
    1.9376    2.2575    2.7445 O   0  0  0  0  0  0  0  0  0  0  0  0
    4.0731    1.4724    3.5512 C   0  0  2  0  0  0  0  0  0  0  0  0
    5.3641    1.0487    3.1316 O   0  0  0  0  0  0  0  0  0  0  0  0
    3.4860    0.4606    4.5312 C   0  0  1  0  0  0  0  0  0  0  0  0
    3.2802   -0.7992    3.8630 O   0  0  0  0  0  0  0  0  0  0  0  0
    4.3731    0.2114    5.7382 C   0  0  0  0  0  0  0  0  0  0  0  0
    5.6403   -0.4552    5.3642 N   0  3  0  0  0  0  0  0  0  0  0  0
   -8.3395   -3.9493    1.3990 C   0  0  0  0  0  0  0  0  0  0  0  0
   -5.8368   -2.7712    3.8639 C   0  0  2  0  0  0  0  0  0  0  0  0
   -5.8370   -3.9288    4.8594 C   0  0  2  0  0  0  0  0  0  0  0  0
   -4.5992   -3.9046    5.6748 N   0  3  0  0  0  0  0  0  0  0  0  0
   -5.9278   -5.2569    4.1198 C   0  0  1  0  0  0  0  0  0  0  0  0
   -6.0055   -6.3196    5.0575 O   0  0  0  0  0  0  0  0  0  0  0  0
   -7.1624   -5.2579    3.2211 C   0  0  2  0  0  0  0  0  0  0  0  0
   -7.2168   -6.4670    2.4751 O   0  0  0  0  0  0  0  0  0  0  0  0
   -9.0602   -5.2395    1.3036 N   0  3  0  0  0  0  0  0  0  0  0  0
   -7.0989   -4.0666    2.2672 C   0  0  2  0  0  0  0  0  0  0  0  0
   -6.9790   -2.8389    3.0143 O   0  0  0  0  0  0  0  0  0  0  0  0
   -4.2851    0.4236    0.3636 C   0  0  2  0  0  0  0  0  0  0  0  0
   -3.8993    1.7271   -0.2241 N   0  3  0  0  0  0  0  0  0  0  0  0
   -5.0965    0.6450    1.6350 C   0  0  0  0  0  0  0  0  0  0  0  0
   -5.4985   -0.6874    2.2518 C   0  0  2  0  0  0  0  0  0  0  0  0
   -6.2682   -0.4075    3.4556 N   0  3  0  0  0  0  0  0  0  0  0  0
   -4.2501   -1.5027    2.5809 C   0  0  1  0  0  0  0  0  0  0  0  0
   -4.6397   -2.7733    3.1379 O   0  0  0  0  0  0  0  0  0  0  0  0
   -3.4041   -1.7354    1.3215 C   0  0  2  0  0  0  0  0  0  0  0  0
   -2.1865   -2.4145    1.6835 O   0  0  0  0  0  0  0  0  0  0  0  0
   -3.0405   -0.4178    0.6415 C   0  0  1  0  0  0  0  0  0  0  0  0
   -2.3670   -0.6851   -0.5814 O   0  0  0  0  0  0  0  0  0  0  0  0
  1  2  1  0  0  0  0
  3  2  1  1  0  0  0
  3  5  1  0  0  0  0
  3  4  1  0  0  0  0
  4  9  1  0  0  0  0
  5  7  1  0  0  0  0
  5  6  1  6  0  0  0
  7  9  1  0  0  0  0
  7  8  1  6  0  0  0
  9 40  1  1  0  0  0
 10  6  1  6  0  0  0
 10 11  1  0  0  0  0
 10 18  1  0  0  0  0
 11 13  1  0  0  0  0
 11 12  1  1  0  0  0
 13 15  1  0  0  0  0
 13 14  1  1  0  0  0
 15 17  1  0  0  0  0
 15 16  1  6  0  0  0
 17 19  1  1  0  0  0
 17 18  1  0  0  0  0
 19 20  1  0  0  0  0
 21 29  1  0  0  0  0
 22 23  1  0  0  0  0
 22 31  1  0  0  0  0
 22 38  1  6  0  0  0
 23 25  1  0  0  0  0
 23 24  1  6  0  0  0
 25 27  1  0  0  0  0
 25 26  1  1  0  0  0
 27 30  1  0  0  0  0
 27 28  1  6  0  0  0
 30 21  1  1  0  0  0
 30 31  1  0  0  0  0
 32 34  1  0  0  0  0
 32 41  1  0  0  0  0
 32 33  1  1  0  0  0
 34 35  1  0  0  0  0
 35 37  1  0  0  0  0
 35 36  1  1  0  0  0
 37 39  1  0  0  0  0
 37 38  1  6  0  0  0
 39 41  1  0  0  0  0
 39 40  1  1  0  0  0
 41 42  1  6  0  0  0
M  CHG  6  12   1  20   1  24   1  29   1  33   1  36   1
M  END
>  <CHROM.1>
-65.08052936,152.07296918,174.41432579,-104.07620817,63.43311498,-140.21705737
-95.47365870,-62.46915431,78.72908228,-66.47016330,41.99281523,-21.35224241
-36.67975259,-155.86424622,177.90862673,177.80343537,69.52651572,164.67179870
-102.39123984,-30.75815157,-167.10509716,75.53162310,-1.69270810,-1.91875154
2.42458094,-0.30356045,0.16739934,2.69372488

>  <Name>
1NEM.B

>  <RI>
0

>  <Rbt.Current_Directory>
/home/itssahil/PROJECTS/Mol_Feturizer/New_Systems/rnas/1nem

>  <Rbt.Executable>
rbdock ($Id: //depot/dev/client3/rdock/2013.1/src/exe/rbdock.cxx#4 $)

>  <Rbt.Library>
libRbt.so (2013.1, Build901 2013/11/27)

>  <Rbt.Parameter_File>
/export/apps/rDock/src/rDock_2013.1_src/data/scripts/dock_solv.prm

>  <Rbt.Receptor>
prm/blind_docking_40.prm

>  <SCORE>
1.30171

>  <SCORE.INTER>
-25.0027

>  <SCORE.INTER.CONST>
1

>  <SCORE.INTER.POLAR>
-3.77802

>  <SCORE.INTER.ROT>
9

>  <SCORE.INTER.SOLV>
32.4561

>  <SCORE.INTER.VDW>
-24.4938

>  <SCORE.INTER.norm>
-0.595302

>  <SCORE.INTRA>
23.6398

>  <SCORE.INTRA.DIHEDRAL>
13.9293

>  <SCORE.INTRA.DIHEDRAL.0>
22.4324

>  <SCORE.INTRA.POLAR>
-0.967382

>  <SCORE.INTRA.POLAR.0>
-1.83749

>  <SCORE.INTRA.REPUL>
0

>  <SCORE.INTRA.REPUL.0>
0

>  <SCORE.INTRA.SOLV>
1.90713

>  <SCORE.INTRA.SOLV.lig_0>
-160.638

>  <SCORE.INTRA.VDW>
19.0107

>  <SCORE.INTRA.VDW.0>
-7.61953

>  <SCORE.INTRA.norm>
0.562852

>  <SCORE.RESTR>
2.66462

>  <SCORE.RESTR.CAVITY>
2.66462

>  <SCORE.RESTR.norm>
0.0634434

>  <SCORE.SYSTEM>
0

>  <SCORE.SYSTEM.CONST>
0

>  <SCORE.SYSTEM.DIHEDRAL>
0

>  <SCORE.SYSTEM.SOLV>
0

>  <SCORE.SYSTEM.norm>
0

>  <SCORE.heavy>
42

>  <SCORE.norm>
0.0309931

>  <RMSD>
3.642

$$$$
1NEM.B
 OpenBabel11021811403D
libRbt.so/2013.1/901 2013/11/27
 42 45  0  0  0  0  0  0  0  0999 V2000
    0.5427   -5.8947    1.3022 O   0  0  0  0  0  0  0  0  0  0  0  0
    1.2833   -4.7907    1.8266 C   0  0  0  0  0  0  0  0  0  0  0  0
    0.7961   -3.4405    1.3028 C   0  0  1  0  0  0  0  0  0  0  0  0
   -0.3666   -3.6033    0.4959 O   0  0  0  0  0  0  0  0  0  0  0  0
    0.3371   -2.4704    2.3797 C   0  0  1  0  0  0  0  0  0  0  0  0
    1.5057   -2.0082    3.0609 O   0  0  0  0  0  0  0  0  0  0  0  0
   -0.3773   -1.4610    1.5007 C   0  0  1  0  0  0  0  0  0  0  0  0
    0.5337   -0.7039    0.6970 O   0  0  0  0  0  0  0  0  0  0  0  0
   -1.1744   -2.4328    0.6227 C   0  0  2  0  0  0  0  0  0  0  0  0
    2.3156   -1.1089    2.3591 C   0  0  2  0  0  0  0  0  0  0  0  0
    3.7625   -1.2384    2.8541 C   0  0  2  0  0  0  0  0  0  0  0  0
    3.8110   -1.0917    4.3328 N   0  3  0  0  0  0  0  0  0  0  0  0
    4.6713   -0.2224    2.1545 C   0  0  1  0  0  0  0  0  0  0  0  0
    4.8439   -0.5939    0.7933 O   0  0  0  0  0  0  0  0  0  0  0  0
    4.0834    1.1900    2.2310 C   0  0  2  0  0  0  0  0  0  0  0  0
    4.1160    1.6666    3.5704 O   0  0  0  0  0  0  0  0  0  0  0  0
    2.6461    1.1762    1.7181 C   0  0  1  0  0  0  0  0  0  0  0  0
    1.8674    0.2347    2.4816 O   0  0  0  0  0  0  0  0  0  0  0  0
    1.9648    2.5303    1.8085 C   0  0  0  0  0  0  0  0  0  0  0  0
    0.9703    2.7214    0.7294 N   0  3  0  0  0  0  0  0  0  0  0  0
   -7.6501   -3.6831    1.0353 C   0  0  0  0  0  0  0  0  0  0  0  0
   -5.6219   -2.2966    3.8086 C   0  0  2  0  0  0  0  0  0  0  0  0
   -5.8363   -3.3553    4.8875 C   0  0  2  0  0  0  0  0  0  0  0  0
   -4.7718   -3.2636    5.9152 N   0  3  0  0  0  0  0  0  0  0  0  0
   -5.8207   -4.7464    4.2681 C   0  0  1  0  0  0  0  0  0  0  0  0
   -6.0979   -5.7156    5.2673 O   0  0  0  0  0  0  0  0  0  0  0  0
   -6.8659   -4.8230    3.1575 C   0  0  2  0  0  0  0  0  0  0  0  0
   -6.8102   -6.0965    2.5278 O   0  0  0  0  0  0  0  0  0  0  0  0
   -8.8913   -4.3769    1.4488 N   0  3  0  0  0  0  0  0  0  0  0  0
   -6.5963   -3.7272    2.1281 C   0  0  2  0  0  0  0  0  0  0  0  0
   -6.5873   -2.4356    2.7694 O   0  0  0  0  0  0  0  0  0  0  0  0
   -4.4039   -0.0938   -0.2579 C   0  0  2  0  0  0  0  0  0  0  0  0
   -4.0535    0.9230   -1.2761 N   0  3  0  0  0  0  0  0  0  0  0  0
   -4.7737    0.5887    1.0542 C   0  0  0  0  0  0  0  0  0  0  0  0
   -5.1343   -0.4451    2.1118 C   0  0  2  0  0  0  0  0  0  0  0  0
   -5.4773    0.2681    3.3339 N   0  3  0  0  0  0  0  0  0  0  0  0
   -3.9520   -1.3834    2.3424 C   0  0  1  0  0  0  0  0  0  0  0  0
   -4.3110   -2.3757    3.3236 O   0  0  0  0  0  0  0  0  0  0  0  0
   -3.5472   -2.0805    1.0361 C   0  0  2  0  0  0  0  0  0  0  0  0
   -2.3680   -2.8753    1.2651 O   0  0  0  0  0  0  0  0  0  0  0  0
   -3.2433   -1.0687   -0.0660 C   0  0  1  0  0  0  0  0  0  0  0  0
   -2.9956   -1.7557   -1.2855 O   0  0  0  0  0  0  0  0  0  0  0  0
  1  2  1  0  0  0  0
  3  2  1  1  0  0  0
  3  5  1  0  0  0  0
  3  4  1  0  0  0  0
  4  9  1  0  0  0  0
  5  7  1  0  0  0  0
  5  6  1  6  0  0  0
  7  9  1  0  0  0  0
  7  8  1  6  0  0  0
  9 40  1  1  0  0  0
 10  6  1  1  0  0  0
 10 11  1  0  0  0  0
 10 18  1  0  0  0  0
 11 13  1  0  0  0  0
 11 12  1  1  0  0  0
 13 15  1  0  0  0  0
 13 14  1  6  0  0  0
 15 17  1  0  0  0  0
 15 16  1  1  0  0  0
 17 19  1  1  0  0  0
 17 18  1  0  0  0  0
 19 20  1  0  0  0  0
 21 29  1  0  0  0  0
 22 23  1  0  0  0  0
 22 31  1  0  0  0  0
 22 38  1  6  0  0  0
 23 25  1  0  0  0  0
 23 24  1  1  0  0  0
 25 27  1  0  0  0  0
 25 26  1  1  0  0  0
 27 30  1  0  0  0  0
 27 28  1  6  0  0  0
 30 21  1  6  0  0  0
 30 31  1  0  0  0  0
 32 34  1  0  0  0  0
 32 41  1  0  0  0  0
 32 33  1  6  0  0  0
 34 35  1  0  0  0  0
 35 37  1  0  0  0  0
 35 36  1  1  0  0  0
 37 39  1  0  0  0  0
 37 38  1  1  0  0  0
 39 41  1  0  0  0  0
 39 40  1  1  0  0  0
 41 42  1  6  0  0  0
M  CHG  6  12   1  20   1  24   1  29   1  33   1  36   1
M  END
>  <CHROM.1>
-62.80182674,4.99617754,72.93795384,-152.53940147,-94.30844367,-155.27186397
-40.83844081,64.40416601,176.18317636,148.84881957,71.93129989,18.88665394
32.78450165,-177.00421383,76.60180131,65.25530976,60.64347509,-178.33033171
-9.89442120,1.66637326,-111.97929298,-56.12183943,-1.85747825,-1.82387654
2.07897148,-0.34289614,0.10514662,2.66650968

>  <Name>
1NEM.B

>  <RI>
0

>  <Rbt.Current_Directory>
/home/itssahil/PROJECTS/Mol_Feturizer/New_Systems/rnas/1nem

>  <Rbt.Executable>
rbdock ($Id: //depot/dev/client3/rdock/2013.1/src/exe/rbdock.cxx#4 $)

>  <Rbt.Library>
libRbt.so (2013.1, Build901 2013/11/27)

>  <Rbt.Parameter_File>
/export/apps/rDock/src/rDock_2013.1_src/data/scripts/dock_solv.prm

>  <Rbt.Receptor>
prm/blind_docking_40.prm

>  <SCORE>
25.8755

>  <SCORE.INTER>
-18.8634

>  <SCORE.INTER.CONST>
1

>  <SCORE.INTER.POLAR>
-3.99367

>  <SCORE.INTER.ROT>
9

>  <SCORE.INTER.SOLV>
44.4879

>  <SCORE.INTER.VDW>
-23.6927

>  <SCORE.INTER.norm>
-0.449128

>  <SCORE.INTRA>
39.0995

>  <SCORE.INTRA.DIHEDRAL>
22.0926

>  <SCORE.INTRA.DIHEDRAL.0>
22.4324

>  <SCORE.INTRA.POLAR>
1.5772

>  <SCORE.INTRA.POLAR.0>
-1.83749

>  <SCORE.INTRA.REPUL>
0

>  <SCORE.INTRA.REPUL.0>
0

>  <SCORE.INTRA.SOLV>
-2.85807

>  <SCORE.INTRA.SOLV.lig_0>
-160.638

>  <SCORE.INTRA.VDW>
24.1198

>  <SCORE.INTRA.VDW.0>
-7.61953

>  <SCORE.INTRA.norm>
0.93094

>  <SCORE.RESTR>
5.63936

>  <SCORE.RESTR.CAVITY>
5.63936

>  <SCORE.RESTR.norm>
0.134271

>  <SCORE.SYSTEM>
0

>  <SCORE.SYSTEM.CONST>
0

>  <SCORE.SYSTEM.DIHEDRAL>
0

>  <SCORE.SYSTEM.SOLV>
0

>  <SCORE.SYSTEM.norm>
0

>  <SCORE.heavy>
42

>  <SCORE.norm>
0.616083

>  <RMSD>
3.700

$$$$
1NEM.B
 OpenBabel11021811403D
libRbt.so/2013.1/901 2013/11/27
 42 45  0  0  0  0  0  0  0  0999 V2000
    1.9093    3.5829   -2.4423 O   0  0  0  0  0  0  0  0  0  0  0  0
    2.4549    2.2625   -2.4124 C   0  0  0  0  0  0  0  0  0  0  0  0
    2.2324    1.5532   -1.0774 C   0  0  1  0  0  0  0  0  0  0  0  0
    0.8594    1.6075   -0.7010 O   0  0  0  0  0  0  0  0  0  0  0  0
    2.5280    0.0620   -1.0942 C   0  0  1  0  0  0  0  0  0  0  0  0
    3.9478   -0.0888   -1.1638 O   0  0  0  0  0  0  0  0  0  0  0  0
    1.8702   -0.3250    0.2170 C   0  0  1  0  0  0  0  0  0  0  0  0
    2.5893    0.1731    1.3501 O   0  0  0  0  0  0  0  0  0  0  0  0
    0.5491    0.4359    0.0536 C   0  0  2  0  0  0  0  0  0  0  0  0
    4.6971    0.6957   -0.2804 C   0  0  2  0  0  0  0  0  0  0  0  0
    5.8063    1.4158   -1.0592 C   0  0  2  0  0  0  0  0  0  0  0  0
    6.6012    0.4328   -1.8416 N   0  3  0  0  0  0  0  0  0  0  0  0
    6.6913    2.2361   -0.1151 C   0  0  1  0  0  0  0  0  0  0  0  0
    5.9635    3.3575    0.3679 O   0  0  0  0  0  0  0  0  0  0  0  0
    7.1733    1.3887    1.0665 C   0  0  2  0  0  0  0  0  0  0  0  0
    8.0896    0.3965    0.6214 O   0  0  0  0  0  0  0  0  0  0  0  0
    5.9774    0.7264    1.7448 C   0  0  1  0  0  0  0  0  0  0  0  0
    5.2520   -0.0655    0.7843 O   0  0  0  0  0  0  0  0  0  0  0  0
    6.3693   -0.1795    2.8988 C   0  0  0  0  0  0  0  0  0  0  0  0
    6.7225    0.5918    4.1113 N   0  3  0  0  0  0  0  0  0  0  0  0
    0.4808   -3.5057    2.5877 C   0  0  0  0  0  0  0  0  0  0  0  0
   -1.9754   -1.9807    0.2706 C   0  0  2  0  0  0  0  0  0  0  0  0
   -2.9806   -3.1195    0.1165 C   0  0  2  0  0  0  0  0  0  0  0  0
   -4.2742   -2.5977   -0.3855 N   0  3  0  0  0  0  0  0  0  0  0  0
   -3.2010   -3.8098    1.4559 C   0  0  1  0  0  0  0  0  0  0  0  0
   -4.0765   -4.9137    1.2842 O   0  0  0  0  0  0  0  0  0  0  0  0
   -1.8606   -4.2841    2.0129 C   0  0  2  0  0  0  0  0  0  0  0  0
   -2.0491   -4.8682    3.2954 O   0  0  0  0  0  0  0  0  0  0  0  0
    1.4249   -3.6130    1.4519 N   0  3  0  0  0  0  0  0  0  0  0  0
   -0.9061   -3.0966    2.1231 C   0  0  2  0  0  0  0  0  0  0  0  0
   -0.7586   -2.4581    0.8385 O   0  0  0  0  0  0  0  0  0  0  0  0
   -2.8941    2.4146   -1.5381 C   0  0  2  0  0  0  0  0  0  0  0  0
   -2.7153    3.7790   -2.0856 N   0  3  0  0  0  0  0  0  0  0  0  0
   -3.5130    2.4884   -0.1468 C   0  0  0  0  0  0  0  0  0  0  0  0
   -3.7006    1.0921    0.4297 C   0  0  2  0  0  0  0  0  0  0  0  0
   -4.2939    1.2317    1.7521 N   0  3  0  0  0  0  0  0  0  0  0  0
   -2.3523    0.3800    0.5102 C   0  0  1  0  0  0  0  0  0  0  0  0
   -2.5424   -0.9503    1.0302 O   0  0  0  0  0  0  0  0  0  0  0  0
   -1.6966    0.2976   -0.8753 C   0  0  2  0  0  0  0  0  0  0  0  0
   -0.3849   -0.2837   -0.7483 O   0  0  0  0  0  0  0  0  0  0  0  0
   -1.5553    1.6791   -1.5094 C   0  0  1  0  0  0  0  0  0  0  0  0
   -1.0607    1.5441   -2.8352 O   0  0  0  0  0  0  0  0  0  0  0  0
  1  2  1  0  0  0  0
  3  2  1  6  0  0  0
  3  5  1  0  0  0  0
  3  4  1  0  0  0  0
  4  9  1  0  0  0  0
  5  7  1  0  0  0  0
  5  6  1  1  0  0  0
  7  9  1  0  0  0  0
  7  8  1  1  0  0  0
  9 40  1  6  0  0  0
 10  6  1  6  0  0  0
 10 11  1  0  0  0  0
 10 18  1  0  0  0  0
 11 13  1  0  0  0  0
 11 12  1  1  0  0  0
 13 15  1  0  0  0  0
 13 14  1  1  0  0  0
 15 17  1  0  0  0  0
 15 16  1  6  0  0  0
 17 19  1  1  0  0  0
 17 18  1  0  0  0  0
 19 20  1  0  0  0  0
 21 29  1  0  0  0  0
 22 23  1  0  0  0  0
 22 31  1  0  0  0  0
 22 38  1  1  0  0  0
 23 25  1  0  0  0  0
 23 24  1  1  0  0  0
 25 27  1  0  0  0  0
 25 26  1  6  0  0  0
 27 30  1  0  0  0  0
 27 28  1  1  0  0  0
 30 21  1  6  0  0  0
 30 31  1  0  0  0  0
 32 34  1  0  0  0  0
 32 41  1  0  0  0  0
 32 33  1  1  0  0  0
 34 35  1  0  0  0  0
 35 37  1  0  0  0  0
 35 36  1  1  0  0  0
 37 39  1  0  0  0  0
 37 38  1  6  0  0  0
 39 41  1  0  0  0  0
 39 40  1  1  0  0  0
 41 42  1  6  0  0  0
M  CHG  6  12   1  20   1  24   1  29   1  33   1  36   1
M  END
>  <CHROM.1>
62.91264974,51.48221191,46.99507292,-130.26778017,-167.98940243,-70.12034931
171.61352556,54.56147516,167.79041075,76.68440456,73.07914032,99.78675422
-63.05188205,-134.33944633,85.13029533,178.64857680,67.86759092,62.21691675
47.94839503,128.41887466,-61.68375208,-174.34640024,1.00401579,-0.10731604
0.25102626,0.26295262,-0.14223643,-0.56380809

>  <Name>
1NEM.B

>  <RI>
0

>  <Rbt.Current_Directory>
/home/itssahil/PROJECTS/Mol_Feturizer/New_Systems/rnas/1nem

>  <Rbt.Executable>
rbdock ($Id: //depot/dev/client3/rdock/2013.1/src/exe/rbdock.cxx#4 $)

>  <Rbt.Library>
libRbt.so (2013.1, Build901 2013/11/27)

>  <Rbt.Parameter_File>
/export/apps/rDock/src/rDock_2013.1_src/data/scripts/dock_solv.prm

>  <Rbt.Receptor>
prm/pocket_docking_5.prm

>  <SCORE>
-18.4361

>  <SCORE.INTER>
-35.3246

>  <SCORE.INTER.CONST>
1

>  <SCORE.INTER.POLAR>
-5.51288

>  <SCORE.INTER.ROT>
9

>  <SCORE.INTER.SOLV>
34.0556

>  <SCORE.INTER.VDW>
-26.1253

>  <SCORE.INTER.norm>
-0.841061

>  <SCORE.INTRA>
16.8885

>  <SCORE.INTRA.DIHEDRAL>
8.84457

>  <SCORE.INTRA.DIHEDRAL.0>
22.4324

>  <SCORE.INTRA.POLAR>
1.04548

>  <SCORE.INTRA.POLAR.0>
-1.83749

>  <SCORE.INTRA.REPUL>
0

>  <SCORE.INTRA.REPUL.0>
0

>  <SCORE.INTRA.SOLV>
-4.38696

>  <SCORE.INTRA.SOLV.lig_0>
-160.638

>  <SCORE.INTRA.VDW>
11.105

>  <SCORE.INTRA.VDW.0>
-7.61953

>  <SCORE.INTRA.norm>
0.402106

>  <SCORE.RESTR>
0

>  <SCORE.RESTR.CAVITY>
0

>  <SCORE.RESTR.norm>
0

>  <SCORE.SYSTEM>
0

>  <SCORE.SYSTEM.CONST>
0

>  <SCORE.SYSTEM.DIHEDRAL>
0

>  <SCORE.SYSTEM.SOLV>
0

>  <SCORE.SYSTEM.norm>
0

>  <SCORE.heavy>
42

>  <SCORE.norm>
-0.438955

>  <RMSD>
3.773

$$$$
1NEM.B
 OpenBabel11021811403D
libRbt.so/2013.1/901 2013/11/27
 42 45  0  0  0  0  0  0  0  0999 V2000
    4.8376    1.8824   -1.6780 O   0  0  0  0  0  0  0  0  0  0  0  0
    4.7250    3.0524   -0.8652 C   0  0  0  0  0  0  0  0  0  0  0  0
    3.3674    3.1728   -0.1745 C   0  0  1  0  0  0  0  0  0  0  0  0
    2.3085    3.0056   -1.1128 O   0  0  0  0  0  0  0  0  0  0  0  0
    3.0850    2.0965    0.8615 C   0  0  1  0  0  0  0  0  0  0  0  0
    3.9092    2.3726    1.9963 O   0  0  0  0  0  0  0  0  0  0  0  0
    1.5948    2.3214    1.0370 C   0  0  1  0  0  0  0  0  0  0  0  0
    1.3096    3.5529    1.7086 O   0  0  0  0  0  0  0  0  0  0  0  0
    1.1940    2.4197   -0.4396 C   0  0  2  0  0  0  0  0  0  0  0  0
    4.4129    1.2608    2.6800 C   0  0  2  0  0  0  0  0  0  0  0  0
    3.5606    1.0070    3.9308 C   0  0  2  0  0  0  0  0  0  0  0  0
    3.4695    2.2467    4.7463 N   0  3  0  0  0  0  0  0  0  0  0  0
    4.1202   -0.1652    4.7434 C   0  0  1  0  0  0  0  0  0  0  0  0
    3.8960   -1.3818    4.0433 O   0  0  0  0  0  0  0  0  0  0  0  0
    5.6195    0.0087    5.0043 C   0  0  2  0  0  0  0  0  0  0  0  0
    5.8432    1.0941    5.8953 O   0  0  0  0  0  0  0  0  0  0  0  0
    6.3443    0.2602    3.6851 C   0  0  1  0  0  0  0  0  0  0  0  0
    5.7809    1.4157    3.0344 O   0  0  0  0  0  0  0  0  0  0  0  0
    7.8343    0.4986    3.8561 C   0  0  0  0  0  0  0  0  0  0  0  0
    8.5882    0.1917    2.6203 N   0  3  0  0  0  0  0  0  0  0  0  0
   -1.6730   -4.2863    2.6687 C   0  0  0  0  0  0  0  0  0  0  0  0
    0.5503   -1.4830    1.7067 C   0  0  2  0  0  0  0  0  0  0  0  0
    1.9146   -2.1679    1.7312 C   0  0  2  0  0  0  0  0  0  0  0  0
    2.8962   -1.3846    0.9436 N   0  3  0  0  0  0  0  0  0  0  0  0
    1.8075   -3.5717    1.1507 C   0  0  1  0  0  0  0  0  0  0  0  0
    3.0635   -4.2251    1.2503 O   0  0  0  0  0  0  0  0  0  0  0  0
    0.7436   -4.3596    1.9118 C   0  0  2  0  0  0  0  0  0  0  0  0
    0.5885   -5.6484    1.3316 O   0  0  0  0  0  0  0  0  0  0  0  0
   -2.1288   -5.5399    2.0255 N   0  3  0  0  0  0  0  0  0  0  0  0
   -0.5844   -3.6068    1.8565 C   0  0  2  0  0  0  0  0  0  0  0  0
   -0.4216   -2.2747    2.3846 O   0  0  0  0  0  0  0  0  0  0  0  0
   -2.7113    1.3624   -1.3598 C   0  0  2  0  0  0  0  0  0  0  0  0
   -3.6007    2.5288   -1.5643 N   0  3  0  0  0  0  0  0  0  0  0  0
   -3.0414    0.6812   -0.0365 C   0  0  0  0  0  0  0  0  0  0  0  0
   -2.1327   -0.5193    0.1883 C   0  0  2  0  0  0  0  0  0  0  0  0
   -2.4986   -1.1233    1.4617 N   0  3  0  0  0  0  0  0  0  0  0  0
   -0.6738   -0.0691    0.1984 C   0  0  1  0  0  0  0  0  0  0  0  0
    0.1807   -1.2145    0.3833 O   0  0  0  0  0  0  0  0  0  0  0  0
   -0.3109    0.6310   -1.1186 C   0  0  2  0  0  0  0  0  0  0  0  0
    1.0362    1.1341   -1.0359 O   0  0  0  0  0  0  0  0  0  0  0  0
   -1.2485    1.8010   -1.4060 C   0  0  1  0  0  0  0  0  0  0  0  0
   -0.9560    2.3393   -2.6887 O   0  0  0  0  0  0  0  0  0  0  0  0
  1  2  1  0  0  0  0
  3  2  1  6  0  0  0
  3  5  1  0  0  0  0
  3  4  1  0  0  0  0
  4  9  1  0  0  0  0
  5  7  1  0  0  0  0
  5  6  1  1  0  0  0
  7  9  1  0  0  0  0
  7  8  1  1  0  0  0
  9 40  1  6  0  0  0
 10  6  1  1  0  0  0
 10 11  1  0  0  0  0
 10 18  1  0  0  0  0
 11 13  1  0  0  0  0
 11 12  1  1  0  0  0
 13 15  1  0  0  0  0
 13 14  1  6  0  0  0
 15 17  1  0  0  0  0
 15 16  1  1  0  0  0
 17 19  1  1  0  0  0
 17 18  1  0  0  0  0
 19 20  1  0  0  0  0
 21 29  1  0  0  0  0
 22 23  1  0  0  0  0
 22 31  1  0  0  0  0
 22 38  1  6  0  0  0
 23 25  1  0  0  0  0
 23 24  1  6  0  0  0
 25 27  1  0  0  0  0
 25 26  1  1  0  0  0
 27 30  1  0  0  0  0
 27 28  1  6  0  0  0
 30 21  1  1  0  0  0
 30 31  1  0  0  0  0
 32 34  1  0  0  0  0
 32 41  1  0  0  0  0
 32 33  1  1  0  0  0
 34 35  1  0  0  0  0
 35 37  1  0  0  0  0
 35 36  1  1  0  0  0
 37 39  1  0  0  0  0
 37 38  1  6  0  0  0
 39 41  1  0  0  0  0
 39 40  1  1  0  0  0
 41 42  1  6  0  0  0
M  CHG  6  12   1  20   1  24   1  29   1  33   1  36   1
M  END
>  <CHROM.1>
69.87114360,-50.23811298,-144.51089281,-100.14117522,-14.73295540,-147.64008712
-67.03317149,-159.45201265,80.51349091,156.61741150,74.11921152,-71.35947920
159.96313764,-151.02917294,62.89922087,61.71161394,-33.78028893,-165.35070259
-130.28318656,-93.94800696,-85.39383460,-168.37881965,1.84601720,-0.02809418
1.37383603,0.02690441,-0.46728906,-0.46867341

>  <Name>
1NEM.B

>  <RI>
0

>  <Rbt.Current_Directory>
/home/itssahil/PROJECTS/Mol_Feturizer/New_Systems/rnas/1nem

>  <Rbt.Executable>
rbdock ($Id: //depot/dev/client3/rdock/2013.1/src/exe/rbdock.cxx#4 $)

>  <Rbt.Library>
libRbt.so (2013.1, Build901 2013/11/27)

>  <Rbt.Parameter_File>
/export/apps/rDock/src/rDock_2013.1_src/data/scripts/dock_solv.prm

>  <Rbt.Receptor>
prm/pocket_docking_5.prm

>  <SCORE>
-33.2639

>  <SCORE.INTER>
-49.5325

>  <SCORE.INTER.CONST>
1

>  <SCORE.INTER.POLAR>
-7.3591

>  <SCORE.INTER.ROT>
9

>  <SCORE.INTER.SOLV>
38.0265

>  <SCORE.INTER.VDW>
-30.7668

>  <SCORE.INTER.norm>
-1.17934

>  <SCORE.INTRA>
15.9244

>  <SCORE.INTRA.DIHEDRAL>
23.7341

>  <SCORE.INTRA.DIHEDRAL.0>
22.4324

>  <SCORE.INTRA.POLAR>
-0.572811

>  <SCORE.INTRA.POLAR.0>
-1.83749

>  <SCORE.INTRA.REPUL>
0.0644625

>  <SCORE.INTRA.REPUL.0>
0

>  <SCORE.INTRA.SOLV>
2.18249

>  <SCORE.INTRA.SOLV.lig_0>
-160.638

>  <SCORE.INTRA.VDW>
4.59132

>  <SCORE.INTRA.VDW.0>
-7.61953

>  <SCORE.INTRA.norm>
0.379152

>  <SCORE.RESTR>
0.344176

>  <SCORE.RESTR.CAVITY>
0.344176

>  <SCORE.RESTR.norm>
0.00819466

>  <SCORE.SYSTEM>
0

>  <SCORE.SYSTEM.CONST>
0

>  <SCORE.SYSTEM.DIHEDRAL>
0

>  <SCORE.SYSTEM.SOLV>
0

>  <SCORE.SYSTEM.norm>
0

>  <SCORE.heavy>
42

>  <SCORE.norm>
-0.791998

>  <RMSD>
3.814

$$$$
1NEM.B
 OpenBabel11021811403D
libRbt.so/2013.1/901 2013/11/27
 42 45  0  0  0  0  0  0  0  0999 V2000
   -1.2352   -6.1640    1.8514 O   0  0  0  0  0  0  0  0  0  0  0  0
   -0.0333   -5.6565    1.2682 C   0  0  0  0  0  0  0  0  0  0  0  0
   -0.1877   -4.2400    0.7166 C   0  0  1  0  0  0  0  0  0  0  0  0
   -1.4963   -4.0452    0.1883 O   0  0  0  0  0  0  0  0  0  0  0  0
   -0.0666   -3.1375    1.7565 C   0  0  1  0  0  0  0  0  0  0  0  0
    1.3108   -3.0552    2.1298 O   0  0  0  0  0  0  0  0  0  0  0  0
   -0.6170   -1.9818    0.9421 C   0  0  1  0  0  0  0  0  0  0  0  0
    0.2733   -1.5879   -0.1074 O   0  0  0  0  0  0  0  0  0  0  0  0
   -1.8532   -2.6728    0.3546 C   0  0  2  0  0  0  0  0  0  0  0  0
    1.7813   -1.7856    2.4820 C   0  0  2  0  0  0  0  0  0  0  0  0
    2.2433   -1.0485    1.2176 C   0  0  2  0  0  0  0  0  0  0  0  0
    3.2174   -1.8839    0.4671 N   0  3  0  0  0  0  0  0  0  0  0  0
    2.8271    0.3238    1.5691 C   0  0  1  0  0  0  0  0  0  0  0  0
    1.7843    1.1925    1.9918 O   0  0  0  0  0  0  0  0  0  0  0  0
    3.8808    0.2096    2.6750 C   0  0  2  0  0  0  0  0  0  0  0  0
    5.0346   -0.4655    2.1901 O   0  0  0  0  0  0  0  0  0  0  0  0
    3.2964   -0.5468    3.8646 C   0  0  1  0  0  0  0  0  0  0  0  0
    2.8337   -1.8423    3.4361 O   0  0  0  0  0  0  0  0  0  0  0  0
    4.2935   -0.7543    4.9910 C   0  0  0  0  0  0  0  0  0  0  0  0
    4.8264    0.5288    5.5003 N   0  3  0  0  0  0  0  0  0  0  0  0
   -3.3386   -4.2590    5.5284 C   0  0  0  0  0  0  0  0  0  0  0  0
   -4.8881   -4.0685    2.1683 C   0  0  2  0  0  0  0  0  0  0  0  0
   -5.8138   -5.2821    2.2021 C   0  0  2  0  0  0  0  0  0  0  0  0
   -6.8664   -5.1537    1.1662 N   0  3  0  0  0  0  0  0  0  0  0  0
   -6.4670   -5.4059    3.5722 C   0  0  1  0  0  0  0  0  0  0  0  0
   -7.2635   -6.5799    3.6155 O   0  0  0  0  0  0  0  0  0  0  0  0
   -5.3867   -5.4639    4.6500 C   0  0  2  0  0  0  0  0  0  0  0  0
   -5.9893   -5.5097    5.9370 O   0  0  0  0  0  0  0  0  0  0  0  0
   -2.0775   -3.8014    4.9015 N   0  3  0  0  0  0  0  0  0  0  0  0
   -4.4940   -4.2291    4.5430 C   0  0  2  0  0  0  0  0  0  0  0  0
   -3.9284   -4.1392    3.2195 O   0  0  0  0  0  0  0  0  0  0  0  0
   -4.0830    0.9073    1.1565 C   0  0  2  0  0  0  0  0  0  0  0  0
   -3.3175    2.1732    1.2267 N   0  3  0  0  0  0  0  0  0  0  0  0
   -5.0531    0.8193    2.3292 C   0  0  0  0  0  0  0  0  0  0  0  0
   -5.8459   -0.4789    2.2713 C   0  0  2  0  0  0  0  0  0  0  0  0
   -6.7505   -0.5003    3.4121 N   0  3  0  0  0  0  0  0  0  0  0  0
   -4.8915   -1.6701    2.3106 C   0  0  1  0  0  0  0  0  0  0  0  0
   -5.6477   -2.8939    2.2268 O   0  0  0  0  0  0  0  0  0  0  0  0
   -3.8931   -1.6065    1.1464 C   0  0  2  0  0  0  0  0  0  0  0  0
   -2.9446   -2.6832    1.2720 O   0  0  0  0  0  0  0  0  0  0  0  0
   -3.1282   -0.2853    1.1382 C   0  0  1  0  0  0  0  0  0  0  0  0
   -2.3094   -0.2184   -0.0218 O   0  0  0  0  0  0  0  0  0  0  0  0
  1  2  1  0  0  0  0
  3  2  1  1  0  0  0
  3  5  1  0  0  0  0
  3  4  1  0  0  0  0
  4  9  1  0  0  0  0
  5  7  1  0  0  0  0
  5  6  1  6  0  0  0
  7  9  1  0  0  0  0
  7  8  1  6  0  0  0
  9 40  1  1  0  0  0
 10  6  1  6  0  0  0
 10 11  1  0  0  0  0
 10 18  1  0  0  0  0
 11 13  1  0  0  0  0
 11 12  1  1  0  0  0
 13 15  1  0  0  0  0
 13 14  1  1  0  0  0
 15 17  1  0  0  0  0
 15 16  1  6  0  0  0
 17 19  1  1  0  0  0
 17 18  1  0  0  0  0
 19 20  1  0  0  0  0
 21 29  1  0  0  0  0
 22 23  1  0  0  0  0
 22 31  1  0  0  0  0
 22 38  1  1  0  0  0
 23 25  1  0  0  0  0
 23 24  1  6  0  0  0
 25 27  1  0  0  0  0
 25 26  1  6  0  0  0
 27 30  1  0  0  0  0
 27 28  1  1  0  0  0
 30 21  1  1  0  0  0
 30 31  1  0  0  0  0
 32 34  1  0  0  0  0
 32 41  1  0  0  0  0
 32 33  1  1  0  0  0
 34 35  1  0  0  0  0
 35 37  1  0  0  0  0
 35 36  1  1  0  0  0
 37 39  1  0  0  0  0
 37 38  1  6  0  0  0
 39 41  1  0  0  0  0
 39 40  1  1  0  0  0
 41 42  1  6  0  0  0
M  CHG  6  12   1  20   1  24   1  29   1  33   1  36   1
M  END
>  <CHROM.1>
50.46784882,-34.30139682,147.91721160,-87.07811542,63.81389494,-151.10210753
-35.43562823,-63.45949743,-81.45343212,58.40018458,-59.25151237,137.80320731
79.50800459,175.24277455,52.62186401,-54.88565741,64.81019316,54.42935492
-155.51033599,176.18722065,-172.88467114,72.53588480,-1.70442791,-2.36086387
2.37117476,-2.77901961,-0.07088923,-0.33483066

>  <Name>
1NEM.B

>  <RI>
0

>  <Rbt.Current_Directory>
/home/itssahil/PROJECTS/Mol_Feturizer/New_Systems/rnas/1nem

>  <Rbt.Executable>
rbdock ($Id: //depot/dev/client3/rdock/2013.1/src/exe/rbdock.cxx#4 $)

>  <Rbt.Library>
libRbt.so (2013.1, Build901 2013/11/27)

>  <Rbt.Parameter_File>
/export/apps/rDock/src/rDock_2013.1_src/data/scripts/dock_solv.prm

>  <Rbt.Receptor>
prm/blind_docking_20.prm

>  <SCORE>
-4.61825

>  <SCORE.INTER>
-28.2055

>  <SCORE.INTER.CONST>
1

>  <SCORE.INTER.POLAR>
-5.23422

>  <SCORE.INTER.ROT>
9

>  <SCORE.INTER.SOLV>
47.4264

>  <SCORE.INTER.VDW>
-26.7651

>  <SCORE.INTER.norm>
-0.67156

>  <SCORE.INTRA>
19.062

>  <SCORE.INTRA.DIHEDRAL>
2.44138

>  <SCORE.INTRA.DIHEDRAL.0>
22.4324

>  <SCORE.INTRA.POLAR>
1.60945

>  <SCORE.INTRA.POLAR.0>
-1.83749

>  <SCORE.INTRA.REPUL>
0.0144529

>  <SCORE.INTRA.REPUL.0>
0

>  <SCORE.INTRA.SOLV>
-1.79393

>  <SCORE.INTRA.SOLV.lig_0>
-160.638

>  <SCORE.INTRA.VDW>
13.1939

>  <SCORE.INTRA.VDW.0>
-7.61953

>  <SCORE.INTRA.norm>
0.453857

>  <SCORE.RESTR>
4.52528

>  <SCORE.RESTR.CAVITY>
4.52528

>  <SCORE.RESTR.norm>
0.107745

>  <SCORE.SYSTEM>
0

>  <SCORE.SYSTEM.CONST>
0

>  <SCORE.SYSTEM.DIHEDRAL>
0

>  <SCORE.SYSTEM.SOLV>
0

>  <SCORE.SYSTEM.norm>
0

>  <SCORE.heavy>
42

>  <SCORE.norm>
-0.109958

>  <RMSD>
3.822

$$$$
1NEM.B
 OpenBabel11021811403D
libRbt.so/2013.1/901 2013/11/27
 42 45  0  0  0  0  0  0  0  0999 V2000
    4.9624    2.8402   -0.7522 O   0  0  0  0  0  0  0  0  0  0  0  0
    4.5743    3.7789    0.2529 C   0  0  0  0  0  0  0  0  0  0  0  0
    3.5751    3.2033    1.2553 C   0  0  1  0  0  0  0  0  0  0  0  0
    2.3475    2.8756    0.6110 O   0  0  0  0  0  0  0  0  0  0  0  0
    3.9970    1.8861    1.8867 C   0  0  1  0  0  0  0  0  0  0  0  0
    5.0541    2.1745    2.8047 O   0  0  0  0  0  0  0  0  0  0  0  0
    2.6676    1.4769    2.4926 C   0  0  1  0  0  0  0  0  0  0  0  0
    2.3000    2.3067    3.5996 O   0  0  0  0  0  0  0  0  0  0  0  0
    1.7600    1.7662    1.2912 C   0  0  2  0  0  0  0  0  0  0  0  0
    5.4915    1.1090    3.5987 C   0  0  2  0  0  0  0  0  0  0  0  0
    5.2444    1.4439    5.0759 C   0  0  2  0  0  0  0  0  0  0  0  0
    5.8554    2.7574    5.4105 N   0  3  0  0  0  0  0  0  0  0  0  0
    5.7704    0.3273    5.9837 C   0  0  1  0  0  0  0  0  0  0  0  0
    4.9461   -0.8232    5.8523 O   0  0  0  0  0  0  0  0  0  0  0  0
    7.2172   -0.0344    5.6337 C   0  0  2  0  0  0  0  0  0  0  0  0
    8.0902    1.0345    5.9763 O   0  0  0  0  0  0  0  0  0  0  0  0
    7.3242   -0.3362    4.1416 C   0  0  1  0  0  0  0  0  0  0  0  0
    6.8618    0.7980    3.3827 O   0  0  0  0  0  0  0  0  0  0  0  0
    8.7404   -0.6533    3.6945 C   0  0  0  0  0  0  0  0  0  0  0  0
    9.6500    0.4988    3.8826 N   0  3  0  0  0  0  0  0  0  0  0  0
   -2.3897   -4.8973    1.6861 C   0  0  0  0  0  0  0  0  0  0  0  0
   -0.0410   -2.0426    1.9336 C   0  0  2  0  0  0  0  0  0  0  0  0
    1.2459   -2.7552    2.3422 C   0  0  2  0  0  0  0  0  0  0  0  0
    2.4206   -1.8976    2.0555 N   0  3  0  0  0  0  0  0  0  0  0  0
    1.3826   -4.0681    1.5829 C   0  0  1  0  0  0  0  0  0  0  0  0
    2.5412   -4.7568    2.0276 O   0  0  0  0  0  0  0  0  0  0  0  0
    0.1402   -4.9249    1.8158 C   0  0  2  0  0  0  0  0  0  0  0  0
    0.2290   -6.1227    1.0550 O   0  0  0  0  0  0  0  0  0  0  0  0
   -3.5689   -4.1919    1.1339 N   0  3  0  0  0  0  0  0  0  0  0  0
   -1.1036   -4.1418    1.4001 C   0  0  2  0  0  0  0  0  0  0  0  0
   -1.1682   -2.8944    2.1209 O   0  0  0  0  0  0  0  0  0  0  0  0
   -1.3040    1.8108   -1.5250 C   0  0  2  0  0  0  0  0  0  0  0  0
   -1.8382    3.1639   -1.8030 N   0  3  0  0  0  0  0  0  0  0  0  0
   -2.3059    1.0154   -0.6958 C   0  0  0  0  0  0  0  0  0  0  0  0
   -1.7687   -0.3780   -0.4002 C   0  0  2  0  0  0  0  0  0  0  0  0
   -2.7685   -1.0831    0.3894 N   0  3  0  0  0  0  0  0  0  0  0  0
   -0.4489   -0.2730    0.3605 C   0  0  1  0  0  0  0  0  0  0  0  0
    0.0668   -1.5949    0.6115 O   0  0  0  0  0  0  0  0  0  0  0  0
    0.5807    0.5322   -0.4443 C   0  0  2  0  0  0  0  0  0  0  0  0
    1.7749    0.7013    0.3431 O   0  0  0  0  0  0  0  0  0  0  0  0
    0.0445    1.9129   -0.8142 C   0  0  1  0  0  0  0  0  0  0  0  0
    0.9769    2.5728   -1.6602 O   0  0  0  0  0  0  0  0  0  0  0  0
  1  2  1  0  0  0  0
  3  2  1  6  0  0  0
  3  5  1  0  0  0  0
  3  4  1  0  0  0  0
  4  9  1  0  0  0  0
  5  7  1  0  0  0  0
  5  6  1  1  0  0  0
  7  9  1  0  0  0  0
  7  8  1  1  0  0  0
  9 40  1  6  0  0  0
 10  6  1  6  0  0  0
 10 11  1  0  0  0  0
 10 18  1  0  0  0  0
 11 13  1  0  0  0  0
 11 12  1  1  0  0  0
 13 15  1  0  0  0  0
 13 14  1  6  0  0  0
 15 17  1  0  0  0  0
 15 16  1  6  0  0  0
 17 19  1  6  0  0  0
 17 18  1  0  0  0  0
 19 20  1  0  0  0  0
 21 29  1  0  0  0  0
 22 23  1  0  0  0  0
 22 31  1  0  0  0  0
 22 38  1  6  0  0  0
 23 25  1  0  0  0  0
 23 24  1  6  0  0  0
 25 27  1  0  0  0  0
 25 26  1  1  0  0  0
 27 30  1  0  0  0  0
 27 28  1  6  0  0  0
 30 21  1  1  0  0  0
 30 31  1  0  0  0  0
 32 34  1  0  0  0  0
 32 41  1  0  0  0  0
 32 33  1  1  0  0  0
 34 35  1  0  0  0  0
 35 37  1  0  0  0  0
 35 36  1  1  0  0  0
 37 39  1  0  0  0  0
 37 38  1  6  0  0  0
 39 41  1  0  0  0  0
 39 40  1  1  0  0  0
 41 42  1  6  0  0  0
M  CHG  6  12   1  20   1  24   1  29   1  33   1  36   1
M  END
>  <CHROM.1>
-60.81781990,-64.27345372,173.48867201,-117.98846952,50.73752814,-93.78949532
-179.37757639,173.00443640,74.37400209,-63.34883864,171.10168422,-173.37204755
-172.03811955,-137.98646412,-28.17456462,-175.97713592,-39.10378218,-59.00024940
75.54400406,-106.27649108,-82.50710946,179.09420570,2.38620101,-0.13511544
1.90108751,0.13186583,-0.52175810,-0.40608885

>  <Name>
1NEM.B

>  <RI>
0

>  <Rbt.Current_Directory>
/home/itssahil/PROJECTS/Mol_Feturizer/New_Systems/rnas/1nem

>  <Rbt.Executable>
rbdock ($Id: //depot/dev/client3/rdock/2013.1/src/exe/rbdock.cxx#4 $)

>  <Rbt.Library>
libRbt.so (2013.1, Build901 2013/11/27)

>  <Rbt.Parameter_File>
/export/apps/rDock/src/rDock_2013.1_src/data/scripts/dock_solv.prm

>  <Rbt.Receptor>
prm/pocket_docking_7.prm

>  <SCORE>
-28.1462

>  <SCORE.INTER>
-34.0519

>  <SCORE.INTER.CONST>
1

>  <SCORE.INTER.POLAR>
-5.06853

>  <SCORE.INTER.ROT>
9

>  <SCORE.INTER.SOLV>
24.045

>  <SCORE.INTER.VDW>
-23.4212

>  <SCORE.INTER.norm>
-0.810759

>  <SCORE.INTRA>
5.77666

>  <SCORE.INTRA.DIHEDRAL>
11.0247

>  <SCORE.INTRA.DIHEDRAL.0>
22.4324

>  <SCORE.INTRA.POLAR>
-1.51494

>  <SCORE.INTRA.POLAR.0>
-1.83749

>  <SCORE.INTRA.REPUL>
0

>  <SCORE.INTRA.REPUL.0>
0

>  <SCORE.INTRA.SOLV>
4.66203

>  <SCORE.INTRA.SOLV.lig_0>
-160.638

>  <SCORE.INTRA.VDW>
3.08408

>  <SCORE.INTRA.VDW.0>
-7.61953

>  <SCORE.INTRA.norm>
0.13754

>  <SCORE.RESTR>
0.12901

>  <SCORE.RESTR.CAVITY>
0.12901

>  <SCORE.RESTR.norm>
0.00307166

>  <SCORE.SYSTEM>
0

>  <SCORE.SYSTEM.CONST>
0

>  <SCORE.SYSTEM.DIHEDRAL>
0

>  <SCORE.SYSTEM.SOLV>
0

>  <SCORE.SYSTEM.norm>
0

>  <SCORE.heavy>
42

>  <SCORE.norm>
-0.670148

>  <RMSD>
3.877

$$$$
1NEM.B
 OpenBabel11021811403D
libRbt.so/2013.1/901 2013/11/27
 42 45  0  0  0  0  0  0  0  0999 V2000
   -1.3555   -6.3183    0.9774 O   0  0  0  0  0  0  0  0  0  0  0  0
   -0.2491   -5.5225    1.4074 C   0  0  0  0  0  0  0  0  0  0  0  0
   -0.3706   -4.0563    0.9950 C   0  0  1  0  0  0  0  0  0  0  0  0
   -1.4514   -3.8772    0.0843 O   0  0  0  0  0  0  0  0  0  0  0  0
   -0.7129   -3.1043    2.1299 C   0  0  1  0  0  0  0  0  0  0  0  0
    0.4523   -2.9833    2.9489 O   0  0  0  0  0  0  0  0  0  0  0  0
   -1.0933   -1.8854    1.3105 C   0  0  1  0  0  0  0  0  0  0  0  0
    0.0397   -1.2903    0.6691 O   0  0  0  0  0  0  0  0  0  0  0  0
   -1.9903   -2.5684    0.2713 C   0  0  2  0  0  0  0  0  0  0  0  0
    1.2949   -1.9020    2.6698 C   0  0  2  0  0  0  0  0  0  0  0  0
    2.3702   -2.3438    1.6678 C   0  0  2  0  0  0  0  0  0  0  0  0
    3.0663   -3.5583    2.1686 N   0  3  0  0  0  0  0  0  0  0  0  0
    3.3539   -1.2036    1.3854 C   0  0  1  0  0  0  0  0  0  0  0  0
    2.7079   -0.1935    0.6219 O   0  0  0  0  0  0  0  0  0  0  0  0
    3.8893   -0.6000    2.6875 C   0  0  2  0  0  0  0  0  0  0  0  0
    4.7310   -1.5321    3.3545 O   0  0  0  0  0  0  0  0  0  0  0  0
    2.7224   -0.2124    3.5915 C   0  0  1  0  0  0  0  0  0  0  0  0
    1.8976   -1.3671    3.8410 O   0  0  0  0  0  0  0  0  0  0  0  0
    3.1636    0.3470    4.9325 C   0  0  0  0  0  0  0  0  0  0  0  0
    3.6234    1.7492    4.8218 N   0  3  0  0  0  0  0  0  0  0  0  0
   -4.4911   -5.8228    4.6818 C   0  0  0  0  0  0  0  0  0  0  0  0
   -5.3061   -4.0163    1.5514 C   0  0  2  0  0  0  0  0  0  0  0  0
   -6.3691   -4.9331    0.9510 C   0  0  2  0  0  0  0  0  0  0  0  0
   -7.1700   -4.1988   -0.0574 N   0  3  0  0  0  0  0  0  0  0  0  0
   -7.2913   -5.4543    2.0451 C   0  0  1  0  0  0  0  0  0  0  0  0
   -8.2255   -6.3651    1.4865 O   0  0  0  0  0  0  0  0  0  0  0  0
   -6.4627   -6.1475    3.1245 C   0  0  2  0  0  0  0  0  0  0  0  0
   -7.3091   -6.5761    4.1834 O   0  0  0  0  0  0  0  0  0  0  0  0
   -3.3595   -4.9337    5.0311 N   0  3  0  0  0  0  0  0  0  0  0  0
   -5.4145   -5.1762    3.6640 C   0  0  2  0  0  0  0  0  0  0  0  0
   -4.5911   -4.6863    2.5862 O   0  0  0  0  0  0  0  0  0  0  0  0
   -4.1130    0.8928    1.0324 C   0  0  2  0  0  0  0  0  0  0  0  0
   -3.2287    2.0787    1.1034 N   0  3  0  0  0  0  0  0  0  0  0  0
   -4.9552    0.7942    2.2993 C   0  0  0  0  0  0  0  0  0  0  0  0
   -5.8682   -0.4225    2.2413 C   0  0  2  0  0  0  0  0  0  0  0  0
   -6.6427   -0.4581    3.4737 N   0  3  0  0  0  0  0  0  0  0  0  0
   -5.0314   -1.6903    2.0872 C   0  0  1  0  0  0  0  0  0  0  0  0
   -5.9039   -2.8341    2.0046 O   0  0  0  0  0  0  0  0  0  0  0  0
   -4.1625   -1.6190    0.8238 C   0  0  2  0  0  0  0  0  0  0  0  0
   -3.3116   -2.7796    0.7640 O   0  0  0  0  0  0  0  0  0  0  0  0
   -3.2821   -0.3718    0.8211 C   0  0  1  0  0  0  0  0  0  0  0  0
   -2.5903   -0.2822   -0.4174 O   0  0  0  0  0  0  0  0  0  0  0  0
  1  2  1  0  0  0  0
  3  2  1  1  0  0  0
  3  5  1  0  0  0  0
  3  4  1  0  0  0  0
  4  9  1  0  0  0  0
  5  7  1  0  0  0  0
  5  6  1  1  0  0  0
  7  9  1  0  0  0  0
  7  8  1  6  0  0  0
  9 40  1  1  0  0  0
 10  6  1  1  0  0  0
 10 11  1  0  0  0  0
 10 18  1  0  0  0  0
 11 13  1  0  0  0  0
 11 12  1  1  0  0  0
 13 15  1  0  0  0  0
 13 14  1  1  0  0  0
 15 17  1  0  0  0  0
 15 16  1  1  0  0  0
 17 19  1  1  0  0  0
 17 18  1  0  0  0  0
 19 20  1  0  0  0  0
 21 29  1  0  0  0  0
 22 23  1  0  0  0  0
 22 31  1  0  0  0  0
 22 38  1  1  0  0  0
 23 25  1  0  0  0  0
 23 24  1  6  0  0  0
 25 27  1  0  0  0  0
 25 26  1  6  0  0  0
 27 30  1  0  0  0  0
 27 28  1  1  0  0  0
 30 21  1  1  0  0  0
 30 31  1  0  0  0  0
 32 34  1  0  0  0  0
 32 41  1  0  0  0  0
 32 33  1  1  0  0  0
 34 35  1  0  0  0  0
 35 37  1  0  0  0  0
 35 36  1  1  0  0  0
 37 39  1  0  0  0  0
 37 38  1  6  0  0  0
 39 41  1  0  0  0  0
 39 40  1  1  0  0  0
 41 42  1  6  0  0  0
M  CHG  6  12   1  20   1  24   1  29   1  33   1  36   1
M  END
>  <CHROM.1>
56.09763185,-9.82864277,94.56030846,-91.82665884,97.30644133,-169.77832496
145.68686207,-62.59718599,-179.76054602,77.22714219,-168.17918010,171.07659252
-169.13626612,-155.89015350,-35.90334951,55.75213864,59.62977612,-68.89647739
88.79456573,165.60763717,-142.27350861,-58.61530260,-2.10443209,-2.56293946
2.09886929,-2.78401045,-0.11307177,-0.14871539

>  <Name>
1NEM.B

>  <RI>
0

>  <Rbt.Current_Directory>
/home/itssahil/PROJECTS/Mol_Feturizer/New_Systems/rnas/1nem

>  <Rbt.Executable>
rbdock ($Id: //depot/dev/client3/rdock/2013.1/src/exe/rbdock.cxx#4 $)

>  <Rbt.Library>
libRbt.so (2013.1, Build901 2013/11/27)

>  <Rbt.Parameter_File>
/export/apps/rDock/src/rDock_2013.1_src/data/scripts/dock_solv.prm

>  <Rbt.Receptor>
prm/blind_docking_40.prm

>  <SCORE>
10.8362

>  <SCORE.INTER>
-15.6496

>  <SCORE.INTER.CONST>
1

>  <SCORE.INTER.POLAR>
-6.20593

>  <SCORE.INTER.ROT>
9

>  <SCORE.INTER.SOLV>
49.4905

>  <SCORE.INTER.VDW>
-15.8435

>  <SCORE.INTER.norm>
-0.372609

>  <SCORE.INTRA>
25.2506

>  <SCORE.INTRA.DIHEDRAL>
12.186

>  <SCORE.INTRA.DIHEDRAL.0>
22.4324

>  <SCORE.INTRA.POLAR>
0.625248

>  <SCORE.INTRA.POLAR.0>
-1.83749

>  <SCORE.INTRA.REPUL>
0

>  <SCORE.INTRA.REPUL.0>
0

>  <SCORE.INTRA.SOLV>
-5.61024

>  <SCORE.INTRA.SOLV.lig_0>
-160.638

>  <SCORE.INTRA.VDW>
19.8369

>  <SCORE.INTRA.VDW.0>
-7.61953

>  <SCORE.INTRA.norm>
0.601204

>  <SCORE.RESTR>
1.23517

>  <SCORE.RESTR.CAVITY>
1.23517

>  <SCORE.RESTR.norm>
0.0294087

>  <SCORE.SYSTEM>
0

>  <SCORE.SYSTEM.CONST>
0

>  <SCORE.SYSTEM.DIHEDRAL>
0

>  <SCORE.SYSTEM.SOLV>
0

>  <SCORE.SYSTEM.norm>
0

>  <SCORE.heavy>
42

>  <SCORE.norm>
0.258004

>  <RMSD>
4.003

$$$$
1NEM.B
 OpenBabel11021811403D
libRbt.so/2013.1/901 2013/11/27
 42 45  0  0  0  0  0  0  0  0999 V2000
    0.7803   -5.3966    1.6696 O   0  0  0  0  0  0  0  0  0  0  0  0
   -0.5441   -5.2143    1.1649 C   0  0  0  0  0  0  0  0  0  0  0  0
   -0.7769   -3.8198    0.5854 C   0  0  1  0  0  0  0  0  0  0  0  0
   -1.9601   -3.7951   -0.2076 O   0  0  0  0  0  0  0  0  0  0  0  0
   -1.0319   -2.7367    1.6214 C   0  0  1  0  0  0  0  0  0  0  0  0
    0.2114   -2.4738    2.2758 O   0  0  0  0  0  0  0  0  0  0  0  0
   -1.5563   -1.6488    0.7031 C   0  0  1  0  0  0  0  0  0  0  0  0
   -0.5305   -1.1103   -0.1376 O   0  0  0  0  0  0  0  0  0  0  0  0
   -2.5328   -2.4897   -0.1277 C   0  0  2  0  0  0  0  0  0  0  0  0
    1.1206   -1.6722    1.5772 C   0  0  2  0  0  0  0  0  0  0  0  0
    2.2938   -2.5376    1.0977 C   0  0  2  0  0  0  0  0  0  0  0  0
    2.8786   -3.2842    2.2426 N   0  3  0  0  0  0  0  0  0  0  0  0
    3.3455   -1.6830    0.3828 C   0  0  1  0  0  0  0  0  0  0  0  0
    2.8351   -1.2464   -0.8699 O   0  0  0  0  0  0  0  0  0  0  0  0
    3.7389   -0.4682    1.2289 C   0  0  2  0  0  0  0  0  0  0  0  0
    4.4580   -0.8824    2.3836 O   0  0  0  0  0  0  0  0  0  0  0  0
    2.4849    0.2966    1.6430 C   0  0  1  0  0  0  0  0  0  0  0  0
    1.5942   -0.5822    2.3574 O   0  0  0  0  0  0  0  0  0  0  0  0
    2.7784    1.4912    2.5334 C   0  0  0  0  0  0  0  0  0  0  0  0
    3.1231    2.6957    1.7459 N   0  3  0  0  0  0  0  0  0  0  0  0
   -3.3894   -4.9179    4.8009 C   0  0  0  0  0  0  0  0  0  0  0  0
   -5.5005   -3.8581    1.9465 C   0  0  2  0  0  0  0  0  0  0  0  0
   -6.6091   -4.9068    1.9954 C   0  0  2  0  0  0  0  0  0  0  0  0
   -7.8010   -4.4284    1.2552 N   0  3  0  0  0  0  0  0  0  0  0  0
   -6.9949   -5.1957    3.4399 C   0  0  1  0  0  0  0  0  0  0  0  0
   -7.9698   -6.2266    3.4752 O   0  0  0  0  0  0  0  0  0  0  0  0
   -5.7552   -5.6179    4.2253 C   0  0  2  0  0  0  0  0  0  0  0  0
   -6.0940   -5.8225    5.5908 O   0  0  0  0  0  0  0  0  0  0  0  0
   -2.3973   -3.8198    4.7465 N   0  3  0  0  0  0  0  0  0  0  0  0
   -4.6887   -4.5298    4.1168 C   0  0  2  0  0  0  0  0  0  0  0  0
   -4.3844   -4.2699    2.7313 O   0  0  0  0  0  0  0  0  0  0  0  0
   -4.4031    1.0275    0.8807 C   0  0  2  0  0  0  0  0  0  0  0  0
   -3.4980    2.1866    0.7059 N   0  3  0  0  0  0  0  0  0  0  0  0
   -4.9236    0.9842    2.3130 C   0  0  0  0  0  0  0  0  0  0  0  0
   -5.8544   -0.2045    2.5080 C   0  0  2  0  0  0  0  0  0  0  0  0
   -6.3157   -0.1877    3.8890 N   0  3  0  0  0  0  0  0  0  0  0  0
   -5.1096   -1.5010    2.1984 C   0  0  1  0  0  0  0  0  0  0  0  0
   -6.0050   -2.6187    2.3579 O   0  0  0  0  0  0  0  0  0  0  0  0
   -4.5630   -1.4856    0.7641 C   0  0  2  0  0  0  0  0  0  0  0  0
   -3.7795   -2.6732    0.5395 O   0  0  0  0  0  0  0  0  0  0  0  0
   -3.6776   -0.2668    0.5168 C   0  0  1  0  0  0  0  0  0  0  0  0
   -3.2966   -0.2272   -0.8521 O   0  0  0  0  0  0  0  0  0  0  0  0
  1  2  1  0  0  0  0
  3  2  1  1  0  0  0
  3  5  1  0  0  0  0
  3  4  1  0  0  0  0
  4  9  1  0  0  0  0
  5  7  1  0  0  0  0
  5  6  1  6  0  0  0
  7  9  1  0  0  0  0
  7  8  1  6  0  0  0
  9 40  1  1  0  0  0
 10  6  1  1  0  0  0
 10 11  1  0  0  0  0
 10 18  1  0  0  0  0
 11 13  1  0  0  0  0
 11 12  1  1  0  0  0
 13 15  1  0  0  0  0
 13 14  1  6  0  0  0
 15 17  1  0  0  0  0
 15 16  1  1  0  0  0
 17 19  1  1  0  0  0
 17 18  1  0  0  0  0
 19 20  1  0  0  0  0
 21 29  1  0  0  0  0
 22 23  1  0  0  0  0
 22 31  1  0  0  0  0
 22 38  1  1  0  0  0
 23 25  1  0  0  0  0
 23 24  1  6  0  0  0
 25 27  1  0  0  0  0
 25 26  1  6  0  0  0
 27 30  1  0  0  0  0
 27 28  1  1  0  0  0
 30 21  1  1  0  0  0
 30 31  1  0  0  0  0
 32 34  1  0  0  0  0
 32 41  1  0  0  0  0
 32 33  1  1  0  0  0
 34 35  1  0  0  0  0
 35 37  1  0  0  0  0
 35 36  1  1  0  0  0
 37 39  1  0  0  0  0
 37 38  1  6  0  0  0
 39 41  1  0  0  0  0
 39 40  1  1  0  0  0
 41 42  1  6  0  0  0
M  CHG  6  12   1  20   1  24   1  29   1  33   1  36   1
M  END
>  <CHROM.1>
-67.28736656,164.68311062,78.38390310,-108.76386904,-179.10817959,179.30669246
85.08827021,155.90400772,174.88811639,84.94353103,172.78738591,-176.89342752
-52.68072479,-172.41811300,-78.96702549,-62.39347116,-58.32317868,46.41230791
-177.67714742,172.44312268,-135.48050649,-66.29989132,-2.12652510,-2.25579552
1.86685086,-0.39350422,-0.07028217,2.83174531

>  <Name>
1NEM.B

>  <RI>
0

>  <Rbt.Current_Directory>
/home/itssahil/PROJECTS/Mol_Feturizer/New_Systems/rnas/1nem

>  <Rbt.Executable>
rbdock ($Id: //depot/dev/client3/rdock/2013.1/src/exe/rbdock.cxx#4 $)

>  <Rbt.Library>
libRbt.so (2013.1, Build901 2013/11/27)

>  <Rbt.Parameter_File>
/export/apps/rDock/src/rDock_2013.1_src/data/scripts/dock_solv.prm

>  <Rbt.Receptor>
prm/blind_docking_60.prm

>  <SCORE>
3.95014

>  <SCORE.INTER>
-20.8354

>  <SCORE.INTER.CONST>
1

>  <SCORE.INTER.POLAR>
-6.23627

>  <SCORE.INTER.ROT>
9

>  <SCORE.INTER.SOLV>
45.7365

>  <SCORE.INTER.VDW>
-17.9482

>  <SCORE.INTER.norm>
-0.496082

>  <SCORE.INTRA>
20.4145

>  <SCORE.INTRA.DIHEDRAL>
1.85718

>  <SCORE.INTRA.DIHEDRAL.0>
22.4324

>  <SCORE.INTRA.POLAR>
0.65868

>  <SCORE.INTRA.POLAR.0>
-1.83749

>  <SCORE.INTRA.REPUL>
0.0159585

>  <SCORE.INTRA.REPUL.0>
0

>  <SCORE.INTRA.SOLV>
-3.39556

>  <SCORE.INTRA.SOLV.lig_0>
-160.638

>  <SCORE.INTRA.VDW>
18.8644

>  <SCORE.INTRA.VDW.0>
-7.61953

>  <SCORE.INTRA.norm>
0.48606

>  <SCORE.RESTR>
4.37105

>  <SCORE.RESTR.CAVITY>
4.37105

>  <SCORE.RESTR.norm>
0.104073

>  <SCORE.SYSTEM>
0

>  <SCORE.SYSTEM.CONST>
0

>  <SCORE.SYSTEM.DIHEDRAL>
0

>  <SCORE.SYSTEM.SOLV>
0

>  <SCORE.SYSTEM.norm>
0

>  <SCORE.heavy>
42

>  <SCORE.norm>
0.0940509

>  <RMSD>
4.220

$$$$
1NEM.B
 OpenBabel11021811403D
libRbt.so/2013.1/901 2013/11/27
 42 45  0  0  0  0  0  0  0  0999 V2000
    1.0042   -3.4201    1.6343 O   0  0  0  0  0  0  0  0  0  0  0  0
    0.1466   -3.8829    0.5891 C   0  0  0  0  0  0  0  0  0  0  0  0
   -0.6414   -2.7580   -0.0804 C   0  0  1  0  0  0  0  0  0  0  0  0
   -2.0382   -3.0368   -0.0542 O   0  0  0  0  0  0  0  0  0  0  0  0
   -0.5440   -1.4116    0.6191 C   0  0  1  0  0  0  0  0  0  0  0  0
    0.7700   -0.9024    0.3792 O   0  0  0  0  0  0  0  0  0  0  0  0
   -1.6846   -0.6973   -0.0814 C   0  0  1  0  0  0  0  0  0  0  0  0
   -1.3846   -0.4147   -1.4522 O   0  0  0  0  0  0  0  0  0  0  0  0
   -2.7469   -1.7990    0.0106 C   0  0  2  0  0  0  0  0  0  0  0  0
    1.4276   -0.3444    1.4807 C   0  0  2  0  0  0  0  0  0  0  0  0
    2.2408    0.8733    1.0211 C   0  0  2  0  0  0  0  0  0  0  0  0
    3.1327    0.4951   -0.1066 N   0  3  0  0  0  0  0  0  0  0  0  0
    3.0291    1.4750    2.1890 C   0  0  1  0  0  0  0  0  0  0  0  0
    2.1337    2.1062    3.0948 O   0  0  0  0  0  0  0  0  0  0  0  0
    3.8324    0.3992    2.9264 C   0  0  2  0  0  0  0  0  0  0  0  0
    4.8857   -0.0829    2.1015 O   0  0  0  0  0  0  0  0  0  0  0  0
    2.9100   -0.7514    3.3188 C   0  0  1  0  0  0  0  0  0  0  0  0
    2.2675   -1.2810    2.1430 O   0  0  0  0  0  0  0  0  0  0  0  0
    3.6360   -1.8921    4.0101 C   0  0  0  0  0  0  0  0  0  0  0  0
    3.1934   -3.2125    3.5095 N   0  3  0  0  0  0  0  0  0  0  0  0
   -3.5636   -4.2920    3.5944 C   0  0  0  0  0  0  0  0  0  0  0  0
   -5.2092   -4.3216    0.2750 C   0  0  2  0  0  0  0  0  0  0  0  0
   -6.3322   -5.3283    0.5125 C   0  0  2  0  0  0  0  0  0  0  0  0
   -7.3925   -5.1651   -0.5107 N   0  3  0  0  0  0  0  0  0  0  0  0
   -6.9327   -5.1274    1.8975 C   0  0  1  0  0  0  0  0  0  0  0  0
   -7.9214   -6.1175    2.1358 O   0  0  0  0  0  0  0  0  0  0  0  0
   -5.8309   -5.2209    2.9506 C   0  0  2  0  0  0  0  0  0  0  0  0
   -6.3717   -4.9658    4.2406 O   0  0  0  0  0  0  0  0  0  0  0  0
   -3.6626   -3.2875    4.6779 N   0  3  0  0  0  0  0  0  0  0  0  0
   -4.7399   -4.1985    2.6382 C   0  0  2  0  0  0  0  0  0  0  0  0
   -4.2293   -4.4095    1.3061 O   0  0  0  0  0  0  0  0  0  0  0  0
   -6.1396    0.2902    2.7827 C   0  0  2  0  0  0  0  0  0  0  0  0
   -6.1810    1.0907    4.0281 N   0  3  0  0  0  0  0  0  0  0  0  0
   -7.1915   -0.8119    2.8366 C   0  0  0  0  0  0  0  0  0  0  0  0
   -7.1589   -1.6450    1.5629 C   0  0  2  0  0  0  0  0  0  0  0  0
   -8.1830   -2.6737    1.6765 N   0  3  0  0  0  0  0  0  0  0  0  0
   -5.7766   -2.2696    1.3884 C   0  0  1  0  0  0  0  0  0  0  0  0
   -5.7456   -3.0330    0.1667 O   0  0  0  0  0  0  0  0  0  0  0  0
   -4.6912   -1.1852    1.3403 C   0  0  2  0  0  0  0  0  0  0  0  0
   -3.3949   -1.8101    1.2808 O   0  0  0  0  0  0  0  0  0  0  0  0
   -4.7413   -0.2896    2.5757 C   0  0  1  0  0  0  0  0  0  0  0  0
   -3.8057    0.7707    2.4312 O   0  0  0  0  0  0  0  0  0  0  0  0
  1  2  1  0  0  0  0
  3  2  1  1  0  0  0
  3  5  1  0  0  0  0
  3  4  1  0  0  0  0
  4  9  1  0  0  0  0
  5  7  1  0  0  0  0
  5  6  1  6  0  0  0
  7  9  1  0  0  0  0
  7  8  1  6  0  0  0
  9 40  1  1  0  0  0
 10  6  1  6  0  0  0
 10 11  1  0  0  0  0
 10 18  1  0  0  0  0
 11 13  1  0  0  0  0
 11 12  1  6  0  0  0
 13 15  1  0  0  0  0
 13 14  1  1  0  0  0
 15 17  1  0  0  0  0
 15 16  1  6  0  0  0
 17 19  1  6  0  0  0
 17 18  1  0  0  0  0
 19 20  1  0  0  0  0
 21 29  1  0  0  0  0
 22 23  1  0  0  0  0
 22 31  1  0  0  0  0
 22 38  1  1  0  0  0
 23 25  1  0  0  0  0
 23 24  1  6  0  0  0
 25 27  1  0  0  0  0
 25 26  1  1  0  0  0
 27 30  1  0  0  0  0
 27 28  1  1  0  0  0
 30 21  1  1  0  0  0
 30 31  1  0  0  0  0
 32 34  1  0  0  0  0
 32 41  1  0  0  0  0
 32 33  1  1  0  0  0
 34 35  1  0  0  0  0
 35 37  1  0  0  0  0
 35 36  1  1  0  0  0
 37 39  1  0  0  0  0
 37 38  1  6  0  0  0
 39 41  1  0  0  0  0
 39 40  1  1  0  0  0
 41 42  1  6  0  0  0
M  CHG  6  12   1  20   1  24   1  29   1  33   1  36   1
M  END
>  <CHROM.1>
-51.13960694,-125.50711786,-135.82176097,-142.76356765,175.98603523,-145.06499376
152.85826041,77.19744291,-158.56983816,-136.58814461,-143.64028791,-97.75390208
99.51983679,93.81318919,0.86225390,48.21859257,-61.19078649,-40.61278433
-53.95212023,-132.15496100,104.24231558,-49.65318729,-2.36054656,-2.02114196
1.75045231,-0.32923096,-0.03500858,-3.01697823

>  <Name>
1NEM.B

>  <RI>
0

>  <Rbt.Current_Directory>
/home/itssahil/PROJECTS/Mol_Feturizer/New_Systems/rnas/1nem

>  <Rbt.Executable>
rbdock ($Id: //depot/dev/client3/rdock/2013.1/src/exe/rbdock.cxx#4 $)

>  <Rbt.Library>
libRbt.so (2013.1, Build901 2013/11/27)

>  <Rbt.Parameter_File>
/export/apps/rDock/src/rDock_2013.1_src/data/scripts/dock_solv.prm

>  <Rbt.Receptor>
prm/blind_docking_80.prm

>  <SCORE>
70.5057

>  <SCORE.INTER>
33.1183

>  <SCORE.INTER.CONST>
1

>  <SCORE.INTER.POLAR>
-4.91837

>  <SCORE.INTER.ROT>
9

>  <SCORE.INTER.SOLV>
53.128

>  <SCORE.INTER.VDW>
11.1641

>  <SCORE.INTER.norm>
0.788531

>  <SCORE.INTRA>
31.4239

>  <SCORE.INTRA.DIHEDRAL>
39.3403

>  <SCORE.INTRA.DIHEDRAL.0>
22.4324

>  <SCORE.INTRA.POLAR>
-1.08895

>  <SCORE.INTRA.POLAR.0>
-1.83749

>  <SCORE.INTRA.REPUL>
0.343744

>  <SCORE.INTRA.REPUL.0>
0

>  <SCORE.INTRA.SOLV>
6.28283

>  <SCORE.INTRA.SOLV.lig_0>
-160.638

>  <SCORE.INTRA.VDW>
10.596

>  <SCORE.INTRA.VDW.0>
-7.61953

>  <SCORE.INTRA.norm>
0.748188

>  <SCORE.RESTR>
5.9635

>  <SCORE.RESTR.CAVITY>
5.9635

>  <SCORE.RESTR.norm>
0.141988

>  <SCORE.SYSTEM>
0

>  <SCORE.SYSTEM.CONST>
0

>  <SCORE.SYSTEM.DIHEDRAL>
0

>  <SCORE.SYSTEM.SOLV>
0

>  <SCORE.SYSTEM.norm>
0

>  <SCORE.heavy>
42

>  <SCORE.norm>
1.67871

>  <RMSD>
4.247

$$$$
1NEM.B
 OpenBabel11021811403D
libRbt.so/2013.1/901 2013/11/27
 42 45  0  0  0  0  0  0  0  0999 V2000
    1.2616   -5.8240    1.6766 O   0  0  0  0  0  0  0  0  0  0  0  0
   -0.0792   -5.6164    1.2281 C   0  0  0  0  0  0  0  0  0  0  0  0
   -0.3364   -4.1874    0.7522 C   0  0  1  0  0  0  0  0  0  0  0  0
   -1.5965   -4.0949    0.0940 O   0  0  0  0  0  0  0  0  0  0  0  0
   -0.4513   -3.1588    1.8659 C   0  0  1  0  0  0  0  0  0  0  0  0
    0.8612   -2.9576    2.3953 O   0  0  0  0  0  0  0  0  0  0  0  0
   -1.0425   -2.0112    1.0688 C   0  0  1  0  0  0  0  0  0  0  0  0
   -0.0986   -1.4472    0.1522 O   0  0  0  0  0  0  0  0  0  0  0  0
   -2.1234   -2.7848    0.3047 C   0  0  2  0  0  0  0  0  0  0  0  0
    1.3741   -1.6595    2.3003 C   0  0  2  0  0  0  0  0  0  0  0  0
    2.0688   -1.4879    0.9427 C   0  0  2  0  0  0  0  0  0  0  0  0
    3.0723   -2.5666    0.7430 N   0  3  0  0  0  0  0  0  0  0  0  0
    2.7016   -0.0975    0.8257 C   0  0  1  0  0  0  0  0  0  0  0  0
    1.6801    0.8835    0.7038 O   0  0  0  0  0  0  0  0  0  0  0  0
    3.5736    0.2175    2.0450 C   0  0  2  0  0  0  0  0  0  0  0  0
    4.7287   -0.6118    2.0537 O   0  0  0  0  0  0  0  0  0  0  0  0
    2.7673    0.0006    3.3224 C   0  0  1  0  0  0  0  0  0  0  0  0
    2.2711   -1.3515    3.3594 O   0  0  0  0  0  0  0  0  0  0  0  0
    3.5732    0.2388    4.5872 C   0  0  0  0  0  0  0  0  0  0  0  0
    3.7910    1.6805    4.8402 N   0  3  0  0  0  0  0  0  0  0  0  0
   -7.4272   -4.9268    0.7548 C   0  0  0  0  0  0  0  0  0  0  0  0
   -6.4834   -2.4539    3.3473 C   0  0  2  0  0  0  0  0  0  0  0  0
   -6.9108   -3.1831    4.6187 C   0  0  2  0  0  0  0  0  0  0  0  0
   -6.2233   -2.6046    5.7978 N   0  3  0  0  0  0  0  0  0  0  0  0
   -6.5719   -4.6640    4.5135 C   0  0  1  0  0  0  0  0  0  0  0  0
   -7.0435   -5.3434    5.6670 O   0  0  0  0  0  0  0  0  0  0  0  0
   -7.2175   -5.2481    3.2590 C   0  0  2  0  0  0  0  0  0  0  0  0
   -6.8489   -6.6138    3.1163 O   0  0  0  0  0  0  0  0  0  0  0  0
   -7.6013   -3.8130   -0.2055 N   0  3  0  0  0  0  0  0  0  0  0  0
   -6.7563   -4.4596    2.0347 C   0  0  2  0  0  0  0  0  0  0  0  0
   -7.0689   -3.0614    2.1987 O   0  0  0  0  0  0  0  0  0  0  0  0
   -4.7277    0.3532    0.0723 C   0  0  2  0  0  0  0  0  0  0  0  0
   -4.1818    1.4216   -0.7959 N   0  3  0  0  0  0  0  0  0  0  0  0
   -4.9437    0.8880    1.4834 C   0  0  0  0  0  0  0  0  0  0  0  0
   -5.5030   -0.2010    2.3883 C   0  0  2  0  0  0  0  0  0  0  0  0
   -5.6870    0.3718    3.7142 N   0  3  0  0  0  0  0  0  0  0  0  0
   -4.5364   -1.3821    2.4346 C   0  0  1  0  0  0  0  0  0  0  0  0
   -5.0859   -2.4195    3.2702 O   0  0  0  0  0  0  0  0  0  0  0  0
   -4.2890   -1.9389    1.0258 C   0  0  2  0  0  0  0  0  0  0  0  0
   -3.2961   -2.9803    1.0919 O   0  0  0  0  0  0  0  0  0  0  0  0
   -3.7900   -0.8531    0.0757 C   0  0  1  0  0  0  0  0  0  0  0  0
   -3.6939   -1.3817   -1.2403 O   0  0  0  0  0  0  0  0  0  0  0  0
  1  2  1  0  0  0  0
  3  2  1  1  0  0  0
  3  5  1  0  0  0  0
  3  4  1  0  0  0  0
  4  9  1  0  0  0  0
  5  7  1  0  0  0  0
  5  6  1  6  0  0  0
  7  9  1  0  0  0  0
  7  8  1  6  0  0  0
  9 40  1  1  0  0  0
 10  6  1  1  0  0  0
 10 11  1  0  0  0  0
 10 18  1  0  0  0  0
 11 13  1  0  0  0  0
 11 12  1  1  0  0  0
 13 15  1  0  0  0  0
 13 14  1  1  0  0  0
 15 17  1  0  0  0  0
 15 16  1  1  0  0  0
 17 19  1  1  0  0  0
 17 18  1  0  0  0  0
 19 20  1  0  0  0  0
 21 29  1  0  0  0  0
 22 23  1  0  0  0  0
 22 31  1  0  0  0  0
 22 38  1  6  0  0  0
 23 25  1  0  0  0  0
 23 24  1  1  0  0  0
 25 27  1  0  0  0  0
 25 26  1  1  0  0  0
 27 30  1  0  0  0  0
 27 28  1  6  0  0  0
 30 21  1  6  0  0  0
 30 31  1  0  0  0  0
 32 34  1  0  0  0  0
 32 41  1  0  0  0  0
 32 33  1  6  0  0  0
 34 35  1  0  0  0  0
 35 37  1  0  0  0  0
 35 36  1  1  0  0  0
 37 39  1  0  0  0  0
 37 38  1  1  0  0  0
 39 41  1  0  0  0  0
 39 40  1  1  0  0  0
 41 42  1  6  0  0  0
M  CHG  6  12   1  20   1  24   1  29   1  33   1  36   1
M  END
>  <CHROM.1>
-59.14505357,169.35455313,119.28580217,-87.15713913,77.56007740,-156.84488497
166.26713215,80.45477500,-175.47209912,75.02043646,-59.53487303,148.40576833
-108.31086663,-158.08684496,-62.47682660,-64.20780697,-74.11888008,173.66607855
12.35464819,27.55818464,-121.56884837,70.32160172,-2.30084029,-2.17268496
2.00215197,-0.28501418,0.00610292,2.90169771

>  <Name>
1NEM.B

>  <RI>
0

>  <Rbt.Current_Directory>
/home/itssahil/PROJECTS/Mol_Feturizer/New_Systems/rnas/1nem

>  <Rbt.Executable>
rbdock ($Id: //depot/dev/client3/rdock/2013.1/src/exe/rbdock.cxx#4 $)

>  <Rbt.Library>
libRbt.so (2013.1, Build901 2013/11/27)

>  <Rbt.Parameter_File>
/export/apps/rDock/src/rDock_2013.1_src/data/scripts/dock_solv.prm

>  <Rbt.Receptor>
prm/blind_docking_40.prm

>  <SCORE>
5.71194

>  <SCORE.INTER>
-30.3595

>  <SCORE.INTER.CONST>
1

>  <SCORE.INTER.POLAR>
-6.12759

>  <SCORE.INTER.ROT>
9

>  <SCORE.INTER.SOLV>
44.3957

>  <SCORE.INTER.VDW>
-24.2129

>  <SCORE.INTER.norm>
-0.722845

>  <SCORE.INTRA>
33.8469

>  <SCORE.INTRA.DIHEDRAL>
19.5746

>  <SCORE.INTRA.DIHEDRAL.0>
22.4324

>  <SCORE.INTRA.POLAR>
0.884949

>  <SCORE.INTRA.POLAR.0>
-1.83749

>  <SCORE.INTRA.REPUL>
0

>  <SCORE.INTRA.REPUL.0>
0

>  <SCORE.INTRA.SOLV>
-0.491406

>  <SCORE.INTRA.SOLV.lig_0>
-160.638

>  <SCORE.INTRA.VDW>
21.2965

>  <SCORE.INTRA.VDW.0>
-7.61953

>  <SCORE.INTRA.norm>
0.805878

>  <SCORE.RESTR>
2.22456

>  <SCORE.RESTR.CAVITY>
2.22456

>  <SCORE.RESTR.norm>
0.0529656

>  <SCORE.SYSTEM>
0

>  <SCORE.SYSTEM.CONST>
0

>  <SCORE.SYSTEM.DIHEDRAL>
0

>  <SCORE.SYSTEM.SOLV>
0

>  <SCORE.SYSTEM.norm>
0

>  <SCORE.heavy>
42

>  <SCORE.norm>
0.135999

>  <RMSD>
4.270

$$$$
1NEM.B
 OpenBabel11021811403D
libRbt.so/2013.1/901 2013/11/27
 42 45  0  0  0  0  0  0  0  0999 V2000
    1.5741   -5.0517    2.0048 O   0  0  0  0  0  0  0  0  0  0  0  0
    0.1799   -5.0239    1.6922 C   0  0  0  0  0  0  0  0  0  0  0  0
   -0.2434   -3.7527    0.9577 C   0  0  1  0  0  0  0  0  0  0  0  0
   -1.3892   -3.9972    0.1473 O   0  0  0  0  0  0  0  0  0  0  0  0
   -0.6954   -2.6177    1.8628 C   0  0  1  0  0  0  0  0  0  0  0  0
    0.4706   -2.0962    2.5045 O   0  0  0  0  0  0  0  0  0  0  0  0
   -1.3486   -1.7292    0.8208 C   0  0  1  0  0  0  0  0  0  0  0  0
   -0.3893   -1.1310   -0.0573 O   0  0  0  0  0  0  0  0  0  0  0  0
   -2.1568   -2.7957    0.0723 C   0  0  2  0  0  0  0  0  0  0  0  0
    1.3771   -1.4171    1.6833 C   0  0  2  0  0  0  0  0  0  0  0  0
    2.8058   -1.6890    2.1734 C   0  0  2  0  0  0  0  0  0  0  0  0
    2.9190   -1.3666    3.6203 N   0  3  0  0  0  0  0  0  0  0  0  0
    3.8265   -0.9093    1.3382 C   0  0  1  0  0  0  0  0  0  0  0  0
    3.9042   -1.4693    0.0340 O   0  0  0  0  0  0  0  0  0  0  0  0
    3.4451    0.5710    1.2399 C   0  0  2  0  0  0  0  0  0  0  0  0
    3.5846    1.2022    2.5064 O   0  0  0  0  0  0  0  0  0  0  0  0
    2.0053    0.6986    0.7503 C   0  0  1  0  0  0  0  0  0  0  0  0
    1.1256   -0.0187    1.6377 O   0  0  0  0  0  0  0  0  0  0  0  0
    1.5236    2.1368    0.6744 C   0  0  0  0  0  0  0  0  0  0  0  0
    1.7902    2.8756    1.9286 N   0  3  0  0  0  0  0  0  0  0  0  0
   -8.0753   -4.3767    0.8046 C   0  0  0  0  0  0  0  0  0  0  0  0
   -6.3236   -2.4302    3.4256 C   0  0  2  0  0  0  0  0  0  0  0  0
   -6.5869   -3.2925    4.6577 C   0  0  2  0  0  0  0  0  0  0  0  0
   -5.6116   -2.9712    5.7269 N   0  3  0  0  0  0  0  0  0  0  0  0
   -6.4742   -4.7683    4.2992 C   0  0  1  0  0  0  0  0  0  0  0  0
   -6.7969   -5.5594    5.4325 O   0  0  0  0  0  0  0  0  0  0  0  0
   -7.4243   -5.0882    3.1473 C   0  0  2  0  0  0  0  0  0  0  0  0
   -7.2750   -6.4482    2.7606 O   0  0  0  0  0  0  0  0  0  0  0  0
   -8.2653   -5.8125    0.4957 N   0  3  0  0  0  0  0  0  0  0  0  0
   -7.1111   -4.1782    1.9612 C   0  0  2  0  0  0  0  0  0  0  0  0
   -7.1976   -2.7952    2.3608 O   0  0  0  0  0  0  0  0  0  0  0  0
   -4.8772    0.2445   -0.1559 C   0  0  2  0  0  0  0  0  0  0  0  0
   -4.4015    1.3110   -1.0667 N   0  3  0  0  0  0  0  0  0  0  0  0
   -4.9686    0.7787    1.2690 C   0  0  0  0  0  0  0  0  0  0  0  0
   -5.4546   -0.3083    2.2175 C   0  0  2  0  0  0  0  0  0  0  0  0
   -5.5212    0.2639    3.5548 N   0  3  0  0  0  0  0  0  0  0  0  0
   -4.4943   -1.4948    2.1801 C   0  0  1  0  0  0  0  0  0  0  0  0
   -4.9762   -2.5302    3.0588 O   0  0  0  0  0  0  0  0  0  0  0  0
   -4.3715   -2.0512    0.7548 C   0  0  2  0  0  0  0  0  0  0  0  0
   -3.3826   -3.0982    0.7349 O   0  0  0  0  0  0  0  0  0  0  0  0
   -3.9496   -0.9670   -0.2337 C   0  0  1  0  0  0  0  0  0  0  0  0
   -3.9694   -1.4945   -1.5535 O   0  0  0  0  0  0  0  0  0  0  0  0
  1  2  1  0  0  0  0
  3  2  1  1  0  0  0
  3  5  1  0  0  0  0
  3  4  1  0  0  0  0
  4  9  1  0  0  0  0
  5  7  1  0  0  0  0
  5  6  1  6  0  0  0
  7  9  1  0  0  0  0
  7  8  1  6  0  0  0
  9 40  1  1  0  0  0
 10  6  1  1  0  0  0
 10 11  1  0  0  0  0
 10 18  1  0  0  0  0
 11 13  1  0  0  0  0
 11 12  1  1  0  0  0
 13 15  1  0  0  0  0
 13 14  1  6  0  0  0
 15 17  1  0  0  0  0
 15 16  1  1  0  0  0
 17 19  1  1  0  0  0
 17 18  1  0  0  0  0
 19 20  1  0  0  0  0
 21 29  1  0  0  0  0
 22 23  1  0  0  0  0
 22 31  1  0  0  0  0
 22 38  1  6  0  0  0
 23 25  1  0  0  0  0
 23 24  1  1  0  0  0
 25 27  1  0  0  0  0
 25 26  1  1  0  0  0
 27 30  1  0  0  0  0
 27 28  1  6  0  0  0
 30 21  1  6  0  0  0
 30 31  1  0  0  0  0
 32 34  1  0  0  0  0
 32 41  1  0  0  0  0
 32 33  1  6  0  0  0
 34 35  1  0  0  0  0
 35 37  1  0  0  0  0
 35 36  1  1  0  0  0
 37 39  1  0  0  0  0
 37 38  1  1  0  0  0
 39 41  1  0  0  0  0
 39 40  1  1  0  0  0
 41 42  1  6  0  0  0
M  CHG  6  12   1  20   1  24   1  29   1  33   1  36   1
M  END
>  <CHROM.1>
-60.78901502,153.06235670,68.70707204,-144.84077490,-87.15140751,-177.69039179
127.26684913,-43.26254587,74.06385778,-50.05428480,47.94129681,-47.29654928
-172.47400869,-162.50994329,60.08743945,-59.23364379,-62.48312033,-173.20879586
135.53193191,17.76201066,-109.09432692,-58.82132238,-2.43464219,-2.01933405
1.76537180,-0.38292889,0.01830096,2.76177589

>  <Name>
1NEM.B

>  <RI>
0

>  <Rbt.Current_Directory>
/home/itssahil/PROJECTS/Mol_Feturizer/New_Systems/rnas/1nem

>  <Rbt.Executable>
rbdock ($Id: //depot/dev/client3/rdock/2013.1/src/exe/rbdock.cxx#4 $)

>  <Rbt.Library>
libRbt.so (2013.1, Build901 2013/11/27)

>  <Rbt.Parameter_File>
/export/apps/rDock/src/rDock_2013.1_src/data/scripts/dock_solv.prm

>  <Rbt.Receptor>
prm/blind_docking_20.prm

>  <SCORE>
20.4047

>  <SCORE.INTER>
-12.7086

>  <SCORE.INTER.CONST>
1

>  <SCORE.INTER.POLAR>
-4.40651

>  <SCORE.INTER.ROT>
9

>  <SCORE.INTER.SOLV>
42.6363

>  <SCORE.INTER.VDW>
-17.5961

>  <SCORE.INTER.norm>
-0.302585

>  <SCORE.INTRA>
27.5142

>  <SCORE.INTRA.DIHEDRAL>
12.3577

>  <SCORE.INTRA.DIHEDRAL.0>
22.4324

>  <SCORE.INTRA.POLAR>
0.623132

>  <SCORE.INTRA.POLAR.0>
-1.83749

>  <SCORE.INTRA.REPUL>
0

>  <SCORE.INTRA.REPUL.0>
0

>  <SCORE.INTRA.SOLV>
1.35509

>  <SCORE.INTRA.SOLV.lig_0>
-160.638

>  <SCORE.INTRA.VDW>
18.5392

>  <SCORE.INTRA.VDW.0>
-7.61953

>  <SCORE.INTRA.norm>
0.6551

>  <SCORE.RESTR>
5.59905

>  <SCORE.RESTR.CAVITY>
5.59905

>  <SCORE.RESTR.norm>
0.133311

>  <SCORE.SYSTEM>
0

>  <SCORE.SYSTEM.CONST>
0

>  <SCORE.SYSTEM.DIHEDRAL>
0

>  <SCORE.SYSTEM.SOLV>
0

>  <SCORE.SYSTEM.norm>
0

>  <SCORE.heavy>
42

>  <SCORE.norm>
0.485825

>  <RMSD>
4.334

$$$$
1NEM.B
 OpenBabel11021811403D
libRbt.so/2013.1/901 2013/11/27
 42 45  0  0  0  0  0  0  0  0999 V2000
    2.7803    3.2614    1.8161 O   0  0  0  0  0  0  0  0  0  0  0  0
    3.7786    2.2392    1.8392 C   0  0  0  0  0  0  0  0  0  0  0  0
    3.2921    0.9421    2.4838 C   0  0  1  0  0  0  0  0  0  0  0  0
    2.1916    0.4013    1.7584 O   0  0  0  0  0  0  0  0  0  0  0  0
    4.3053   -0.1913    2.4716 C   0  0  1  0  0  0  0  0  0  0  0  0
    5.3191    0.1350    3.4251 O   0  0  0  0  0  0  0  0  0  0  0  0
    3.3813   -1.3393    2.8327 C   0  0  1  0  0  0  0  0  0  0  0  0
    2.9358   -1.2676    4.1912 O   0  0  0  0  0  0  0  0  0  0  0  0
    2.2234   -1.0210    1.8795 C   0  0  2  0  0  0  0  0  0  0  0  0
    6.6424   -0.0043    2.9928 C   0  0  2  0  0  0  0  0  0  0  0  0
    7.5891    0.4977    4.0915 C   0  0  2  0  0  0  0  0  0  0  0  0
    7.2123    1.8770    4.4989 N   0  3  0  0  0  0  0  0  0  0  0  0
    9.0482    0.4223    3.6304 C   0  0  1  0  0  0  0  0  0  0  0  0
    9.4565   -0.9373    3.5576 O   0  0  0  0  0  0  0  0  0  0  0  0
    9.2310    1.0877    2.2628 C   0  0  2  0  0  0  0  0  0  0  0  0
    9.0471    2.4937    2.3691 O   0  0  0  0  0  0  0  0  0  0  0  0
    8.2286    0.5050    1.2706 C   0  0  1  0  0  0  0  0  0  0  0  0
    6.8898    0.6821    1.7727 O   0  0  0  0  0  0  0  0  0  0  0  0
    8.3028    1.1479   -0.1032 C   0  0  0  0  0  0  0  0  0  0  0  0
    7.4141    0.4751   -1.0766 N   0  3  0  0  0  0  0  0  0  0  0  0
   -4.2934   -0.2738    0.8847 C   0  0  0  0  0  0  0  0  0  0  0  0
   -0.7725   -1.4152    1.0499 C   0  0  2  0  0  0  0  0  0  0  0  0
   -0.9580   -2.9270    1.1544 C   0  0  2  0  0  0  0  0  0  0  0  0
    0.2924   -3.6252    0.7714 N   0  3  0  0  0  0  0  0  0  0  0  0
   -2.0891   -3.3812    0.2415 C   0  0  1  0  0  0  0  0  0  0  0  0
   -2.3029   -4.7747    0.4055 O   0  0  0  0  0  0  0  0  0  0  0  0
   -3.3624   -2.6105    0.5832 C   0  0  2  0  0  0  0  0  0  0  0  0
   -4.4053   -2.9788   -0.3102 O   0  0  0  0  0  0  0  0  0  0  0  0
   -4.6143    0.7540   -0.1320 N   0  3  0  0  0  0  0  0  0  0  0  0
   -3.0950   -1.1107    0.4724 C   0  0  2  0  0  0  0  0  0  0  0  0
   -1.9955   -0.7385    1.3281 O   0  0  0  0  0  0  0  0  0  0  0  0
    2.7481    1.5290   -1.6670 C   0  0  2  0  0  0  0  0  0  0  0  0
    3.7520    2.6170   -1.7096 N   0  3  0  0  0  0  0  0  0  0  0  0
    1.3714    2.1024   -1.3507 C   0  0  0  0  0  0  0  0  0  0  0  0
    0.3289    0.9942   -1.3015 C   0  0  2  0  0  0  0  0  0  0  0  0
   -0.9575    1.6053   -0.9982 N   0  3  0  0  0  0  0  0  0  0  0  0
    0.7111   -0.0285   -0.2341 C   0  0  1  0  0  0  0  0  0  0  0  0
   -0.2652   -1.0881   -0.2133 O   0  0  0  0  0  0  0  0  0  0  0  0
    2.0992   -0.6190   -0.5180 C   0  0  2  0  0  0  0  0  0  0  0  0
    2.4728   -1.4989    0.5594 O   0  0  0  0  0  0  0  0  0  0  0  0
    3.1572    0.4748   -0.6396 C   0  0  1  0  0  0  0  0  0  0  0  0
    4.3968   -0.1049   -1.0242 O   0  0  0  0  0  0  0  0  0  0  0  0
  1  2  1  0  0  0  0
  3  2  1  6  0  0  0
  3  5  1  0  0  0  0
  3  4  1  0  0  0  0
  4  9  1  0  0  0  0
  5  7  1  0  0  0  0
  5  6  1  1  0  0  0
  7  9  1  0  0  0  0
  7  8  1  1  0  0  0
  9 40  1  6  0  0  0
 10  6  1  1  0  0  0
 10 11  1  0  0  0  0
 10 18  1  0  0  0  0
 11 13  1  0  0  0  0
 11 12  1  6  0  0  0
 13 15  1  0  0  0  0
 13 14  1  6  0  0  0
 15 17  1  0  0  0  0
 15 16  1  1  0  0  0
 17 19  1  6  0  0  0
 17 18  1  0  0  0  0
 19 20  1  0  0  0  0
 21 29  1  0  0  0  0
 22 23  1  0  0  0  0
 22 31  1  0  0  0  0
 22 38  1  6  0  0  0
 23 25  1  0  0  0  0
 23 24  1  6  0  0  0
 25 27  1  0  0  0  0
 25 26  1  1  0  0  0
 27 30  1  0  0  0  0
 27 28  1  6  0  0  0
 30 21  1  1  0  0  0
 30 31  1  0  0  0  0
 32 34  1  0  0  0  0
 32 41  1  0  0  0  0
 32 33  1  1  0  0  0
 34 35  1  0  0  0  0
 35 37  1  0  0  0  0
 35 36  1  1  0  0  0
 37 39  1  0  0  0  0
 37 38  1  6  0  0  0
 39 41  1  0  0  0  0
 39 40  1  1  0  0  0
 41 42  1  6  0  0  0
M  CHG  6  12   1  20   1  24   1  29   1  33   1  36   1
M  END
>  <CHROM.1>
81.14895815,61.19828918,-132.23341295,175.23602476,-100.08164919,-23.81153992
45.34883324,59.94263943,176.05014966,174.44603857,173.12605128,-130.03316803
-54.22933563,-141.64884382,32.96700398,-77.46904291,-49.22461262,170.89968439
176.11674469,-130.53825861,-44.37359043,-38.92808420,2.65004417,-0.12300843
1.06764119,0.04158471,-0.30471081,-0.71427337

>  <Name>
1NEM.B

>  <RI>
0

>  <Rbt.Current_Directory>
/home/itssahil/PROJECTS/Mol_Feturizer/New_Systems/rnas/1nem

>  <Rbt.Executable>
rbdock ($Id: //depot/dev/client3/rdock/2013.1/src/exe/rbdock.cxx#4 $)

>  <Rbt.Library>
libRbt.so (2013.1, Build901 2013/11/27)

>  <Rbt.Parameter_File>
/export/apps/rDock/src/rDock_2013.1_src/data/scripts/dock_solv.prm

>  <Rbt.Receptor>
prm/pocket_docking_5.prm

>  <SCORE>
-32.0796

>  <SCORE.INTER>
-47.3221

>  <SCORE.INTER.CONST>
1

>  <SCORE.INTER.POLAR>
-8.16564

>  <SCORE.INTER.ROT>
9

>  <SCORE.INTER.SOLV>
23.1688

>  <SCORE.INTER.VDW>
-21.6522

>  <SCORE.INTER.norm>
-1.12672

>  <SCORE.INTRA>
15.2425

>  <SCORE.INTRA.DIHEDRAL>
20.3896

>  <SCORE.INTRA.DIHEDRAL.0>
22.4324

>  <SCORE.INTRA.POLAR>
-0.894148

>  <SCORE.INTRA.POLAR.0>
-1.83749

>  <SCORE.INTRA.REPUL>
0.230411

>  <SCORE.INTRA.REPUL.0>
0

>  <SCORE.INTRA.SOLV>
3.21249

>  <SCORE.INTRA.SOLV.lig_0>
-160.638

>  <SCORE.INTRA.VDW>
5.32949

>  <SCORE.INTRA.VDW.0>
-7.61953

>  <SCORE.INTRA.norm>
0.362917

>  <SCORE.RESTR>
0

>  <SCORE.RESTR.CAVITY>
0

>  <SCORE.RESTR.norm>
0

>  <SCORE.SYSTEM>
0

>  <SCORE.SYSTEM.CONST>
0

>  <SCORE.SYSTEM.DIHEDRAL>
0

>  <SCORE.SYSTEM.SOLV>
0

>  <SCORE.SYSTEM.norm>
0

>  <SCORE.heavy>
42

>  <SCORE.norm>
-0.7638

>  <RMSD>
4.359

$$$$
1NEM.B
 OpenBabel11021811403D
libRbt.so/2013.1/901 2013/11/27
 42 45  0  0  0  0  0  0  0  0999 V2000
    4.3381    1.9804    2.3185 O   0  0  0  0  0  0  0  0  0  0  0  0
    3.4676    0.8749    2.0691 C   0  0  0  0  0  0  0  0  0  0  0  0
    2.8758    0.8852    0.6605 C   0  0  1  0  0  0  0  0  0  0  0  0
    1.8795   -0.1241    0.5254 O   0  0  0  0  0  0  0  0  0  0  0  0
    2.1302    2.1588    0.2949 C   0  0  1  0  0  0  0  0  0  0  0  0
    3.1081    3.1841    0.1060 O   0  0  0  0  0  0  0  0  0  0  0  0
    1.4167    1.6668   -0.9504 C   0  0  1  0  0  0  0  0  0  0  0  0
    2.3190    1.4509   -2.0405 O   0  0  0  0  0  0  0  0  0  0  0  0
    0.9038    0.3245   -0.4155 C   0  0  2  0  0  0  0  0  0  0  0  0
    4.1760    2.8715   -0.7419 C   0  0  2  0  0  0  0  0  0  0  0  0
    5.4561    3.5271   -0.2063 C   0  0  2  0  0  0  0  0  0  0  0  0
    5.2356    4.9826    0.0014 N   0  3  0  0  0  0  0  0  0  0  0  0
    6.6382    3.2620   -1.1443 C   0  0  1  0  0  0  0  0  0  0  0  0
    7.0127    1.8930   -1.0655 O   0  0  0  0  0  0  0  0  0  0  0  0
    6.2852    3.6156   -2.5923 C   0  0  2  0  0  0  0  0  0  0  0  0
    6.1306    5.0221   -2.7336 O   0  0  0  0  0  0  0  0  0  0  0  0
    4.9946    2.9070   -2.9937 C   0  0  1  0  0  0  0  0  0  0  0  0
    3.9377    3.2720   -2.0850 O   0  0  0  0  0  0  0  0  0  0  0  0
    4.5390    3.2446   -4.4024 C   0  0  0  0  0  0  0  0  0  0  0  0
    3.1221    2.8813   -4.6266 N   0  3  0  0  0  0  0  0  0  0  0  0
   -3.9666   -3.7461    3.8311 C   0  0  0  0  0  0  0  0  0  0  0  0
   -1.4194   -2.0196    1.7675 C   0  0  2  0  0  0  0  0  0  0  0  0
   -0.4080   -3.1422    1.5487 C   0  0  2  0  0  0  0  0  0  0  0  0
    0.4566   -2.8343    0.3846 N   0  3  0  0  0  0  0  0  0  0  0  0
   -1.1313   -4.4600    1.3052 C   0  0  1  0  0  0  0  0  0  0  0  0
   -0.1822   -5.5080    1.1807 O   0  0  0  0  0  0  0  0  0  0  0  0
   -2.0793   -4.7451    2.4679 C   0  0  2  0  0  0  0  0  0  0  0  0
   -2.8093   -5.9388    2.2155 O   0  0  0  0  0  0  0  0  0  0  0  0
   -3.2163   -3.6852    5.1064 N   0  3  0  0  0  0  0  0  0  0  0  0
   -3.0470   -3.5751    2.6345 C   0  0  2  0  0  0  0  0  0  0  0  0
   -2.3136   -2.3484    2.8274 O   0  0  0  0  0  0  0  0  0  0  0  0
   -3.3967    1.8135   -1.3323 C   0  0  2  0  0  0  0  0  0  0  0  0
   -3.8790    3.2012   -1.5195 N   0  3  0  0  0  0  0  0  0  0  0  0
   -4.3984    1.0217   -0.4994 C   0  0  0  0  0  0  0  0  0  0  0  0
   -3.9143   -0.4073   -0.2968 C   0  0  2  0  0  0  0  0  0  0  0  0
   -4.9114   -1.1070    0.5009 N   0  3  0  0  0  0  0  0  0  0  0  0
   -2.5601   -0.3997    0.4084 C   0  0  1  0  0  0  0  0  0  0  0  0
   -2.0960   -1.7541    0.5710 O   0  0  0  0  0  0  0  0  0  0  0  0
   -1.5292    0.3994   -0.4008 C   0  0  2  0  0  0  0  0  0  0  0  0
   -0.2962    0.4751    0.3399 O   0  0  0  0  0  0  0  0  0  0  0  0
   -2.0160    1.8195   -0.6782 C   0  0  1  0  0  0  0  0  0  0  0  0
   -1.0908    2.4800   -1.5315 O   0  0  0  0  0  0  0  0  0  0  0  0
  1  2  1  0  0  0  0
  3  2  1  1  0  0  0
  3  5  1  0  0  0  0
  3  4  1  0  0  0  0
  4  9  1  0  0  0  0
  5  7  1  0  0  0  0
  5  6  1  6  0  0  0
  7  9  1  0  0  0  0
  7  8  1  6  0  0  0
  9 40  1  1  0  0  0
 10  6  1  1  0  0  0
 10 11  1  0  0  0  0
 10 18  1  0  0  0  0
 11 13  1  0  0  0  0
 11 12  1  6  0  0  0
 13 15  1  0  0  0  0
 13 14  1  6  0  0  0
 15 17  1  0  0  0  0
 15 16  1  1  0  0  0
 17 19  1  6  0  0  0
 17 18  1  0  0  0  0
 19 20  1  0  0  0  0
 21 29  1  0  0  0  0
 22 23  1  0  0  0  0
 22 31  1  0  0  0  0
 22 38  1  6  0  0  0
 23 25  1  0  0  0  0
 23 24  1  6  0  0  0
 25 27  1  0  0  0  0
 25 26  1  1  0  0  0
 27 30  1  0  0  0  0
 27 28  1  6  0  0  0
 30 21  1  1  0  0  0
 30 31  1  0  0  0  0
 32 34  1  0  0  0  0
 32 41  1  0  0  0  0
 32 33  1  1  0  0  0
 34 35  1  0  0  0  0
 35 37  1  0  0  0  0
 35 36  1  1  0  0  0
 37 39  1  0  0  0  0
 37 38  1  6  0  0  0
 39 41  1  0  0  0  0
 39 40  1  1  0  0  0
 41 42  1  6  0  0  0
M  CHG  6  12   1  20   1  24   1  29   1  33   1  36   1
M  END
>  <CHROM.1>
51.65629715,-171.93117318,50.29580569,-144.00857673,165.84638789,-156.23168487
48.66260326,-64.69551020,174.08707690,-163.25625324,-104.69645376,66.95720034
-65.89585937,-150.99906934,-44.00038209,-70.68207972,177.23114817,-34.16130381
-61.08391328,-142.93338132,139.45052163,-52.55703781,0.72129121,0.37186277
0.01560037,-0.75036293,0.09619801,2.52390016

>  <Name>
1NEM.B

>  <RI>
0

>  <Rbt.Current_Directory>
/home/itssahil/PROJECTS/Mol_Feturizer/New_Systems/rnas/1nem

>  <Rbt.Executable>
rbdock ($Id: //depot/dev/client3/rdock/2013.1/src/exe/rbdock.cxx#4 $)

>  <Rbt.Library>
libRbt.so (2013.1, Build901 2013/11/27)

>  <Rbt.Parameter_File>
/export/apps/rDock/src/rDock_2013.1_src/data/scripts/dock_solv.prm

>  <Rbt.Receptor>
prm/pocket_docking_8.prm

>  <SCORE>
-43.4715

>  <SCORE.INTER>
-46.603

>  <SCORE.INTER.CONST>
1

>  <SCORE.INTER.POLAR>
-6.99086

>  <SCORE.INTER.ROT>
9

>  <SCORE.INTER.SOLV>
36.7266

>  <SCORE.INTER.VDW>
-29.608

>  <SCORE.INTER.norm>
-1.1096

>  <SCORE.INTRA>
3.07014

>  <SCORE.INTRA.DIHEDRAL>
8.90497

>  <SCORE.INTRA.DIHEDRAL.0>
22.4324

>  <SCORE.INTRA.POLAR>
-1.86018

>  <SCORE.INTRA.POLAR.0>
-1.83749

>  <SCORE.INTRA.REPUL>
0

>  <SCORE.INTRA.REPUL.0>
0

>  <SCORE.INTRA.SOLV>
1.45488

>  <SCORE.INTRA.SOLV.lig_0>
-160.638

>  <SCORE.INTRA.VDW>
4.21484

>  <SCORE.INTRA.VDW.0>
-7.61953

>  <SCORE.INTRA.norm>
0.0730985

>  <SCORE.RESTR>
0.0613551

>  <SCORE.RESTR.CAVITY>
0.0613551

>  <SCORE.RESTR.norm>
0.00146084

>  <SCORE.SYSTEM>
0

>  <SCORE.SYSTEM.CONST>
0

>  <SCORE.SYSTEM.DIHEDRAL>
0

>  <SCORE.SYSTEM.SOLV>
0

>  <SCORE.SYSTEM.norm>
0

>  <SCORE.heavy>
42

>  <SCORE.norm>
-1.03504

>  <RMSD>
4.360

$$$$
1NEM.B
 OpenBabel11021811403D
libRbt.so/2013.1/901 2013/11/27
 42 45  0  0  0  0  0  0  0  0999 V2000
    3.3353   -4.2337    2.6136 O   0  0  0  0  0  0  0  0  0  0  0  0
    2.0214   -4.6421    2.2277 C   0  0  0  0  0  0  0  0  0  0  0  0
    1.2442   -3.5468    1.4990 C   0  0  1  0  0  0  0  0  0  0  0  0
   -0.1060   -3.9464    1.2826 O   0  0  0  0  0  0  0  0  0  0  0  0
    1.1005   -2.2474    2.2752 C   0  0  1  0  0  0  0  0  0  0  0  0
    2.3808   -1.6116    2.2799 O   0  0  0  0  0  0  0  0  0  0  0  0
    0.0210   -1.5886    1.4370 C   0  0  1  0  0  0  0  0  0  0  0  0
    0.5045   -1.1891    0.1502 O   0  0  0  0  0  0  0  0  0  0  0  0
   -0.9316   -2.7816    1.2963 C   0  0  2  0  0  0  0  0  0  0  0  0
    2.4279   -0.3200    2.8155 C   0  0  2  0  0  0  0  0  0  0  0  0
    3.6479    0.4186    2.2487 C   0  0  2  0  0  0  0  0  0  0  0  0
    4.8784   -0.3871    2.4653 N   0  3  0  0  0  0  0  0  0  0  0  0
    3.7719    1.8173    2.8618 C   0  0  1  0  0  0  0  0  0  0  0  0
    2.7306    2.6493    2.3680 O   0  0  0  0  0  0  0  0  0  0  0  0
    3.7016    1.7589    4.3909 C   0  0  2  0  0  0  0  0  0  0  0  0
    4.8611    1.1238    4.9147 O   0  0  0  0  0  0  0  0  0  0  0  0
    2.4515    0.9951    4.8184 C   0  0  1  0  0  0  0  0  0  0  0  0
    2.4655   -0.3230    4.2366 O   0  0  0  0  0  0  0  0  0  0  0  0
    2.3290    0.8415    6.3242 C   0  0  0  0  0  0  0  0  0  0  0  0
    2.0764    2.1372    6.9929 N   0  3  0  0  0  0  0  0  0  0  0  0
   -6.8174   -1.5759    2.0763 C   0  0  0  0  0  0  0  0  0  0  0  0
   -4.1090   -1.0810   -0.4030 C   0  0  2  0  0  0  0  0  0  0  0  0
   -3.8140    0.4062   -0.2234 C   0  0  2  0  0  0  0  0  0  0  0  0
   -2.4734    0.7326   -0.7654 N   0  3  0  0  0  0  0  0  0  0  0  0
   -3.8651    0.7767    1.2528 C   0  0  1  0  0  0  0  0  0  0  0  0
   -3.6665    2.1744    1.3999 O   0  0  0  0  0  0  0  0  0  0  0  0
   -5.2187    0.3744    1.8340 C   0  0  2  0  0  0  0  0  0  0  0  0
   -5.2490    0.6538    3.2278 O   0  0  0  0  0  0  0  0  0  0  0  0
   -6.9312   -1.5135    3.5514 N   0  3  0  0  0  0  0  0  0  0  0  0
   -5.4489   -1.1178    1.6028 C   0  0  2  0  0  0  0  0  0  0  0  0
   -5.3564   -1.4218    0.1961 O   0  0  0  0  0  0  0  0  0  0  0  0
   -5.0829   -4.7252    2.4775 C   0  0  2  0  0  0  0  0  0  0  0  0
   -5.4770   -6.0308    3.0550 N   0  3  0  0  0  0  0  0  0  0  0  0
   -5.2880   -4.7405    0.9669 C   0  0  0  0  0  0  0  0  0  0  0  0
   -4.8845   -3.4045    0.3590 C   0  0  2  0  0  0  0  0  0  0  0  0
   -5.1048   -3.4838   -1.0782 N   0  3  0  0  0  0  0  0  0  0  0  0
   -3.4176   -3.1165    0.6699 C   0  0  1  0  0  0  0  0  0  0  0  0
   -3.0515   -1.8379    0.1155 O   0  0  0  0  0  0  0  0  0  0  0  0
   -3.1746   -3.1041    2.1855 C   0  0  2  0  0  0  0  0  0  0  0  0
   -1.7673   -2.9345    2.4415 O   0  0  0  0  0  0  0  0  0  0  0  0
   -3.6319   -4.4076    2.8352 C   0  0  1  0  0  0  0  0  0  0  0  0
   -3.5041   -4.3043    4.2472 O   0  0  0  0  0  0  0  0  0  0  0  0
  1  2  1  0  0  0  0
  3  2  1  1  0  0  0
  3  5  1  0  0  0  0
  3  4  1  0  0  0  0
  4  9  1  0  0  0  0
  5  7  1  0  0  0  0
  5  6  1  6  0  0  0
  7  9  1  0  0  0  0
  7  8  1  6  0  0  0
  9 40  1  1  0  0  0
 10  6  1  6  0  0  0
 10 11  1  0  0  0  0
 10 18  1  0  0  0  0
 11 13  1  0  0  0  0
 11 12  1  1  0  0  0
 13 15  1  0  0  0  0
 13 14  1  6  0  0  0
 15 17  1  0  0  0  0
 15 16  1  6  0  0  0
 17 19  1  1  0  0  0
 17 18  1  0  0  0  0
 19 20  1  0  0  0  0
 21 29  1  0  0  0  0
 22 23  1  0  0  0  0
 22 31  1  0  0  0  0
 22 38  1  1  0  0  0
 23 25  1  0  0  0  0
 23 24  1  1  0  0  0
 25 27  1  0  0  0  0
 25 26  1  6  0  0  0
 27 30  1  0  0  0  0
 27 28  1  1  0  0  0
 30 21  1  6  0  0  0
 30 31  1  0  0  0  0
 32 34  1  0  0  0  0
 32 41  1  0  0  0  0
 32 33  1  6  0  0  0
 34 35  1  0  0  0  0
 35 37  1  0  0  0  0
 35 36  1  6  0  0  0
 37 39  1  0  0  0  0
 37 38  1  1  0  0  0
 39 41  1  0  0  0  0
 39 40  1  6  0  0  0
 41 42  1  1  0  0  0
M  CHG  6  12   1  20   1  24   1  29   1  33   1  36   1
M  END
>  <CHROM.1>
56.46372203,-172.92695636,172.91190995,-156.92915472,101.67709533,-114.01942982
172.73941553,176.50153395,63.98913749,68.02060317,-174.68058267,-68.05634424
60.70031413,148.30700398,-59.05539420,-154.97979454,-72.48139845,3.48926323
137.20675613,8.18280210,1.65864206,-64.72983125,-1.22560228,-1.37968609,2.20656935
-0.35296341,0.21561682,-2.99265089

>  <Name>
1NEM.B

>  <RI>
0

>  <Rbt.Current_Directory>
/home/itssahil/PROJECTS/Mol_Feturizer/New_Systems/rnas/1nem

>  <Rbt.Executable>
rbdock ($Id: //depot/dev/client3/rdock/2013.1/src/exe/rbdock.cxx#4 $)

>  <Rbt.Library>
libRbt.so (2013.1, Build901 2013/11/27)

>  <Rbt.Parameter_File>
/export/apps/rDock/src/rDock_2013.1_src/data/scripts/dock_solv.prm

>  <Rbt.Receptor>
prm/blind_docking_80.prm

>  <SCORE>
-0.80328

>  <SCORE.INTER>
-49.3605

>  <SCORE.INTER.CONST>
1

>  <SCORE.INTER.POLAR>
-6.73527

>  <SCORE.INTER.ROT>
9

>  <SCORE.INTER.SOLV>
44.3112

>  <SCORE.INTER.VDW>
-34.8265

>  <SCORE.INTER.norm>
-1.17525

>  <SCORE.INTRA>
44.9281

>  <SCORE.INTRA.DIHEDRAL>
21.9432

>  <SCORE.INTRA.DIHEDRAL.0>
22.4324

>  <SCORE.INTRA.POLAR>
0.7985

>  <SCORE.INTRA.POLAR.0>
-1.83749

>  <SCORE.INTRA.REPUL>
0

>  <SCORE.INTRA.REPUL.0>
0

>  <SCORE.INTRA.SOLV>
-1.45434

>  <SCORE.INTRA.SOLV.lig_0>
-160.638

>  <SCORE.INTRA.VDW>
31.9688

>  <SCORE.INTRA.VDW.0>
-7.61953

>  <SCORE.INTRA.norm>
1.06972

>  <SCORE.RESTR>
3.62912

>  <SCORE.RESTR.CAVITY>
3.62912

>  <SCORE.RESTR.norm>
0.0864077

>  <SCORE.SYSTEM>
0

>  <SCORE.SYSTEM.CONST>
0

>  <SCORE.SYSTEM.DIHEDRAL>
0

>  <SCORE.SYSTEM.SOLV>
0

>  <SCORE.SYSTEM.norm>
0

>  <SCORE.heavy>
42

>  <SCORE.norm>
-0.0191257

>  <RMSD>
4.368

$$$$
1NEM.B
 OpenBabel11021811403D
libRbt.so/2013.1/901 2013/11/27
 42 45  0  0  0  0  0  0  0  0999 V2000
    3.3005    3.2441    1.8618 O   0  0  0  0  0  0  0  0  0  0  0  0
    4.2745    2.2307    2.1198 C   0  0  0  0  0  0  0  0  0  0  0  0
    3.6753    0.9685    2.7384 C   0  0  1  0  0  0  0  0  0  0  0  0
    2.6824    0.4108    1.8825 O   0  0  0  0  0  0  0  0  0  0  0  0
    4.6583   -0.1769    2.9206 C   0  0  1  0  0  0  0  0  0  0  0  0
    5.5284    0.1774    3.9979 O   0  0  0  0  0  0  0  0  0  0  0  0
    3.6706   -1.2968    3.1890 C   0  0  1  0  0  0  0  0  0  0  0  0
    3.0334   -1.1613    4.4637 O   0  0  0  0  0  0  0  0  0  0  0  0
    2.6698   -1.0053    2.0646 C   0  0  2  0  0  0  0  0  0  0  0  0
    6.7784   -0.4507    4.0155 C   0  0  2  0  0  0  0  0  0  0  0  0
    7.2907   -0.5178    5.4606 C   0  0  2  0  0  0  0  0  0  0  0  0
    7.2694    0.8368    6.0731 N   0  3  0  0  0  0  0  0  0  0  0  0
    8.6891   -1.1416    5.5151 C   0  0  1  0  0  0  0  0  0  0  0  0
    8.6046   -2.5297    5.2204 O   0  0  0  0  0  0  0  0  0  0  0  0
    9.6367   -0.4622    4.5217 C   0  0  2  0  0  0  0  0  0  0  0  0
    9.9124    0.8703    4.9346 O   0  0  0  0  0  0  0  0  0  0  0  0
    9.0058   -0.4567    3.1322 C   0  0  1  0  0  0  0  0  0  0  0  0
    7.7264    0.2040    3.1826 O   0  0  0  0  0  0  0  0  0  0  0  0
    9.8567    0.2485    2.0907 C   0  0  0  0  0  0  0  0  0  0  0  0
    9.0949    0.5304    0.8538 N   0  3  0  0  0  0  0  0  0  0  0  0
   -3.8751   -1.7145    0.4948 C   0  0  0  0  0  0  0  0  0  0  0  0
   -0.3308   -2.2257    1.4453 C   0  0  2  0  0  0  0  0  0  0  0  0
   -0.3579   -3.6796    1.9107 C   0  0  2  0  0  0  0  0  0  0  0  0
    1.0117   -4.2468    1.9022 N   0  3  0  0  0  0  0  0  0  0  0  0
   -1.2519   -4.5066    0.9966 C   0  0  1  0  0  0  0  0  0  0  0  0
   -1.3306   -5.8372    1.4843 O   0  0  0  0  0  0  0  0  0  0  0  0
   -2.6449   -3.8832    0.9437 C   0  0  2  0  0  0  0  0  0  0  0  0
   -3.4660   -4.6096    0.0383 O   0  0  0  0  0  0  0  0  0  0  0  0
   -4.6496   -1.9975   -0.7352 N   0  3  0  0  0  0  0  0  0  0  0  0
   -2.5353   -2.4297    0.4869 C   0  0  2  0  0  0  0  0  0  0  0  0
   -1.6527   -1.6997    1.3632 O   0  0  0  0  0  0  0  0  0  0  0  0
    2.3439    0.9533   -1.9048 C   0  0  2  0  0  0  0  0  0  0  0  0
    2.9537    2.2663   -2.2172 N   0  3  0  0  0  0  0  0  0  0  0  0
    0.8669    1.1309   -1.5716 C   0  0  0  0  0  0  0  0  0  0  0  0
    0.2270   -0.2114   -1.2459 C   0  0  2  0  0  0  0  0  0  0  0  0
   -1.1766    0.0262   -0.9397 N   0  3  0  0  0  0  0  0  0  0  0  0
    0.9426   -0.8513   -0.0586 C   0  0  1  0  0  0  0  0  0  0  0  0
    0.3495   -2.1335    0.2252 O   0  0  0  0  0  0  0  0  0  0  0  0
    2.4368   -1.0352   -0.3582 C   0  0  2  0  0  0  0  0  0  0  0  0
    3.0998   -1.5423    0.8157 O   0  0  0  0  0  0  0  0  0  0  0  0
    3.0938    0.2848   -0.7538 C   0  0  1  0  0  0  0  0  0  0  0  0
    4.4407    0.0470   -1.1411 O   0  0  0  0  0  0  0  0  0  0  0  0
  1  2  1  0  0  0  0
  3  2  1  6  0  0  0
  3  5  1  0  0  0  0
  3  4  1  0  0  0  0
  4  9  1  0  0  0  0
  5  7  1  0  0  0  0
  5  6  1  1  0  0  0
  7  9  1  0  0  0  0
  7  8  1  1  0  0  0
  9 40  1  6  0  0  0
 10  6  1  1  0  0  0
 10 11  1  0  0  0  0
 10 18  1  0  0  0  0
 11 13  1  0  0  0  0
 11 12  1  6  0  0  0
 13 15  1  0  0  0  0
 13 14  1  6  0  0  0
 15 17  1  0  0  0  0
 15 16  1  1  0  0  0
 17 19  1  6  0  0  0
 17 18  1  0  0  0  0
 19 20  1  0  0  0  0
 21 29  1  0  0  0  0
 22 23  1  0  0  0  0
 22 31  1  0  0  0  0
 22 38  1  6  0  0  0
 23 25  1  0  0  0  0
 23 24  1  6  0  0  0
 25 27  1  0  0  0  0
 25 26  1  1  0  0  0
 27 30  1  0  0  0  0
 27 28  1  6  0  0  0
 30 21  1  1  0  0  0
 30 31  1  0  0  0  0
 32 34  1  0  0  0  0
 32 41  1  0  0  0  0
 32 33  1  1  0  0  0
 34 35  1  0  0  0  0
 35 37  1  0  0  0  0
 35 36  1  1  0  0  0
 37 39  1  0  0  0  0
 37 38  1  6  0  0  0
 39 41  1  0  0  0  0
 39 40  1  1  0  0  0
 41 42  1  6  0  0  0
M  CHG  6  12   1  20   1  24   1  29   1  33   1  36   1
M  END
>  <CHROM.1>
76.41875011,58.92467283,-156.60799701,-153.26566955,-91.26479530,-49.39481573
157.47030669,-47.17204106,72.65197469,-166.04811895,40.00075225,-82.52865365
-2.54889023,-154.90282781,-76.84634753,-47.65491010,178.87945783,63.49368807
-98.33529416,-113.12413049,-39.15619135,-172.79354142,2.99392117,-0.88251451
1.70227105,-0.06948975,-0.41992193,-0.76705345

>  <Name>
1NEM.B

>  <RI>
0

>  <Rbt.Current_Directory>
/home/itssahil/PROJECTS/Mol_Feturizer/New_Systems/rnas/1nem

>  <Rbt.Executable>
rbdock ($Id: //depot/dev/client3/rdock/2013.1/src/exe/rbdock.cxx#4 $)

>  <Rbt.Library>
libRbt.so (2013.1, Build901 2013/11/27)

>  <Rbt.Parameter_File>
/export/apps/rDock/src/rDock_2013.1_src/data/scripts/dock_solv.prm

>  <Rbt.Receptor>
prm/pocket_docking_6.prm

>  <SCORE>
-34.1418

>  <SCORE.INTER>
-47.1306

>  <SCORE.INTER.CONST>
1

>  <SCORE.INTER.POLAR>
-7.09994

>  <SCORE.INTER.ROT>
9

>  <SCORE.INTER.SOLV>
26.5448

>  <SCORE.INTER.VDW>
-26.2022

>  <SCORE.INTER.norm>
-1.12216

>  <SCORE.INTRA>
12.9888

>  <SCORE.INTRA.DIHEDRAL>
14.1087

>  <SCORE.INTRA.DIHEDRAL.0>
22.4324

>  <SCORE.INTRA.POLAR>
0.648801

>  <SCORE.INTRA.POLAR.0>
-1.83749

>  <SCORE.INTRA.REPUL>
0

>  <SCORE.INTRA.REPUL.0>
0

>  <SCORE.INTRA.SOLV>
-0.867466

>  <SCORE.INTRA.SOLV.lig_0>
-160.638

>  <SCORE.INTRA.VDW>
4.1623

>  <SCORE.INTRA.VDW.0>
-7.61953

>  <SCORE.INTRA.norm>
0.309258

>  <SCORE.RESTR>
0

>  <SCORE.RESTR.CAVITY>
0

>  <SCORE.RESTR.norm>
0

>  <SCORE.SYSTEM>
0

>  <SCORE.SYSTEM.CONST>
0

>  <SCORE.SYSTEM.DIHEDRAL>
0

>  <SCORE.SYSTEM.SOLV>
0

>  <SCORE.SYSTEM.norm>
0

>  <SCORE.heavy>
42

>  <SCORE.norm>
-0.812899

>  <RMSD>
4.381

$$$$
1NEM.B
 OpenBabel11021811403D
libRbt.so/2013.1/901 2013/11/27
 42 45  0  0  0  0  0  0  0  0999 V2000
   -1.1431   -6.1690    1.7851 O   0  0  0  0  0  0  0  0  0  0  0  0
   -0.0022   -5.4869    1.2605 C   0  0  0  0  0  0  0  0  0  0  0  0
   -0.3361   -4.1044    0.7020 C   0  0  1  0  0  0  0  0  0  0  0  0
   -1.5813   -4.1280    0.0103 O   0  0  0  0  0  0  0  0  0  0  0  0
   -0.5456   -3.0283    1.7554 C   0  0  1  0  0  0  0  0  0  0  0  0
    0.7368   -2.7154    2.3039 O   0  0  0  0  0  0  0  0  0  0  0  0
   -1.1863   -1.9646    0.8837 C   0  0  1  0  0  0  0  0  0  0  0  0
   -0.2555   -1.3899   -0.0396 O   0  0  0  0  0  0  0  0  0  0  0  0
   -2.1953   -2.8453    0.1373 C   0  0  2  0  0  0  0  0  0  0  0  0
    1.3006   -1.4992    1.9037 C   0  0  2  0  0  0  0  0  0  0  0  0
    2.0438   -1.6986    0.5759 C   0  0  2  0  0  0  0  0  0  0  0  0
    3.0120   -2.8203    0.6964 N   0  3  0  0  0  0  0  0  0  0  0  0
    2.7316   -0.4021    0.1358 C   0  0  1  0  0  0  0  0  0  0  0  0
    1.7518    0.5438   -0.2715 O   0  0  0  0  0  0  0  0  0  0  0  0
    3.5757    0.1882    1.2695 C   0  0  2  0  0  0  0  0  0  0  0  0
    4.6982   -0.6437    1.5343 O   0  0  0  0  0  0  0  0  0  0  0  0
    2.7220    0.3265    2.5268 C   0  0  1  0  0  0  0  0  0  0  0  0
    2.1746   -0.9572    2.8853 O   0  0  0  0  0  0  0  0  0  0  0  0
    3.4959    0.8561    3.7212 C   0  0  0  0  0  0  0  0  0  0  0  0
    2.5963    1.3528    4.7861 N   0  3  0  0  0  0  0  0  0  0  0  0
   -7.9971   -3.5750    0.1966 C   0  0  0  0  0  0  0  0  0  0  0  0
   -6.4781   -2.4848    3.3953 C   0  0  2  0  0  0  0  0  0  0  0  0
   -6.8963   -3.6233    4.3225 C   0  0  2  0  0  0  0  0  0  0  0  0
   -6.0314   -3.6488    5.5262 N   0  3  0  0  0  0  0  0  0  0  0  0
   -6.7895   -4.9577    3.5964 C   0  0  1  0  0  0  0  0  0  0  0  0
   -7.2541   -5.9984    4.4422 O   0  0  0  0  0  0  0  0  0  0  0  0
   -7.6204   -4.9106    2.3161 C   0  0  2  0  0  0  0  0  0  0  0  0
   -7.4707   -6.1281    1.5972 O   0  0  0  0  0  0  0  0  0  0  0  0
   -9.3144   -4.2374    0.3340 N   0  3  0  0  0  0  0  0  0  0  0  0
   -7.1561   -3.7410    1.4504 C   0  0  2  0  0  0  0  0  0  0  0  0
   -7.2440   -2.5083    2.1937 O   0  0  0  0  0  0  0  0  0  0  0  0
   -4.7905    0.3049    0.0253 C   0  0  2  0  0  0  0  0  0  0  0  0
   -4.2535    1.3935   -0.8231 N   0  3  0  0  0  0  0  0  0  0  0  0
   -4.9653    0.7981    1.4572 C   0  0  0  0  0  0  0  0  0  0  0  0
   -5.5150   -0.3120    2.3419 C   0  0  2  0  0  0  0  0  0  0  0  0
   -5.6594    0.2215    3.6890 N   0  3  0  0  0  0  0  0  0  0  0  0
   -4.5617   -1.5047    2.3278 C   0  0  1  0  0  0  0  0  0  0  0  0
   -5.1028   -2.5613    3.1446 O   0  0  0  0  0  0  0  0  0  0  0  0
   -4.3559   -2.0204    0.8968 C   0  0  2  0  0  0  0  0  0  0  0  0
   -3.3742   -3.0743    0.9061 O   0  0  0  0  0  0  0  0  0  0  0  0
   -3.8676   -0.9113   -0.0317 C   0  0  1  0  0  0  0  0  0  0  0  0
   -3.8103   -1.4000   -1.3653 O   0  0  0  0  0  0  0  0  0  0  0  0
  1  2  1  0  0  0  0
  3  2  1  1  0  0  0
  3  5  1  0  0  0  0
  3  4  1  0  0  0  0
  4  9  1  0  0  0  0
  5  7  1  0  0  0  0
  5  6  1  6  0  0  0
  7  9  1  0  0  0  0
  7  8  1  6  0  0  0
  9 40  1  1  0  0  0
 10  6  1  1  0  0  0
 10 11  1  0  0  0  0
 10 18  1  0  0  0  0
 11 13  1  0  0  0  0
 11 12  1  1  0  0  0
 13 15  1  0  0  0  0
 13 14  1  1  0  0  0
 15 17  1  0  0  0  0
 15 16  1  1  0  0  0
 17 19  1  1  0  0  0
 17 18  1  0  0  0  0
 19 20  1  0  0  0  0
 21 29  1  0  0  0  0
 22 23  1  0  0  0  0
 22 31  1  0  0  0  0
 22 38  1  6  0  0  0
 23 25  1  0  0  0  0
 23 24  1  1  0  0  0
 25 27  1  0  0  0  0
 25 26  1  1  0  0  0
 27 30  1  0  0  0  0
 27 28  1  6  0  0  0
 30 21  1  6  0  0  0
 30 31  1  0  0  0  0
 32 34  1  0  0  0  0
 32 41  1  0  0  0  0
 32 33  1  6  0  0  0
 34 35  1  0  0  0  0
 35 37  1  0  0  0  0
 35 36  1  1  0  0  0
 37 39  1  0  0  0  0
 37 38  1  1  0  0  0
 39 41  1  0  0  0  0
 39 40  1  1  0  0  0
 41 42  1  6  0  0  0
M  CHG  6  12   1  20   1  24   1  29   1  33   1  36   1
M  END
>  <CHROM.1>
55.76329720,-39.31826388,105.59293730,-85.14226487,-168.69611632,-164.64951198
54.93813061,-174.37656332,174.45920357,163.20197672,-80.98218828,20.22277331
-56.08250752,-177.27669616,70.09477348,170.46621880,62.55255405,55.88010696
15.98323643,19.77608432,-119.21610468,-49.68283963,-2.54283969,-2.19237360
1.68722427,-0.30179326,-0.00615301,2.94835599

>  <Name>
1NEM.B

>  <RI>
0

>  <Rbt.Current_Directory>
/home/itssahil/PROJECTS/Mol_Feturizer/New_Systems/rnas/1nem

>  <Rbt.Executable>
rbdock ($Id: //depot/dev/client3/rdock/2013.1/src/exe/rbdock.cxx#4 $)

>  <Rbt.Library>
libRbt.so (2013.1, Build901 2013/11/27)

>  <Rbt.Parameter_File>
/export/apps/rDock/src/rDock_2013.1_src/data/scripts/dock_solv.prm

>  <Rbt.Receptor>
prm/blind_docking_60.prm

>  <SCORE>
14.1043

>  <SCORE.INTER>
-21.1877

>  <SCORE.INTER.CONST>
1

>  <SCORE.INTER.POLAR>
-4.37341

>  <SCORE.INTER.ROT>
9

>  <SCORE.INTER.SOLV>
48.4491

>  <SCORE.INTER.VDW>
-25.2968

>  <SCORE.INTER.norm>
-0.504468

>  <SCORE.INTRA>
30.1227

>  <SCORE.INTRA.DIHEDRAL>
13.1903

>  <SCORE.INTRA.DIHEDRAL.0>
22.4324

>  <SCORE.INTRA.POLAR>
1.04322

>  <SCORE.INTRA.POLAR.0>
-1.83749

>  <SCORE.INTRA.REPUL>
0.062493

>  <SCORE.INTRA.REPUL.0>
0

>  <SCORE.INTRA.SOLV>
-2.64024

>  <SCORE.INTRA.SOLV.lig_0>
-160.638

>  <SCORE.INTRA.VDW>
20.9883

>  <SCORE.INTRA.VDW.0>
-7.61953

>  <SCORE.INTRA.norm>
0.717208

>  <SCORE.RESTR>
5.16919

>  <SCORE.RESTR.CAVITY>
5.16919

>  <SCORE.RESTR.norm>
0.123076

>  <SCORE.SYSTEM>
0

>  <SCORE.SYSTEM.CONST>
0

>  <SCORE.SYSTEM.DIHEDRAL>
0

>  <SCORE.SYSTEM.SOLV>
0

>  <SCORE.SYSTEM.norm>
0

>  <SCORE.heavy>
42

>  <SCORE.norm>
0.335816

>  <RMSD>
4.401

$$$$
1NEM.B
 OpenBabel11021811403D
libRbt.so/2013.1/901 2013/11/27
 42 45  0  0  0  0  0  0  0  0999 V2000
    1.7356   -5.7315    1.8206 O   0  0  0  0  0  0  0  0  0  0  0  0
    0.4219   -5.7123    1.2585 C   0  0  0  0  0  0  0  0  0  0  0  0
   -0.0109   -4.3216    0.7965 C   0  0  1  0  0  0  0  0  0  0  0  0
   -1.3880   -4.3182    0.4316 O   0  0  0  0  0  0  0  0  0  0  0  0
    0.0662   -3.2449    1.8672 C   0  0  1  0  0  0  0  0  0  0  0  0
    1.4500   -2.9595    2.0837 O   0  0  0  0  0  0  0  0  0  0  0  0
   -0.7473   -2.1659    1.1774 C   0  0  1  0  0  0  0  0  0  0  0  0
   -0.0602   -1.6069    0.0529 O   0  0  0  0  0  0  0  0  0  0  0  0
   -1.9261   -3.0239    0.7031 C   0  0  2  0  0  0  0  0  0  0  0  0
    1.7704   -1.6261    2.3608 C   0  0  2  0  0  0  0  0  0  0  0  0
    2.3018   -0.9578    1.0855 C   0  0  2  0  0  0  0  0  0  0  0  0
    3.4184   -1.7581    0.5172 N   0  3  0  0  0  0  0  0  0  0  0  0
    2.7258    0.4880    1.3635 C   0  0  1  0  0  0  0  0  0  0  0  0
    1.5737    1.2871    1.5970 O   0  0  0  0  0  0  0  0  0  0  0  0
    3.6601    0.5669    2.5748 C   0  0  2  0  0  0  0  0  0  0  0  0
    4.9125   -0.0350    2.2727 O   0  0  0  0  0  0  0  0  0  0  0  0
    3.0172   -0.1383    3.7657 C   0  0  1  0  0  0  0  0  0  0  0  0
    2.7149   -1.5031    3.4162 O   0  0  0  0  0  0  0  0  0  0  0  0
    3.9011   -0.1556    5.0003 C   0  0  0  0  0  0  0  0  0  0  0  0
    5.0333   -1.0974    4.8560 N   0  3  0  0  0  0  0  0  0  0  0  0
   -5.4076   -7.9557    3.6141 C   0  0  0  0  0  0  0  0  0  0  0  0
   -5.2615   -4.5323    2.2047 C   0  0  2  0  0  0  0  0  0  0  0  0
   -6.6336   -4.4278    1.5433 C   0  0  2  0  0  0  0  0  0  0  0  0
   -6.9866   -3.0061    1.3157 N   0  3  0  0  0  0  0  0  0  0  0  0
   -7.6923   -5.0752    2.4260 C   0  0  1  0  0  0  0  0  0  0  0  0
   -8.9484   -5.0406    1.7661 O   0  0  0  0  0  0  0  0  0  0  0  0
   -7.2953   -6.5192    2.7247 C   0  0  2  0  0  0  0  0  0  0  0  0
   -8.2433   -7.1094    3.6047 O   0  0  0  0  0  0  0  0  0  0  0  0
   -4.8908   -8.1164    4.9925 N   0  3  0  0  0  0  0  0  0  0  0  0
   -5.9102   -6.5438    3.3681 C   0  0  2  0  0  0  0  0  0  0  0  0
   -4.9532   -5.8898    2.5102 O   0  0  0  0  0  0  0  0  0  0  0  0
   -4.6111    0.1154    1.6084 C   0  0  2  0  0  0  0  0  0  0  0  0
   -4.0758    1.4778    1.3837 N   0  3  0  0  0  0  0  0  0  0  0  0
   -5.2578    0.0303    2.9863 C   0  0  0  0  0  0  0  0  0  0  0  0
   -5.8109   -1.3665    3.2321 C   0  0  2  0  0  0  0  0  0  0  0  0
   -6.4134   -1.3806    4.5576 N   0  3  0  0  0  0  0  0  0  0  0  0
   -4.6851   -2.3933    3.1347 C   0  0  1  0  0  0  0  0  0  0  0  0
   -5.2216   -3.7147    3.3405 O   0  0  0  0  0  0  0  0  0  0  0  0
   -4.0051   -2.3270    1.7601 C   0  0  2  0  0  0  0  0  0  0  0  0
   -2.8846   -3.2318    1.7381 O   0  0  0  0  0  0  0  0  0  0  0  0
   -3.4978   -0.9197    1.4553 C   0  0  1  0  0  0  0  0  0  0  0  0
   -2.9896   -0.8757    0.1285 O   0  0  0  0  0  0  0  0  0  0  0  0
  1  2  1  0  0  0  0
  3  2  1  1  0  0  0
  3  5  1  0  0  0  0
  3  4  1  0  0  0  0
  4  9  1  0  0  0  0
  5  7  1  0  0  0  0
  5  6  1  6  0  0  0
  7  9  1  0  0  0  0
  7  8  1  6  0  0  0
  9 40  1  1  0  0  0
 10  6  1  6  0  0  0
 10 11  1  0  0  0  0
 10 18  1  0  0  0  0
 11 13  1  0  0  0  0
 11 12  1  1  0  0  0
 13 15  1  0  0  0  0
 13 14  1  1  0  0  0
 15 17  1  0  0  0  0
 15 16  1  6  0  0  0
 17 19  1  1  0  0  0
 17 18  1  0  0  0  0
 19 20  1  0  0  0  0
 21 29  1  0  0  0  0
 22 23  1  0  0  0  0
 22 31  1  0  0  0  0
 22 38  1  1  0  0  0
 23 25  1  0  0  0  0
 23 24  1  1  0  0  0
 25 27  1  0  0  0  0
 25 26  1  6  0  0  0
 27 30  1  0  0  0  0
 27 28  1  1  0  0  0
 30 21  1  6  0  0  0
 30 31  1  0  0  0  0
 32 34  1  0  0  0  0
 32 41  1  0  0  0  0
 32 33  1  1  0  0  0
 34 35  1  0  0  0  0
 35 37  1  0  0  0  0
 35 36  1  1  0  0  0
 37 39  1  0  0  0  0
 37 38  1  6  0  0  0
 39 41  1  0  0  0  0
 39 40  1  1  0  0  0
 41 42  1  6  0  0  0
M  CHG  6  12   1  20   1  24   1  29   1  33   1  36   1
M  END
>  <CHROM.1>
51.34756191,-171.37014872,144.19976659,-100.23877108,-164.24809331,-150.10756185
59.08648760,-41.47701613,64.05291810,-72.83847227,40.02917803,-131.53435124
-78.61591068,-94.37821046,-77.18059562,-150.29907922,-50.44919176,57.57793392
-2.85068506,109.21610488,-162.61847176,-57.49681735,-2.05479271,-2.78429981
2.25341139,-0.40096084,0.01956674,2.99193401

>  <Name>
1NEM.B

>  <RI>
0

>  <Rbt.Current_Directory>
/home/itssahil/PROJECTS/Mol_Feturizer/New_Systems/rnas/1nem

>  <Rbt.Executable>
rbdock ($Id: //depot/dev/client3/rdock/2013.1/src/exe/rbdock.cxx#4 $)

>  <Rbt.Library>
libRbt.so (2013.1, Build901 2013/11/27)

>  <Rbt.Parameter_File>
/export/apps/rDock/src/rDock_2013.1_src/data/scripts/dock_solv.prm

>  <Rbt.Receptor>
prm/blind_docking_40.prm

>  <SCORE>
3.25016

>  <SCORE.INTER>
-28.1675

>  <SCORE.INTER.CONST>
1

>  <SCORE.INTER.POLAR>
-6.064

>  <SCORE.INTER.ROT>
9

>  <SCORE.INTER.SOLV>
45.8081

>  <SCORE.INTER.VDW>
-23.4343

>  <SCORE.INTER.norm>
-0.670655

>  <SCORE.INTRA>
29.2359

>  <SCORE.INTRA.DIHEDRAL>
22.7661

>  <SCORE.INTRA.DIHEDRAL.0>
22.4324

>  <SCORE.INTRA.POLAR>
0.284046

>  <SCORE.INTRA.POLAR.0>
-1.83749

>  <SCORE.INTRA.REPUL>
0

>  <SCORE.INTRA.REPUL.0>
0

>  <SCORE.INTRA.SOLV>
1.42399

>  <SCORE.INTRA.SOLV.lig_0>
-160.638

>  <SCORE.INTRA.VDW>
16.1751

>  <SCORE.INTRA.VDW.0>
-7.61953

>  <SCORE.INTRA.norm>
0.696094

>  <SCORE.RESTR>
2.18174

>  <SCORE.RESTR.CAVITY>
2.18174

>  <SCORE.RESTR.norm>
0.0519462

>  <SCORE.SYSTEM>
0

>  <SCORE.SYSTEM.CONST>
0

>  <SCORE.SYSTEM.DIHEDRAL>
0

>  <SCORE.SYSTEM.SOLV>
0

>  <SCORE.SYSTEM.norm>
0

>  <SCORE.heavy>
42

>  <SCORE.norm>
0.0773849

>  <RMSD>
4.423

$$$$
1NEM.B
 OpenBabel11021811403D
libRbt.so/2013.1/901 2013/11/27
 42 45  0  0  0  0  0  0  0  0999 V2000
   -1.9423   -5.9518    1.4601 O   0  0  0  0  0  0  0  0  0  0  0  0
   -0.7132   -5.3567    1.0391 C   0  0  0  0  0  0  0  0  0  0  0  0
   -0.8907   -3.9421    0.4894 C   0  0  1  0  0  0  0  0  0  0  0  0
   -2.0755   -3.8523   -0.2965 O   0  0  0  0  0  0  0  0  0  0  0  0
   -1.0960   -2.8709    1.5487 C   0  0  1  0  0  0  0  0  0  0  0  0
    0.1601   -2.6731    2.2016 O   0  0  0  0  0  0  0  0  0  0  0  0
   -1.5792   -1.7437    0.6556 C   0  0  1  0  0  0  0  0  0  0  0  0
   -0.5357   -1.2307   -0.1794 O   0  0  0  0  0  0  0  0  0  0  0  0
   -2.5933   -2.5263   -0.1869 C   0  0  2  0  0  0  0  0  0  0  0  0
    1.0764   -1.8467    1.5423 C   0  0  2  0  0  0  0  0  0  0  0  0
    2.3069   -2.6726    1.1434 C   0  0  2  0  0  0  0  0  0  0  0  0
    2.8537   -3.3799    2.3312 N   0  3  0  0  0  0  0  0  0  0  0  0
    3.3643   -1.7878    0.4750 C   0  0  1  0  0  0  0  0  0  0  0  0
    2.9095   -1.3889   -0.8113 O   0  0  0  0  0  0  0  0  0  0  0  0
    3.6626   -0.5470    1.3222 C   0  0  2  0  0  0  0  0  0  0  0  0
    4.3303   -0.9170    2.5220 O   0  0  0  0  0  0  0  0  0  0  0  0
    2.3591    0.1743    1.6529 C   0  0  1  0  0  0  0  0  0  0  0  0
    1.4633   -0.7284    2.3302 O   0  0  0  0  0  0  0  0  0  0  0  0
    2.5562    1.3917    2.5390 C   0  0  0  0  0  0  0  0  0  0  0  0
    2.6425    2.6408    1.7503 N   0  3  0  0  0  0  0  0  0  0  0  0
   -7.0158   -6.0816    4.4417 C   0  0  0  0  0  0  0  0  0  0  0  0
   -5.6789   -3.8523    1.8016 C   0  0  2  0  0  0  0  0  0  0  0  0
   -6.4179   -4.3760    0.5725 C   0  0  2  0  0  0  0  0  0  0  0  0
   -6.4019   -3.3605   -0.5073 N   0  3  0  0  0  0  0  0  0  0  0  0
   -7.8602   -4.7094    0.9299 C   0  0  1  0  0  0  0  0  0  0  0  0
   -8.5138   -5.2673   -0.1998 O   0  0  0  0  0  0  0  0  0  0  0  0
   -7.8828   -5.6997    2.0921 C   0  0  2  0  0  0  0  0  0  0  0  0
   -9.2259   -5.9629    2.4773 O   0  0  0  0  0  0  0  0  0  0  0  0
   -6.1344   -5.5574    5.5100 N   0  3  0  0  0  0  0  0  0  0  0  0
   -7.1132   -5.1145    3.2747 C   0  0  2  0  0  0  0  0  0  0  0  0
   -5.7672   -4.7846    2.8760 O   0  0  0  0  0  0  0  0  0  0  0  0
   -4.3378    1.0357    0.9414 C   0  0  2  0  0  0  0  0  0  0  0  0
   -3.3767    2.1606    0.8757 N   0  3  0  0  0  0  0  0  0  0  0  0
   -4.9541    0.9576    2.3336 C   0  0  0  0  0  0  0  0  0  0  0  0
   -5.9432   -0.1965    2.4166 C   0  0  2  0  0  0  0  0  0  0  0  0
   -6.4947   -0.2152    3.7641 N   0  3  0  0  0  0  0  0  0  0  0  0
   -5.2327   -1.5106    2.1008 C   0  0  1  0  0  0  0  0  0  0  0  0
   -6.1813   -2.5939    2.1537 O   0  0  0  0  0  0  0  0  0  0  0  0
   -4.5914   -1.4614    0.7070 C   0  0  2  0  0  0  0  0  0  0  0  0
   -3.8436   -2.6719    0.4831 O   0  0  0  0  0  0  0  0  0  0  0  0
   -3.6427   -0.2732    0.5703 C   0  0  1  0  0  0  0  0  0  0  0  0
   -3.1699   -0.1953   -0.7680 O   0  0  0  0  0  0  0  0  0  0  0  0
  1  2  1  0  0  0  0
  3  2  1  1  0  0  0
  3  5  1  0  0  0  0
  3  4  1  0  0  0  0
  4  9  1  0  0  0  0
  5  7  1  0  0  0  0
  5  6  1  6  0  0  0
  7  9  1  0  0  0  0
  7  8  1  6  0  0  0
  9 40  1  1  0  0  0
 10  6  1  1  0  0  0
 10 11  1  0  0  0  0
 10 18  1  0  0  0  0
 11 13  1  0  0  0  0
 11 12  1  1  0  0  0
 13 15  1  0  0  0  0
 13 14  1  6  0  0  0
 15 17  1  0  0  0  0
 15 16  1  1  0  0  0
 17 19  1  1  0  0  0
 17 18  1  0  0  0  0
 19 20  1  0  0  0  0
 21 29  1  0  0  0  0
 22 23  1  0  0  0  0
 22 31  1  0  0  0  0
 22 38  1  1  0  0  0
 23 25  1  0  0  0  0
 23 24  1  6  0  0  0
 25 27  1  0  0  0  0
 25 26  1  6  0  0  0
 27 30  1  0  0  0  0
 27 28  1  1  0  0  0
 30 21  1  1  0  0  0
 30 31  1  0  0  0  0
 32 34  1  0  0  0  0
 32 41  1  0  0  0  0
 32 33  1  1  0  0  0
 34 35  1  0  0  0  0
 35 37  1  0  0  0  0
 35 36  1  1  0  0  0
 37 39  1  0  0  0  0
 37 38  1  6  0  0  0
 39 41  1  0  0  0  0
 39 40  1  1  0  0  0
 41 42  1  6  0  0  0
M  CHG  6  12   1  20   1  24   1  29   1  33   1  36   1
M  END
>  <CHROM.1>
-58.09996102,-39.41939336,81.13664895,-115.57495237,-94.91332848,-179.22737881
110.76288502,172.06349234,60.58296401,95.81688710,-171.15746405,173.31817294
-155.95857632,-118.22240326,177.17231929,-179.01260607,-174.72805093,162.46988036
65.35673568,176.20938906,-140.15913607,78.85877953,-2.64232290,-2.35165634
1.49387249,-2.77224802,0.04129710,-0.10342316

>  <Name>
1NEM.B

>  <RI>
0

>  <Rbt.Current_Directory>
/home/itssahil/PROJECTS/Mol_Feturizer/New_Systems/rnas/1nem

>  <Rbt.Executable>
rbdock ($Id: //depot/dev/client3/rdock/2013.1/src/exe/rbdock.cxx#4 $)

>  <Rbt.Library>
libRbt.so (2013.1, Build901 2013/11/27)

>  <Rbt.Parameter_File>
/export/apps/rDock/src/rDock_2013.1_src/data/scripts/dock_solv.prm

>  <Rbt.Receptor>
prm/blind_docking_20.prm

>  <SCORE>
17.1108

>  <SCORE.INTER>
-19.2944

>  <SCORE.INTER.CONST>
1

>  <SCORE.INTER.POLAR>
-5.96676

>  <SCORE.INTER.ROT>
9

>  <SCORE.INTER.SOLV>
44.6797

>  <SCORE.INTER.VDW>
-17.467

>  <SCORE.INTER.norm>
-0.459391

>  <SCORE.INTRA>
33.0525

>  <SCORE.INTRA.DIHEDRAL>
16.637

>  <SCORE.INTRA.DIHEDRAL.0>
22.4324

>  <SCORE.INTRA.POLAR>
1.19778

>  <SCORE.INTRA.POLAR.0>
-1.83749

>  <SCORE.INTRA.REPUL>
0.0589209

>  <SCORE.INTRA.REPUL.0>
0

>  <SCORE.INTRA.SOLV>
-4.02208

>  <SCORE.INTRA.SOLV.lig_0>
-160.638

>  <SCORE.INTRA.VDW>
22.378

>  <SCORE.INTRA.VDW.0>
-7.61953

>  <SCORE.INTRA.norm>
0.786965

>  <SCORE.RESTR>
3.35267

>  <SCORE.RESTR.CAVITY>
3.35267

>  <SCORE.RESTR.norm>
0.0798254

>  <SCORE.SYSTEM>
0

>  <SCORE.SYSTEM.CONST>
0

>  <SCORE.SYSTEM.DIHEDRAL>
0

>  <SCORE.SYSTEM.SOLV>
0

>  <SCORE.SYSTEM.norm>
0

>  <SCORE.heavy>
42

>  <SCORE.norm>
0.407399

>  <RMSD>
4.472

$$$$
1NEM.B
 OpenBabel11021811403D
libRbt.so/2013.1/901 2013/11/27
 42 45  0  0  0  0  0  0  0  0999 V2000
    2.2043   -4.8521    3.0703 O   0  0  0  0  0  0  0  0  0  0  0  0
    2.5023   -4.4142    1.7431 C   0  0  0  0  0  0  0  0  0  0  0  0
    1.4839   -3.4124    1.2008 C   0  0  1  0  0  0  0  0  0  0  0  0
    0.1553   -3.8432    1.4812 O   0  0  0  0  0  0  0  0  0  0  0  0
    1.5443   -2.0357    1.8431 C   0  0  1  0  0  0  0  0  0  0  0  0
    2.7278   -1.3943    1.3624 O   0  0  0  0  0  0  0  0  0  0  0  0
    0.2236   -1.4820    1.3419 C   0  0  1  0  0  0  0  0  0  0  0  0
    0.2449   -1.2250   -0.0662 O   0  0  0  0  0  0  0  0  0  0  0  0
   -0.6706   -2.6901    1.6448 C   0  0  2  0  0  0  0  0  0  0  0  0
    3.2954   -0.4322    2.2047 C   0  0  2  0  0  0  0  0  0  0  0  0
    4.0819   -1.1359    3.3190 C   0  0  2  0  0  0  0  0  0  0  0  0
    3.2145   -2.1278    4.0075 N   0  3  0  0  0  0  0  0  0  0  0  0
    4.6660   -0.1160    4.3019 C   0  0  1  0  0  0  0  0  0  0  0  0
    5.7198    0.6026    3.6746 O   0  0  0  0  0  0  0  0  0  0  0  0
    3.5923    0.8639    4.7850 C   0  0  2  0  0  0  0  0  0  0  0  0
    2.6478    0.1942    5.6106 O   0  0  0  0  0  0  0  0  0  0  0  0
    2.8856    1.4845    3.5831 C   0  0  1  0  0  0  0  0  0  0  0  0
    2.3234    0.4439    2.7602 O   0  0  0  0  0  0  0  0  0  0  0  0
    1.7645    2.4324    3.9711 C   0  0  0  0  0  0  0  0  0  0  0  0
    1.3781    2.2791    5.3913 N   0  3  0  0  0  0  0  0  0  0  0  0
   -6.1709   -0.6055    2.9302 C   0  0  0  0  0  0  0  0  0  0  0  0
   -4.3367   -2.5467    0.3622 C   0  0  2  0  0  0  0  0  0  0  0  0
   -4.2267   -1.5183   -0.7609 C   0  0  2  0  0  0  0  0  0  0  0  0
   -3.1456   -1.8989   -1.7011 N   0  3  0  0  0  0  0  0  0  0  0  0
   -3.9311   -0.1404   -0.1836 C   0  0  1  0  0  0  0  0  0  0  0  0
   -3.9083    0.8189   -1.2294 O   0  0  0  0  0  0  0  0  0  0  0  0
   -5.0026    0.2248    0.8412 C   0  0  2  0  0  0  0  0  0  0  0  0
   -4.6961    1.4796    1.4353 O   0  0  0  0  0  0  0  0  0  0  0  0
   -5.8682    0.5602    3.7918 N   0  3  0  0  0  0  0  0  0  0  0  0
   -5.0642   -0.8546    1.9202 C   0  0  2  0  0  0  0  0  0  0  0  0
   -5.3114   -2.1423    1.3200 O   0  0  0  0  0  0  0  0  0  0  0  0
   -3.8439   -4.7010    4.6366 C   0  0  2  0  0  0  0  0  0  0  0  0
   -3.8081   -5.7175    5.7131 N   0  3  0  0  0  0  0  0  0  0  0  0
   -4.3922   -5.3184    3.3550 C   0  0  0  0  0  0  0  0  0  0  0  0
   -4.4327   -4.2848    2.2382 C   0  0  2  0  0  0  0  0  0  0  0  0
   -4.9646   -4.9343    1.0485 N   0  3  0  0  0  0  0  0  0  0  0  0
   -3.0276   -3.7449    1.9817 C   0  0  1  0  0  0  0  0  0  0  0  0
   -3.0789   -2.7473    0.9433 O   0  0  0  0  0  0  0  0  0  0  0  0
   -2.4416   -3.1241    3.2574 C   0  0  2  0  0  0  0  0  0  0  0  0
   -1.0813   -2.7203    3.0100 O   0  0  0  0  0  0  0  0  0  0  0  0
   -2.4491   -4.1177    4.4165 C   0  0  1  0  0  0  0  0  0  0  0  0
   -2.0160   -3.4657    5.6030 O   0  0  0  0  0  0  0  0  0  0  0  0
  1  2  1  0  0  0  0
  3  2  1  1  0  0  0
  3  5  1  0  0  0  0
  3  4  1  0  0  0  0
  4  9  1  0  0  0  0
  5  7  1  0  0  0  0
  5  6  1  6  0  0  0
  7  9  1  0  0  0  0
  7  8  1  6  0  0  0
  9 40  1  1  0  0  0
 10  6  1  1  0  0  0
 10 11  1  0  0  0  0
 10 18  1  0  0  0  0
 11 13  1  0  0  0  0
 11 12  1  1  0  0  0
 13 15  1  0  0  0  0
 13 14  1  6  0  0  0
 15 17  1  0  0  0  0
 15 16  1  1  0  0  0
 17 19  1  1  0  0  0
 17 18  1  0  0  0  0
 19 20  1  0  0  0  0
 21 29  1  0  0  0  0
 22 23  1  0  0  0  0
 22 31  1  0  0  0  0
 22 38  1  1  0  0  0
 23 25  1  0  0  0  0
 23 24  1  6  0  0  0
 25 27  1  0  0  0  0
 25 26  1  6  0  0  0
 27 30  1  0  0  0  0
 27 28  1  1  0  0  0
 30 21  1  1  0  0  0
 30 31  1  0  0  0  0
 32 34  1  0  0  0  0
 32 41  1  0  0  0  0
 32 33  1  1  0  0  0
 34 35  1  0  0  0  0
 35 37  1  0  0  0  0
 35 36  1  6  0  0  0
 37 39  1  0  0  0  0
 37 38  1  6  0  0  0
 39 41  1  0  0  0  0
 39 40  1  6  0  0  0
 41 42  1  1  0  0  0
M  CHG  6  12   1  20   1  24   1  29   1  33   1  36   1
M  END
>  <CHROM.1>
88.57505861,-45.02545266,-152.80703044,78.32346438,88.66134597,-105.04634549
77.68622034,76.38713610,86.76005513,-14.76319231,72.06211356,-69.97733004
32.47594223,-177.24068399,84.12089481,-59.69018451,147.31698065,-178.73657536
-106.48927600,-3.32650571,13.26167687,-23.85576020,-0.98249989,-1.71100134
2.45065274,-0.15549397,0.29408032,2.83335831

>  <Name>
1NEM.B

>  <RI>
0

>  <Rbt.Current_Directory>
/home/itssahil/PROJECTS/Mol_Feturizer/New_Systems/rnas/1nem

>  <Rbt.Executable>
rbdock ($Id: //depot/dev/client3/rdock/2013.1/src/exe/rbdock.cxx#4 $)

>  <Rbt.Library>
libRbt.so (2013.1, Build901 2013/11/27)

>  <Rbt.Parameter_File>
/export/apps/rDock/src/rDock_2013.1_src/data/scripts/dock_solv.prm

>  <Rbt.Receptor>
prm/blind_docking_80.prm

>  <SCORE>
14.7131

>  <SCORE.INTER>
-32.1886

>  <SCORE.INTER.CONST>
1

>  <SCORE.INTER.POLAR>
-6.8055

>  <SCORE.INTER.ROT>
9

>  <SCORE.INTER.SOLV>
64.7313

>  <SCORE.INTER.VDW>
-29.9512

>  <SCORE.INTER.norm>
-0.766395

>  <SCORE.INTRA>
44.5082

>  <SCORE.INTRA.DIHEDRAL>
34.4549

>  <SCORE.INTRA.DIHEDRAL.0>
22.4324

>  <SCORE.INTRA.POLAR>
0.00135313

>  <SCORE.INTRA.POLAR.0>
-1.83749

>  <SCORE.INTRA.REPUL>
0.0144251

>  <SCORE.INTRA.REPUL.0>
0

>  <SCORE.INTRA.SOLV>
5.15878

>  <SCORE.INTRA.SOLV.lig_0>
-160.638

>  <SCORE.INTRA.VDW>
24.6247

>  <SCORE.INTRA.VDW.0>
-7.61953

>  <SCORE.INTRA.norm>
1.05972

>  <SCORE.RESTR>
2.39347

>  <SCORE.RESTR.CAVITY>
2.39347

>  <SCORE.RESTR.norm>
0.0569874

>  <SCORE.SYSTEM>
0

>  <SCORE.SYSTEM.CONST>
0

>  <SCORE.SYSTEM.DIHEDRAL>
0

>  <SCORE.SYSTEM.SOLV>
0

>  <SCORE.SYSTEM.norm>
0

>  <SCORE.heavy>
42

>  <SCORE.norm>
0.350312

>  <RMSD>
4.503

$$$$
1NEM.B
 OpenBabel11021811403D
libRbt.so/2013.1/901 2013/11/27
 42 45  0  0  0  0  0  0  0  0999 V2000
    3.9805    2.0407    1.8881 O   0  0  0  0  0  0  0  0  0  0  0  0
    3.2331    0.8321    2.0393 C   0  0  0  0  0  0  0  0  0  0  0  0
    2.5472    0.3873    0.7484 C   0  0  1  0  0  0  0  0  0  0  0  0
    1.4836   -0.5178    1.0294 O   0  0  0  0  0  0  0  0  0  0  0  0
    1.8580    1.5031   -0.0208 C   0  0  1  0  0  0  0  0  0  0  0  0
    2.8819    2.3090   -0.6086 O   0  0  0  0  0  0  0  0  0  0  0  0
    1.0312    0.6594   -0.9728 C   0  0  1  0  0  0  0  0  0  0  0  0
    1.8410   -0.0052   -1.9484 O   0  0  0  0  0  0  0  0  0  0  0  0
    0.4747   -0.3561    0.0321 C   0  0  2  0  0  0  0  0  0  0  0  0
    2.4745    3.1863   -1.6193 C   0  0  2  0  0  0  0  0  0  0  0  0
    3.6609    4.0677   -2.0329 C   0  0  2  0  0  0  0  0  0  0  0  0
    4.2463    4.7294   -0.8372 N   0  3  0  0  0  0  0  0  0  0  0  0
    3.2380    5.0884   -3.0944 C   0  0  1  0  0  0  0  0  0  0  0  0
    2.9873    4.4221   -4.3247 O   0  0  0  0  0  0  0  0  0  0  0  0
    1.9835    5.8518   -2.6586 C   0  0  2  0  0  0  0  0  0  0  0  0
    2.2806    6.7035   -1.5593 O   0  0  0  0  0  0  0  0  0  0  0  0
    0.8895    4.8617   -2.2694 C   0  0  1  0  0  0  0  0  0  0  0  0
    1.3709    3.9917   -1.2265 O   0  0  0  0  0  0  0  0  0  0  0  0
   -0.3775    5.5342   -1.7709 C   0  0  0  0  0  0  0  0  0  0  0  0
   -0.6802    5.1719   -0.3684 N   0  3  0  0  0  0  0  0  0  0  0  0
   -4.1353   -3.3593    4.2961 C   0  0  0  0  0  0  0  0  0  0  0  0
   -1.5858   -2.5804    1.7231 C   0  0  2  0  0  0  0  0  0  0  0  0
   -1.0036   -3.9665    1.4569 C   0  0  2  0  0  0  0  0  0  0  0  0
   -0.2998   -3.9856    0.1524 N   0  3  0  0  0  0  0  0  0  0  0  0
   -2.1139   -5.0087    1.4462 C   0  0  1  0  0  0  0  0  0  0  0  0
   -1.5521   -6.3009    1.2755 O   0  0  0  0  0  0  0  0  0  0  0  0
   -2.8896   -4.9424    2.7599 C   0  0  2  0  0  0  0  0  0  0  0  0
   -3.9711   -5.8649    2.7302 O   0  0  0  0  0  0  0  0  0  0  0  0
   -5.2739   -4.2969    4.4272 N   0  3  0  0  0  0  0  0  0  0  0  0
   -3.4257   -3.5267    2.9638 C   0  0  2  0  0  0  0  0  0  0  0  0
   -2.3415   -2.5764    2.9314 O   0  0  0  0  0  0  0  0  0  0  0  0
   -3.8639    1.5969   -0.6251 C   0  0  2  0  0  0  0  0  0  0  0  0
   -4.4134    2.9710   -0.5660 N   0  3  0  0  0  0  0  0  0  0  0  0
   -4.8041    0.6289    0.0841 C   0  0  0  0  0  0  0  0  0  0  0  0
   -4.2505   -0.7883    0.0332 C   0  0  2  0  0  0  0  0  0  0  0  0
   -5.1913   -1.6596    0.7231 N   0  3  0  0  0  0  0  0  0  0  0  0
   -2.8779   -0.8318    0.7008 C   0  0  1  0  0  0  0  0  0  0  0  0
   -2.3488   -2.1698    0.6234 O   0  0  0  0  0  0  0  0  0  0  0  0
   -1.9081    0.1410    0.0156 C   0  0  2  0  0  0  0  0  0  0  0  0
   -0.6587    0.1527    0.7320 O   0  0  0  0  0  0  0  0  0  0  0  0
   -2.4663    1.5617   -0.0088 C   0  0  1  0  0  0  0  0  0  0  0  0
   -1.5971    2.4001   -0.7584 O   0  0  0  0  0  0  0  0  0  0  0  0
  1  2  1  0  0  0  0
  3  2  1  1  0  0  0
  3  5  1  0  0  0  0
  3  4  1  0  0  0  0
  4  9  1  0  0  0  0
  5  7  1  0  0  0  0
  5  6  1  6  0  0  0
  7  9  1  0  0  0  0
  7  8  1  6  0  0  0
  9 40  1  1  0  0  0
 10  6  1  1  0  0  0
 10 11  1  0  0  0  0
 10 18  1  0  0  0  0
 11 13  1  0  0  0  0
 11 12  1  1  0  0  0
 13 15  1  0  0  0  0
 13 14  1  6  0  0  0
 15 17  1  0  0  0  0
 15 16  1  1  0  0  0
 17 19  1  1  0  0  0
 17 18  1  0  0  0  0
 19 20  1  0  0  0  0
 21 29  1  0  0  0  0
 22 23  1  0  0  0  0
 22 31  1  0  0  0  0
 22 38  1  6  0  0  0
 23 25  1  0  0  0  0
 23 24  1  6  0  0  0
 25 27  1  0  0  0  0
 25 26  1  1  0  0  0
 27 30  1  0  0  0  0
 27 28  1  6  0  0  0
 30 21  1  1  0  0  0
 30 31  1  0  0  0  0
 32 34  1  0  0  0  0
 32 41  1  0  0  0  0
 32 33  1  1  0  0  0
 34 35  1  0  0  0  0
 35 37  1  0  0  0  0
 35 36  1  1  0  0  0
 37 39  1  0  0  0  0
 37 38  1  6  0  0  0
 39 41  1  0  0  0  0
 39 40  1  1  0  0  0
 41 42  1  6  0  0  0
M  CHG  6  12   1  20   1  24   1  29   1  33   1  36   1
M  END
>  <CHROM.1>
-31.89451381,-160.28316591,164.76038588,174.22982326,-61.60948082,-167.25085511
118.23180427,-64.17163621,54.48834143,-117.98322840,-163.52589335,-58.73608168
-78.04685978,-175.60463148,131.68641575,-62.85794019,-62.34010954,21.73852182
172.58092278,-145.13082988,114.32929806,46.94088584,-0.50888831,0.43402666
0.18430876,-1.02064419,-0.05787002,2.73816245

>  <Name>
1NEM.B

>  <RI>
0

>  <Rbt.Current_Directory>
/home/itssahil/PROJECTS/Mol_Feturizer/New_Systems/rnas/1nem

>  <Rbt.Executable>
rbdock ($Id: //depot/dev/client3/rdock/2013.1/src/exe/rbdock.cxx#4 $)

>  <Rbt.Library>
libRbt.so (2013.1, Build901 2013/11/27)

>  <Rbt.Parameter_File>
/export/apps/rDock/src/rDock_2013.1_src/data/scripts/dock_solv.prm

>  <Rbt.Receptor>
prm/pocket_docking_8.prm

>  <SCORE>
-37.8947

>  <SCORE.INTER>
-52.8321

>  <SCORE.INTER.CONST>
1

>  <SCORE.INTER.POLAR>
-9.10263

>  <SCORE.INTER.ROT>
9

>  <SCORE.INTER.SOLV>
38.6656

>  <SCORE.INTER.VDW>
-27.3678

>  <SCORE.INTER.norm>
-1.25791

>  <SCORE.INTRA>
14.627

>  <SCORE.INTRA.DIHEDRAL>
13.8682

>  <SCORE.INTRA.DIHEDRAL.0>
22.4324

>  <SCORE.INTRA.POLAR>
0.328565

>  <SCORE.INTRA.POLAR.0>
-1.83749

>  <SCORE.INTRA.REPUL>
0.00589978

>  <SCORE.INTRA.REPUL.0>
0

>  <SCORE.INTRA.SOLV>
3.86576

>  <SCORE.INTRA.SOLV.lig_0>
-160.638

>  <SCORE.INTRA.VDW>
4.61344

>  <SCORE.INTRA.VDW.0>
-7.61953

>  <SCORE.INTRA.norm>
0.348262

>  <SCORE.RESTR>
0.310367

>  <SCORE.RESTR.CAVITY>
0.310367

>  <SCORE.RESTR.norm>
0.00738968

>  <SCORE.SYSTEM>
0

>  <SCORE.SYSTEM.CONST>
0

>  <SCORE.SYSTEM.DIHEDRAL>
0

>  <SCORE.SYSTEM.SOLV>
0

>  <SCORE.SYSTEM.norm>
0

>  <SCORE.heavy>
42

>  <SCORE.norm>
-0.902255

>  <RMSD>
4.531

$$$$
1NEM.B
 OpenBabel11021811403D
libRbt.so/2013.1/901 2013/11/27
 42 45  0  0  0  0  0  0  0  0999 V2000
    2.1944   -4.7444    2.9948 O   0  0  0  0  0  0  0  0  0  0  0  0
    2.3320   -4.4242    1.6090 C   0  0  0  0  0  0  0  0  0  0  0  0
    1.3249   -3.3779    1.1338 C   0  0  1  0  0  0  0  0  0  0  0  0
   -0.0048   -3.7777    1.4524 O   0  0  0  0  0  0  0  0  0  0  0  0
    1.4506   -2.0227    1.8115 C   0  0  1  0  0  0  0  0  0  0  0  0
    2.6343   -1.4023    1.3042 O   0  0  0  0  0  0  0  0  0  0  0  0
    0.1295   -1.4165    1.3764 C   0  0  1  0  0  0  0  0  0  0  0  0
    0.1063   -1.1195   -0.0238 O   0  0  0  0  0  0  0  0  0  0  0  0
   -0.7889   -2.6063    1.6793 C   0  0  2  0  0  0  0  0  0  0  0  0
    3.2463   -0.4618    2.1398 C   0  0  2  0  0  0  0  0  0  0  0  0
    4.0038   -1.1936    3.2560 C   0  0  2  0  0  0  0  0  0  0  0  0
    3.0953   -2.1424    3.9522 N   0  3  0  0  0  0  0  0  0  0  0  0
    4.6352   -0.1953    4.2318 C   0  0  1  0  0  0  0  0  0  0  0  0
    5.7181    0.4725    3.5978 O   0  0  0  0  0  0  0  0  0  0  0  0
    3.6073    0.8338    4.7121 C   0  0  2  0  0  0  0  0  0  0  0  0
    2.6364    0.2111    5.5438 O   0  0  0  0  0  0  0  0  0  0  0  0
    2.9255    1.4786    3.5087 C   0  0  1  0  0  0  0  0  0  0  0  0
    2.3155    0.4595    2.6929 O   0  0  0  0  0  0  0  0  0  0  0  0
    1.8485    2.4773    3.8942 C   0  0  0  0  0  0  0  0  0  0  0  0
    1.5058    2.3928    5.3313 N   0  3  0  0  0  0  0  0  0  0  0  0
   -5.7309   -0.2938    3.5775 C   0  0  0  0  0  0  0  0  0  0  0  0
   -4.5344   -2.3055    0.7054 C   0  0  2  0  0  0  0  0  0  0  0  0
   -4.4925   -1.2493   -0.3963 C   0  0  2  0  0  0  0  0  0  0  0  0
   -3.6173   -1.6988   -1.5051 N   0  3  0  0  0  0  0  0  0  0  0  0
   -3.9668    0.0677    0.1590 C   0  0  1  0  0  0  0  0  0  0  0  0
   -4.0058    1.0609   -0.8541 O   0  0  0  0  0  0  0  0  0  0  0  0
   -4.8210    0.4976    1.3495 C   0  0  2  0  0  0  0  0  0  0  0  0
   -4.2950    1.6905    1.9168 O   0  0  0  0  0  0  0  0  0  0  0  0
   -5.8532   -1.4487    4.4963 N   0  3  0  0  0  0  0  0  0  0  0  0
   -4.8276   -0.6124    2.3988 C   0  0  2  0  0  0  0  0  0  0  0  0
   -5.2998   -1.8437    1.8153 O   0  0  0  0  0  0  0  0  0  0  0  0
   -3.8178   -4.7319    4.7323 C   0  0  2  0  0  0  0  0  0  0  0  0
   -3.7251   -5.7806    5.7740 N   0  3  0  0  0  0  0  0  0  0  0  0
   -4.4105   -5.3169    3.4554 C   0  0  0  0  0  0  0  0  0  0  0  0
   -4.5098   -4.2499    2.3742 C   0  0  2  0  0  0  0  0  0  0  0  0
   -5.0821   -4.8695    1.1873 N   0  3  0  0  0  0  0  0  0  0  0  0
   -3.1233   -3.6831    2.0778 C   0  0  1  0  0  0  0  0  0  0  0  0
   -3.2297   -2.6546    1.0742 O   0  0  0  0  0  0  0  0  0  0  0  0
   -2.4931   -3.0940    3.3475 C   0  0  2  0  0  0  0  0  0  0  0  0
   -1.1493   -2.6641    3.0577 O   0  0  0  0  0  0  0  0  0  0  0  0
   -2.4406   -4.1229    4.4741 C   0  0  1  0  0  0  0  0  0  0  0  0
   -1.9672   -3.5020    5.6619 O   0  0  0  0  0  0  0  0  0  0  0  0
  1  2  1  0  0  0  0
  3  2  1  1  0  0  0
  3  5  1  0  0  0  0
  3  4  1  0  0  0  0
  4  9  1  0  0  0  0
  5  7  1  0  0  0  0
  5  6  1  6  0  0  0
  7  9  1  0  0  0  0
  7  8  1  6  0  0  0
  9 40  1  1  0  0  0
 10  6  1  1  0  0  0
 10 11  1  0  0  0  0
 10 18  1  0  0  0  0
 11 13  1  0  0  0  0
 11 12  1  1  0  0  0
 13 15  1  0  0  0  0
 13 14  1  6  0  0  0
 15 17  1  0  0  0  0
 15 16  1  1  0  0  0
 17 19  1  1  0  0  0
 17 18  1  0  0  0  0
 19 20  1  0  0  0  0
 21 29  1  0  0  0  0
 22 23  1  0  0  0  0
 22 31  1  0  0  0  0
 22 38  1  1  0  0  0
 23 25  1  0  0  0  0
 23 24  1  6  0  0  0
 25 27  1  0  0  0  0
 25 26  1  6  0  0  0
 27 30  1  0  0  0  0
 27 28  1  1  0  0  0
 30 21  1  1  0  0  0
 30 31  1  0  0  0  0
 32 34  1  0  0  0  0
 32 41  1  0  0  0  0
 32 33  1  1  0  0  0
 34 35  1  0  0  0  0
 35 37  1  0  0  0  0
 35 36  1  6  0  0  0
 37 39  1  0  0  0  0
 37 38  1  6  0  0  0
 39 41  1  0  0  0  0
 39 40  1  6  0  0  0
 41 42  1  1  0  0  0
M  CHG  6  12   1  20   1  24   1  29   1  33   1  36   1
M  END
>  <CHROM.1>
80.24534339,-53.83049890,-154.06913361,76.19861204,-145.92474125,-102.31279171
-155.59825553,-37.37790693,83.36996379,-12.02962684,-160.45736889,172.92797947
-99.44853062,-177.87433917,-48.72625082,27.30553942,-52.99142612,109.04296934
11.45011278,6.41835437,12.30517905,79.43627687,-1.01009360,-1.69906257,2.56907152
-0.17938223,0.26239764,2.77446545

>  <Name>
1NEM.B

>  <RI>
0

>  <Rbt.Current_Directory>
/home/itssahil/PROJECTS/Mol_Feturizer/New_Systems/rnas/1nem

>  <Rbt.Executable>
rbdock ($Id: //depot/dev/client3/rdock/2013.1/src/exe/rbdock.cxx#4 $)

>  <Rbt.Library>
libRbt.so (2013.1, Build901 2013/11/27)

>  <Rbt.Parameter_File>
/export/apps/rDock/src/rDock_2013.1_src/data/scripts/dock_solv.prm

>  <Rbt.Receptor>
prm/blind_docking_80.prm

>  <SCORE>
-19.8748

>  <SCORE.INTER>
-60.9529

>  <SCORE.INTER.CONST>
1

>  <SCORE.INTER.POLAR>
-9.71322

>  <SCORE.INTER.ROT>
9

>  <SCORE.INTER.SOLV>
56.895

>  <SCORE.INTER.VDW>
-36.8229

>  <SCORE.INTER.norm>
-1.45126

>  <SCORE.INTRA>
38.7888

>  <SCORE.INTRA.DIHEDRAL>
34.566

>  <SCORE.INTRA.DIHEDRAL.0>
22.4324

>  <SCORE.INTRA.POLAR>
0.0639713

>  <SCORE.INTRA.POLAR.0>
-1.83749

>  <SCORE.INTRA.REPUL>
0

>  <SCORE.INTRA.REPUL.0>
0

>  <SCORE.INTRA.SOLV>
5.03149

>  <SCORE.INTRA.SOLV.lig_0>
-160.638

>  <SCORE.INTRA.VDW>
18.7726

>  <SCORE.INTRA.VDW.0>
-7.61953

>  <SCORE.INTRA.norm>
0.923544

>  <SCORE.RESTR>
2.2893

>  <SCORE.RESTR.CAVITY>
2.2893

>  <SCORE.RESTR.norm>
0.0545071

>  <SCORE.SYSTEM>
0

>  <SCORE.SYSTEM.CONST>
0

>  <SCORE.SYSTEM.DIHEDRAL>
0

>  <SCORE.SYSTEM.SOLV>
0

>  <SCORE.SYSTEM.norm>
0

>  <SCORE.heavy>
42

>  <SCORE.norm>
-0.473209

>  <RMSD>
4.543

$$$$
1NEM.B
 OpenBabel11021811403D
libRbt.so/2013.1/901 2013/11/27
 42 45  0  0  0  0  0  0  0  0999 V2000
    6.2734    0.2274   -0.4895 O   0  0  0  0  0  0  0  0  0  0  0  0
    5.1131   -0.0386   -1.2801 C   0  0  0  0  0  0  0  0  0  0  0  0
    3.8384    0.5670   -0.6946 C   0  0  1  0  0  0  0  0  0  0  0  0
    2.7020    0.1940   -1.4686 O   0  0  0  0  0  0  0  0  0  0  0  0
    3.4843    0.0745    0.6996 C   0  0  1  0  0  0  0  0  0  0  0  0
    4.4181    0.6632    1.6078 O   0  0  0  0  0  0  0  0  0  0  0  0
    2.0562    0.5813    0.7746 C   0  0  1  0  0  0  0  0  0  0  0  0
    1.9935    2.0084    0.8688 O   0  0  0  0  0  0  0  0  0  0  0  0
    1.5682    0.1210   -0.6041 C   0  0  2  0  0  0  0  0  0  0  0  0
    4.0189    0.7319    2.9469 C   0  0  2  0  0  0  0  0  0  0  0  0
    3.6165    2.1746    3.2816 C   0  0  2  0  0  0  0  0  0  0  0  0
    4.7128    3.1087    2.9133 N   0  3  0  0  0  0  0  0  0  0  0  0
    3.2342    2.3052    4.7595 C   0  0  1  0  0  0  0  0  0  0  0  0
    1.9970    1.6453    4.9930 O   0  0  0  0  0  0  0  0  0  0  0  0
    4.3148    1.7064    5.6652 C   0  0  2  0  0  0  0  0  0  0  0  0
    5.4956    2.4971    5.6144 O   0  0  0  0  0  0  0  0  0  0  0  0
    4.6241    0.2796    5.2209 C   0  0  1  0  0  0  0  0  0  0  0  0
    5.0295    0.2789    3.8383 O   0  0  0  0  0  0  0  0  0  0  0  0
    5.7276   -0.3749    6.0332 C   0  0  0  0  0  0  0  0  0  0  0  0
    7.0512    0.2233    5.7497 N   0  3  0  0  0  0  0  0  0  0  0  0
   -5.0170   -2.7201    0.3281 C   0  0  0  0  0  0  0  0  0  0  0  0
   -2.0474   -0.5835   -0.2579 C   0  0  2  0  0  0  0  0  0  0  0  0
   -2.6626    0.8100   -0.1544 C   0  0  2  0  0  0  0  0  0  0  0  0
   -1.6078    1.8187    0.1047 N   0  3  0  0  0  0  0  0  0  0  0  0
   -3.6859    0.8494    0.9727 C   0  0  1  0  0  0  0  0  0  0  0  0
   -4.3059    2.1257    1.0084 O   0  0  0  0  0  0  0  0  0  0  0  0
   -4.7345   -0.2380    0.7492 C   0  0  2  0  0  0  0  0  0  0  0  0
   -5.6544   -0.2532    1.8332 O   0  0  0  0  0  0  0  0  0  0  0  0
   -5.5558   -2.6065   -1.0466 N   0  3  0  0  0  0  0  0  0  0  0  0
   -4.0443   -1.5963    0.6404 C   0  0  2  0  0  0  0  0  0  0  0  0
   -3.0630   -1.5707   -0.4161 O   0  0  0  0  0  0  0  0  0  0  0  0
    1.4211   -3.9138    2.0555 C   0  0  2  0  0  0  0  0  0  0  0  0
    2.1395   -5.2087    2.0767 N   0  3  0  0  0  0  0  0  0  0  0  0
   -0.0788   -4.1476    2.1968 C   0  0  0  0  0  0  0  0  0  0  0  0
   -0.8308   -2.8243    2.1744 C   0  0  2  0  0  0  0  0  0  0  0  0
   -2.2505   -3.1158    2.3143 N   0  3  0  0  0  0  0  0  0  0  0  0
   -0.5517   -2.0927    0.8636 C   0  0  1  0  0  0  0  0  0  0  0  0
   -1.2442   -0.8291    0.8622 O   0  0  0  0  0  0  0  0  0  0  0  0
    0.9535   -1.8500    0.6853 C   0  0  2  0  0  0  0  0  0  0  0  0
    1.1911   -1.2542   -0.6043 O   0  0  0  0  0  0  0  0  0  0  0  0
    1.7434   -3.1537    0.7700 C   0  0  1  0  0  0  0  0  0  0  0  0
    3.1352   -2.8688    0.7247 O   0  0  0  0  0  0  0  0  0  0  0  0
  1  2  1  0  0  0  0
  3  2  1  6  0  0  0
  3  5  1  0  0  0  0
  3  4  1  0  0  0  0
  4  9  1  0  0  0  0
  5  7  1  0  0  0  0
  5  6  1  1  0  0  0
  7  9  1  0  0  0  0
  7  8  1  6  0  0  0
  9 40  1  1  0  0  0
 10  6  1  6  0  0  0
 10 11  1  0  0  0  0
 10 18  1  0  0  0  0
 11 13  1  0  0  0  0
 11 12  1  1  0  0  0
 13 15  1  0  0  0  0
 13 14  1  6  0  0  0
 15 17  1  0  0  0  0
 15 16  1  6  0  0  0
 17 19  1  1  0  0  0
 17 18  1  0  0  0  0
 19 20  1  0  0  0  0
 21 29  1  0  0  0  0
 22 23  1  0  0  0  0
 22 31  1  0  0  0  0
 22 38  1  1  0  0  0
 23 25  1  0  0  0  0
 23 24  1  1  0  0  0
 25 27  1  0  0  0  0
 25 26  1  6  0  0  0
 27 30  1  0  0  0  0
 27 28  1  1  0  0  0
 30 21  1  6  0  0  0
 30 31  1  0  0  0  0
 32 34  1  0  0  0  0
 32 41  1  0  0  0  0
 32 33  1  6  0  0  0
 34 35  1  0  0  0  0
 35 37  1  0  0  0  0
 35 36  1  6  0  0  0
 37 39  1  0  0  0  0
 37 38  1  1  0  0  0
 39 41  1  0  0  0  0
 39 40  1  6  0  0  0
 41 42  1  1  0  0  0
M  CHG  6  12   1  20   1  24   1  29   1  33   1  36   1
M  END
>  <CHROM.1>
48.67270828,-175.92909807,158.50164509,-104.26211003,56.37282247,132.01096458
148.03152318,-174.63207456,-85.29280458,-70.24551154,-163.78130144,69.04882305
-62.58018469,-177.34319343,54.62724045,161.56387448,67.57257287,-154.26574238
-72.05247164,-127.88739847,108.26639829,170.84411520,1.07439779,-0.36442213
1.63289968,-0.36797229,0.17242325,-2.58461033

>  <Name>
1NEM.B

>  <RI>
0

>  <Rbt.Current_Directory>
/home/itssahil/PROJECTS/Mol_Feturizer/New_Systems/rnas/1nem

>  <Rbt.Executable>
rbdock ($Id: //depot/dev/client3/rdock/2013.1/src/exe/rbdock.cxx#4 $)

>  <Rbt.Library>
libRbt.so (2013.1, Build901 2013/11/27)

>  <Rbt.Parameter_File>
/export/apps/rDock/src/rDock_2013.1_src/data/scripts/dock_solv.prm

>  <Rbt.Receptor>
prm/pocket_docking_2.prm

>  <SCORE>
-24.9509

>  <SCORE.INTER>
-50.1246

>  <SCORE.INTER.CONST>
1

>  <SCORE.INTER.POLAR>
-7.49987

>  <SCORE.INTER.ROT>
9

>  <SCORE.INTER.SOLV>
39.465

>  <SCORE.INTER.VDW>
-31.1719

>  <SCORE.INTER.norm>
-1.19344

>  <SCORE.INTRA>
19.975

>  <SCORE.INTRA.DIHEDRAL>
17.1116

>  <SCORE.INTRA.DIHEDRAL.0>
22.4324

>  <SCORE.INTRA.POLAR>
0.982295

>  <SCORE.INTRA.POLAR.0>
-1.83749

>  <SCORE.INTRA.REPUL>
0

>  <SCORE.INTRA.REPUL.0>
0

>  <SCORE.INTRA.SOLV>
2.73604

>  <SCORE.INTRA.SOLV.lig_0>
-160.638

>  <SCORE.INTRA.VDW>
6.71139

>  <SCORE.INTRA.VDW.0>
-7.61953

>  <SCORE.INTRA.norm>
0.475596

>  <SCORE.RESTR>
5.19873

>  <SCORE.RESTR.CAVITY>
5.19873

>  <SCORE.RESTR.norm>
0.123779

>  <SCORE.SYSTEM>
0

>  <SCORE.SYSTEM.CONST>
0

>  <SCORE.SYSTEM.DIHEDRAL>
0

>  <SCORE.SYSTEM.SOLV>
0

>  <SCORE.SYSTEM.norm>
0

>  <SCORE.heavy>
42

>  <SCORE.norm>
-0.594069

>  <RMSD>
4.547

$$$$
1NEM.B
 OpenBabel11021811403D
libRbt.so/2013.1/901 2013/11/27
 42 45  0  0  0  0  0  0  0  0999 V2000
   -1.3684   -5.9535    1.7375 O   0  0  0  0  0  0  0  0  0  0  0  0
   -0.2532   -5.2423    1.1966 C   0  0  0  0  0  0  0  0  0  0  0  0
   -0.6350   -3.8796    0.6204 C   0  0  1  0  0  0  0  0  0  0  0  0
   -1.8126   -3.9812   -0.1749 O   0  0  0  0  0  0  0  0  0  0  0  0
   -1.0079   -2.8336    1.6589 C   0  0  1  0  0  0  0  0  0  0  0  0
    0.1985   -2.4391    2.3165 O   0  0  0  0  0  0  0  0  0  0  0  0
   -1.6458   -1.8064    0.7424 C   0  0  1  0  0  0  0  0  0  0  0  0
   -0.6830   -1.1572   -0.0947 O   0  0  0  0  0  0  0  0  0  0  0  0
   -2.5237   -2.7459   -0.0926 C   0  0  2  0  0  0  0  0  0  0  0  0
    1.1105   -1.7071    1.5487 C   0  0  2  0  0  0  0  0  0  0  0  0
    2.3229   -2.5904    1.2245 C   0  0  2  0  0  0  0  0  0  0  0  0
    2.8858   -3.1634    2.4756 N   0  3  0  0  0  0  0  0  0  0  0  0
    3.3764   -1.8034    0.4383 C   0  0  1  0  0  0  0  0  0  0  0  0
    2.9000   -1.5493   -0.8766 O   0  0  0  0  0  0  0  0  0  0  0  0
    3.7064   -0.4773    1.1304 C   0  0  2  0  0  0  0  0  0  0  0  0
    4.3943   -0.7155    2.3520 O   0  0  0  0  0  0  0  0  0  0  0  0
    2.4183    0.2953    1.4003 C   0  0  1  0  0  0  0  0  0  0  0  0
    1.5263   -0.5107    2.1944 O   0  0  0  0  0  0  0  0  0  0  0  0
    2.6476    1.6039    2.1357 C   0  0  0  0  0  0  0  0  0  0  0  0
    2.8713    1.3923    3.5832 N   0  3  0  0  0  0  0  0  0  0  0  0
   -5.7008   -7.0039    4.2374 C   0  0  0  0  0  0  0  0  0  0  0  0
   -5.5322   -4.1717    1.8548 C   0  0  2  0  0  0  0  0  0  0  0  0
   -6.7942   -4.4071    1.0283 C   0  0  2  0  0  0  0  0  0  0  0  0
   -7.1859   -3.1630    0.3239 N   0  3  0  0  0  0  0  0  0  0  0  0
   -7.9358   -4.8568    1.9302 C   0  0  1  0  0  0  0  0  0  0  0  0
   -9.0797   -5.1468    1.1415 O   0  0  0  0  0  0  0  0  0  0  0  0
   -7.5101   -6.0963    2.7140 C   0  0  2  0  0  0  0  0  0  0  0  0
   -8.5451   -6.4817    3.6093 O   0  0  0  0  0  0  0  0  0  0  0  0
   -6.2076   -8.2646    3.6485 N   0  3  0  0  0  0  0  0  0  0  0  0
   -6.2370   -5.7892    3.5002 C   0  0  2  0  0  0  0  0  0  0  0  0
   -5.1997   -5.3357    2.6068 O   0  0  0  0  0  0  0  0  0  0  0  0
   -4.9168    0.5150    0.4996 C   0  0  2  0  0  0  0  0  0  0  0  0
   -4.2418    1.7505    0.0398 N   0  3  0  0  0  0  0  0  0  0  0  0
   -5.2418    0.6209    1.9853 C   0  0  0  0  0  0  0  0  0  0  0  0
   -5.9345   -0.6440    2.4726 C   0  0  2  0  0  0  0  0  0  0  0  0
   -6.2178   -0.4790    3.8913 N   0  3  0  0  0  0  0  0  0  0  0  0
   -5.0322   -1.8525    2.2345 C   0  0  1  0  0  0  0  0  0  0  0  0
   -5.7063   -3.0485    2.6723 O   0  0  0  0  0  0  0  0  0  0  0  0
   -4.6773   -1.9823    0.7467 C   0  0  2  0  0  0  0  0  0  0  0  0
   -3.7443   -3.0656    0.5716 O   0  0  0  0  0  0  0  0  0  0  0  0
   -4.0403   -0.7026    0.2108 C   0  0  1  0  0  0  0  0  0  0  0  0
   -3.8434   -0.8221   -1.1919 O   0  0  0  0  0  0  0  0  0  0  0  0
  1  2  1  0  0  0  0
  3  2  1  1  0  0  0
  3  5  1  0  0  0  0
  3  4  1  0  0  0  0
  4  9  1  0  0  0  0
  5  7  1  0  0  0  0
  5  6  1  6  0  0  0
  7  9  1  0  0  0  0
  7  8  1  6  0  0  0
  9 40  1  1  0  0  0
 10  6  1  1  0  0  0
 10 11  1  0  0  0  0
 10 18  1  0  0  0  0
 11 13  1  0  0  0  0
 11 12  1  1  0  0  0
 13 15  1  0  0  0  0
 13 14  1  6  0  0  0
 15 17  1  0  0  0  0
 15 16  1  1  0  0  0
 17 19  1  1  0  0  0
 17 18  1  0  0  0  0
 19 20  1  0  0  0  0
 21 29  1  0  0  0  0
 22 23  1  0  0  0  0
 22 31  1  0  0  0  0
 22 38  1  1  0  0  0
 23 25  1  0  0  0  0
 23 24  1  1  0  0  0
 25 27  1  0  0  0  0
 25 26  1  6  0  0  0
 27 30  1  0  0  0  0
 27 28  1  1  0  0  0
 30 21  1  6  0  0  0
 30 31  1  0  0  0  0
 32 34  1  0  0  0  0
 32 41  1  0  0  0  0
 32 33  1  1  0  0  0
 34 35  1  0  0  0  0
 35 37  1  0  0  0  0
 35 36  1  1  0  0  0
 37 39  1  0  0  0  0
 37 38  1  6  0  0  0
 39 41  1  0  0  0  0
 39 40  1  1  0  0  0
 41 42  1  6  0  0  0
M  CHG  6  12   1  20   1  24   1  29   1  33   1  36   1
M  END
>  <CHROM.1>
63.57924276,-45.09275401,69.06180223,-108.23385979,60.13451520,-178.11936987
-152.12864803,-66.86089065,53.05258256,-78.19947802,-60.27367384,21.06565143
48.26883896,-103.96741821,-163.11988890,169.09895463,-49.00224842,116.95681177
55.25292998,140.43720019,-124.88162795,130.53400227,-2.59301218,-2.62526078
1.58795479,-2.73824038,-0.00292837,-0.22577248

>  <Name>
1NEM.B

>  <RI>
0

>  <Rbt.Current_Directory>
/home/itssahil/PROJECTS/Mol_Feturizer/New_Systems/rnas/1nem

>  <Rbt.Executable>
rbdock ($Id: //depot/dev/client3/rdock/2013.1/src/exe/rbdock.cxx#4 $)

>  <Rbt.Library>
libRbt.so (2013.1, Build901 2013/11/27)

>  <Rbt.Parameter_File>
/export/apps/rDock/src/rDock_2013.1_src/data/scripts/dock_solv.prm

>  <Rbt.Receptor>
prm/blind_docking_60.prm

>  <SCORE>
13.5061

>  <SCORE.INTER>
-26.8823

>  <SCORE.INTER.CONST>
1

>  <SCORE.INTER.POLAR>
-5.45996

>  <SCORE.INTER.ROT>
9

>  <SCORE.INTER.SOLV>
47.8765

>  <SCORE.INTER.VDW>
-25.2805

>  <SCORE.INTER.norm>
-0.640055

>  <SCORE.INTRA>
39.0968

>  <SCORE.INTRA.DIHEDRAL>
23.9585

>  <SCORE.INTRA.DIHEDRAL.0>
22.4324

>  <SCORE.INTRA.POLAR>
1.06665

>  <SCORE.INTRA.POLAR.0>
-1.83749

>  <SCORE.INTRA.REPUL>
0

>  <SCORE.INTRA.REPUL.0>
0

>  <SCORE.INTRA.SOLV>
2.14901

>  <SCORE.INTRA.SOLV.lig_0>
-160.638

>  <SCORE.INTRA.VDW>
22.4165

>  <SCORE.INTRA.VDW.0>
-7.61953

>  <SCORE.INTRA.norm>
0.930876

>  <SCORE.RESTR>
1.2916

>  <SCORE.RESTR.CAVITY>
1.2916

>  <SCORE.RESTR.norm>
0.0307524

>  <SCORE.SYSTEM>
0

>  <SCORE.SYSTEM.CONST>
0

>  <SCORE.SYSTEM.DIHEDRAL>
0

>  <SCORE.SYSTEM.SOLV>
0

>  <SCORE.SYSTEM.norm>
0

>  <SCORE.heavy>
42

>  <SCORE.norm>
0.321574

>  <RMSD>
4.583

$$$$
1NEM.B
 OpenBabel11021811403D
libRbt.so/2013.1/901 2013/11/27
 42 45  0  0  0  0  0  0  0  0999 V2000
   -0.5151   -6.2832    1.1747 O   0  0  0  0  0  0  0  0  0  0  0  0
    0.2726   -5.1163    1.4195 C   0  0  0  0  0  0  0  0  0  0  0  0
   -0.3187   -3.8534    0.7949 C   0  0  1  0  0  0  0  0  0  0  0  0
   -1.4641   -4.1692    0.0088 O   0  0  0  0  0  0  0  0  0  0  0  0
   -0.8539   -2.8415    1.7954 C   0  0  1  0  0  0  0  0  0  0  0  0
    0.2738   -2.2373    2.4329 O   0  0  0  0  0  0  0  0  0  0  0  0
   -1.6445   -1.9627    0.8442 C   0  0  1  0  0  0  0  0  0  0  0  0
   -0.7949   -1.2013   -0.0204 O   0  0  0  0  0  0  0  0  0  0  0  0
   -2.3616   -3.0595    0.0483 C   0  0  2  0  0  0  0  0  0  0  0  0
    1.1331   -1.5056    1.6061 C   0  0  2  0  0  0  0  0  0  0  0  0
    2.2489   -2.4267    1.0943 C   0  0  2  0  0  0  0  0  0  0  0  0
    2.9164   -3.1036    2.2373 N   0  3  0  0  0  0  0  0  0  0  0  0
    3.2495   -1.6463    0.2358 C   0  0  1  0  0  0  0  0  0  0  0  0
    2.6424   -1.2878   -0.9985 O   0  0  0  0  0  0  0  0  0  0  0  0
    3.7306   -0.3838    0.9576 C   0  0  2  0  0  0  0  0  0  0  0  0
    4.5378   -0.7313    2.0756 O   0  0  0  0  0  0  0  0  0  0  0  0
    2.5274    0.4341    1.4183 C   0  0  1  0  0  0  0  0  0  0  0  0
    1.6868   -0.3739    2.2647 O   0  0  0  0  0  0  0  0  0  0  0  0
    2.9125    1.6816    2.1939 C   0  0  0  0  0  0  0  0  0  0  0  0
    2.8378    1.4679    3.6563 N   0  3  0  0  0  0  0  0  0  0  0  0
   -8.3081   -5.1315    1.3314 C   0  0  0  0  0  0  0  0  0  0  0  0
   -6.1830   -3.4080    3.8295 C   0  0  2  0  0  0  0  0  0  0  0  0
   -6.2192   -4.4056    4.9847 C   0  0  2  0  0  0  0  0  0  0  0  0
   -5.0858   -4.1622    5.9086 N   0  3  0  0  0  0  0  0  0  0  0  0
   -6.1381   -5.8296    4.4511 C   0  0  1  0  0  0  0  0  0  0  0  0
   -6.2508   -6.7483    5.5271 O   0  0  0  0  0  0  0  0  0  0  0  0
   -7.2606   -6.0619    3.4421 C   0  0  2  0  0  0  0  0  0  0  0  0
   -7.1504   -7.3665    2.8877 O   0  0  0  0  0  0  0  0  0  0  0  0
   -9.6086   -5.3294    2.0115 N   0  3  0  0  0  0  0  0  0  0  0  0
   -7.1685   -5.0198    2.3291 C   0  0  2  0  0  0  0  0  0  0  0  0
   -7.2151   -3.6914    2.8884 O   0  0  0  0  0  0  0  0  0  0  0  0
   -5.2693   -0.2169    0.4672 C   0  0  2  0  0  0  0  0  0  0  0  0
   -4.9402    0.9969   -0.3151 N   0  3  0  0  0  0  0  0  0  0  0  0
   -5.2554    0.1041    1.9574 C   0  0  0  0  0  0  0  0  0  0  0  0
   -5.5900   -1.1359    2.7747 C   0  0  2  0  0  0  0  0  0  0  0  0
   -5.5617   -0.7634    4.1820 N   0  3  0  0  0  0  0  0  0  0  0  0
   -4.5742   -2.2378    2.4825 C   0  0  1  0  0  0  0  0  0  0  0  0
   -4.9141   -3.4167    3.2381 O   0  0  0  0  0  0  0  0  0  0  0  0
   -4.5558   -2.5785    0.9859 C   0  0  2  0  0  0  0  0  0  0  0  0
   -3.5175   -3.5431    0.7290 O   0  0  0  0  0  0  0  0  0  0  0  0
   -4.2884   -1.3399    0.1343 C   0  0  1  0  0  0  0  0  0  0  0  0
   -4.4034   -1.6766   -1.2419 O   0  0  0  0  0  0  0  0  0  0  0  0
  1  2  1  0  0  0  0
  3  2  1  1  0  0  0
  3  5  1  0  0  0  0
  3  4  1  0  0  0  0
  4  9  1  0  0  0  0
  5  7  1  0  0  0  0
  5  6  1  6  0  0  0
  7  9  1  0  0  0  0
  7  8  1  6  0  0  0
  9 40  1  1  0  0  0
 10  6  1  1  0  0  0
 10 11  1  0  0  0  0
 10 18  1  0  0  0  0
 11 13  1  0  0  0  0
 11 12  1  1  0  0  0
 13 15  1  0  0  0  0
 13 14  1  6  0  0  0
 15 17  1  0  0  0  0
 15 16  1  1  0  0  0
 17 19  1  1  0  0  0
 17 18  1  0  0  0  0
 19 20  1  0  0  0  0
 21 29  1  0  0  0  0
 22 23  1  0  0  0  0
 22 31  1  0  0  0  0
 22 38  1  6  0  0  0
 23 25  1  0  0  0  0
 23 24  1  1  0  0  0
 25 27  1  0  0  0  0
 25 26  1  1  0  0  0
 27 30  1  0  0  0  0
 27 28  1  6  0  0  0
 30 21  1  6  0  0  0
 30 31  1  0  0  0  0
 32 34  1  0  0  0  0
 32 41  1  0  0  0  0
 32 33  1  6  0  0  0
 34 35  1  0  0  0  0
 35 37  1  0  0  0  0
 35 36  1  1  0  0  0
 37 39  1  0  0  0  0
 37 38  1  1  0  0  0
 39 41  1  0  0  0  0
 39 40  1  1  0  0  0
 41 42  1  6  0  0  0
M  CHG  6  12   1  20   1  24   1  29   1  33   1  36   1
M  END
>  <CHROM.1>
149.35958144,-5.24839859,63.03339918,-91.71683107,-179.76402178,175.88711055
73.53136414,70.33978752,-177.56318166,-97.64679139,-157.41338294,43.86713097
132.85585537,-158.71624697,-43.54881033,65.54793683,70.81182783,-48.83301290
-81.40645928,12.28620671,-107.42142902,83.47389296,-2.52519185,-2.66746201
1.93035974,-0.40728088,-0.02550635,2.76891065

>  <Name>
1NEM.B

>  <RI>
0

>  <Rbt.Current_Directory>
/home/itssahil/PROJECTS/Mol_Feturizer/New_Systems/rnas/1nem

>  <Rbt.Executable>
rbdock ($Id: //depot/dev/client3/rdock/2013.1/src/exe/rbdock.cxx#4 $)

>  <Rbt.Library>
libRbt.so (2013.1, Build901 2013/11/27)

>  <Rbt.Parameter_File>
/export/apps/rDock/src/rDock_2013.1_src/data/scripts/dock_solv.prm

>  <Rbt.Receptor>
prm/blind_docking_100.prm

>  <SCORE>
6.55571

>  <SCORE.INTER>
-28.4377

>  <SCORE.INTER.CONST>
1

>  <SCORE.INTER.POLAR>
-6.60415

>  <SCORE.INTER.ROT>
9

>  <SCORE.INTER.SOLV>
43.0729

>  <SCORE.INTER.VDW>
-20.9022

>  <SCORE.INTER.norm>
-0.677087

>  <SCORE.INTRA>
33.8864

>  <SCORE.INTRA.DIHEDRAL>
21.1988

>  <SCORE.INTRA.DIHEDRAL.0>
22.4324

>  <SCORE.INTRA.POLAR>
1.46318

>  <SCORE.INTRA.POLAR.0>
-1.83749

>  <SCORE.INTRA.REPUL>
0.0066578

>  <SCORE.INTRA.REPUL.0>
0

>  <SCORE.INTRA.SOLV>
1.17867

>  <SCORE.INTRA.SOLV.lig_0>
-160.638

>  <SCORE.INTRA.VDW>
17.6896

>  <SCORE.INTRA.VDW.0>
-7.61953

>  <SCORE.INTRA.norm>
0.80682

>  <SCORE.RESTR>
1.10694

>  <SCORE.RESTR.CAVITY>
1.10694

>  <SCORE.RESTR.norm>
0.0263558

>  <SCORE.SYSTEM>
0

>  <SCORE.SYSTEM.CONST>
0

>  <SCORE.SYSTEM.DIHEDRAL>
0

>  <SCORE.SYSTEM.SOLV>
0

>  <SCORE.SYSTEM.norm>
0

>  <SCORE.heavy>
42

>  <SCORE.norm>
0.156088

>  <RMSD>
4.602

$$$$
1NEM.B
 OpenBabel11021811403D
libRbt.so/2013.1/901 2013/11/27
 42 45  0  0  0  0  0  0  0  0999 V2000
   -1.9264    1.1406    0.6913 O   0  0  0  0  0  0  0  0  0  0  0  0
   -1.2170   -0.0042    0.2135 C   0  0  0  0  0  0  0  0  0  0  0  0
   -0.8168   -0.9686    1.3291 C   0  0  1  0  0  0  0  0  0  0  0  0
   -1.9160   -1.2133    2.2017 O   0  0  0  0  0  0  0  0  0  0  0  0
   -0.4334   -2.3618    0.8563 C   0  0  1  0  0  0  0  0  0  0  0  0
    0.8414   -2.2578    0.2180 O   0  0  0  0  0  0  0  0  0  0  0  0
   -0.4649   -3.0824    2.1910 C   0  0  1  0  0  0  0  0  0  0  0  0
    0.6109   -2.6825    3.0466 O   0  0  0  0  0  0  0  0  0  0  0  0
   -1.7948   -2.5364    2.7242 C   0  0  2  0  0  0  0  0  0  0  0  0
    1.5576   -1.0797    0.4553 C   0  0  2  0  0  0  0  0  0  0  0  0
    2.6215   -0.9055   -0.6370 C   0  0  2  0  0  0  0  0  0  0  0  0
    3.4585   -2.1303   -0.7341 N   0  3  0  0  0  0  0  0  0  0  0  0
    3.4719    0.3420   -0.3760 C   0  0  1  0  0  0  0  0  0  0  0  0
    2.6921    1.5082   -0.6054 O   0  0  0  0  0  0  0  0  0  0  0  0
    4.0072    0.3559    1.0591 C   0  0  2  0  0  0  0  0  0  0  0  0
    4.9689   -0.6763    1.2375 O   0  0  0  0  0  0  0  0  0  0  0  0
    2.8529    0.1672    2.0394 C   0  0  1  0  0  0  0  0  0  0  0  0
    2.1602   -1.0609    1.7428 O   0  0  0  0  0  0  0  0  0  0  0  0
    3.3009    0.1141    3.4894 C   0  0  0  0  0  0  0  0  0  0  0  0
    3.9575   -1.1708    3.8180 N   0  3  0  0  0  0  0  0  0  0  0  0
   -5.9438   -4.9725    0.8628 C   0  0  0  0  0  0  0  0  0  0  0  0
   -6.2145   -2.8405    3.8807 C   0  0  2  0  0  0  0  0  0  0  0  0
   -6.4560   -3.8908    4.9621 C   0  0  2  0  0  0  0  0  0  0  0  0
   -6.1390   -3.3336    6.2987 N   0  3  0  0  0  0  0  0  0  0  0  0
   -5.5875   -5.1155    4.7074 C   0  0  1  0  0  0  0  0  0  0  0  0
   -5.8776   -6.1141    5.6734 O   0  0  0  0  0  0  0  0  0  0  0  0
   -5.8569   -5.6497    3.3024 C   0  0  2  0  0  0  0  0  0  0  0  0
   -5.0000   -6.7514    3.0312 O   0  0  0  0  0  0  0  0  0  0  0  0
   -7.4032   -4.9384    0.6134 N   0  3  0  0  0  0  0  0  0  0  0  0
   -5.6102   -4.5416    2.2804 C   0  0  2  0  0  0  0  0  0  0  0  0
   -6.4292   -3.3945    2.5853 O   0  0  0  0  0  0  0  0  0  0  0  0
   -4.7017   -0.6708    0.1061 C   0  0  2  0  0  0  0  0  0  0  0  0
   -4.2406    0.1385   -1.0453 N   0  3  0  0  0  0  0  0  0  0  0  0
   -5.0984    0.2433    1.2599 C   0  0  0  0  0  0  0  0  0  0  0  0
   -5.5728   -0.5756    2.4523 C   0  0  2  0  0  0  0  0  0  0  0  0
   -5.9364    0.3520    3.5141 N   0  3  0  0  0  0  0  0  0  0  0  0
   -4.4607   -1.5169    2.9087 C   0  0  1  0  0  0  0  0  0  0  0  0
   -4.9271   -2.3081    4.0191 O   0  0  0  0  0  0  0  0  0  0  0  0
   -4.0302   -2.4461    1.7652 C   0  0  2  0  0  0  0  0  0  0  0  0
   -2.9128   -3.2464    2.1958 O   0  0  0  0  0  0  0  0  0  0  0  0
   -3.6114   -1.6538    0.5293 C   0  0  1  0  0  0  0  0  0  0  0  0
   -3.3414   -2.5505   -0.5401 O   0  0  0  0  0  0  0  0  0  0  0  0
  1  2  1  0  0  0  0
  3  2  1  6  0  0  0
  3  5  1  0  0  0  0
  3  4  1  0  0  0  0
  4  9  1  0  0  0  0
  5  7  1  0  0  0  0
  5  6  1  1  0  0  0
  7  9  1  0  0  0  0
  7  8  1  1  0  0  0
  9 40  1  6  0  0  0
 10  6  1  6  0  0  0
 10 11  1  0  0  0  0
 10 18  1  0  0  0  0
 11 13  1  0  0  0  0
 11 12  1  1  0  0  0
 13 15  1  0  0  0  0
 13 14  1  1  0  0  0
 15 17  1  0  0  0  0
 15 16  1  6  0  0  0
 17 19  1  1  0  0  0
 17 18  1  0  0  0  0
 19 20  1  0  0  0  0
 21 29  1  0  0  0  0
 22 23  1  0  0  0  0
 22 31  1  0  0  0  0
 22 38  1  6  0  0  0
 23 25  1  0  0  0  0
 23 24  1  1  0  0  0
 25 27  1  0  0  0  0
 25 26  1  1  0  0  0
 27 30  1  0  0  0  0
 27 28  1  6  0  0  0
 30 21  1  6  0  0  0
 30 31  1  0  0  0  0
 32 34  1  0  0  0  0
 32 41  1  0  0  0  0
 32 33  1  6  0  0  0
 34 35  1  0  0  0  0
 35 37  1  0  0  0  0
 35 36  1  1  0  0  0
 37 39  1  0  0  0  0
 37 38  1  1  0  0  0
 39 41  1  0  0  0  0
 39 40  1  1  0  0  0
 41 42  1  6  0  0  0
M  CHG  6  12   1  20   1  24   1  29   1  33   1  36   1
M  END
>  <CHROM.1>
-36.19453569,46.85713440,15.15757570,-160.55425805,-46.87131728,-21.67748015
162.64598461,179.14127521,66.36598034,-74.14929232,43.62953351,78.55664352
-79.95052850,167.48612161,-161.45055738,176.27061431,68.91176871,34.89153437
106.72696578,44.38825296,-53.43245610,98.24139682,-2.06267821,-2.01626991
1.91853803,0.42539563,-0.08293415,-0.78038765

>  <Name>
1NEM.B

>  <RI>
0

>  <Rbt.Current_Directory>
/home/itssahil/PROJECTS/Mol_Feturizer/New_Systems/rnas/1nem

>  <Rbt.Executable>
rbdock ($Id: //depot/dev/client3/rdock/2013.1/src/exe/rbdock.cxx#4 $)

>  <Rbt.Library>
libRbt.so (2013.1, Build901 2013/11/27)

>  <Rbt.Parameter_File>
/export/apps/rDock/src/rDock_2013.1_src/data/scripts/dock_solv.prm

>  <Rbt.Receptor>
prm/blind_docking_20.prm

>  <SCORE>
6.24365

>  <SCORE.INTER>
-24.9031

>  <SCORE.INTER.CONST>
1

>  <SCORE.INTER.POLAR>
-5.72159

>  <SCORE.INTER.ROT>
9

>  <SCORE.INTER.SOLV>
43.393

>  <SCORE.INTER.VDW>
-21.5945

>  <SCORE.INTER.norm>
-0.592931

>  <SCORE.INTRA>
23.6957

>  <SCORE.INTRA.DIHEDRAL>
11.7584

>  <SCORE.INTRA.DIHEDRAL.0>
22.4324

>  <SCORE.INTRA.POLAR>
-0.569846

>  <SCORE.INTRA.POLAR.0>
-1.83749

>  <SCORE.INTRA.REPUL>
0

>  <SCORE.INTRA.REPUL.0>
0

>  <SCORE.INTRA.SOLV>
1.92153

>  <SCORE.INTRA.SOLV.lig_0>
-160.638

>  <SCORE.INTRA.VDW>
18.7932

>  <SCORE.INTRA.VDW.0>
-7.61953

>  <SCORE.INTRA.norm>
0.564183

>  <SCORE.RESTR>
7.45109

>  <SCORE.RESTR.CAVITY>
7.45109

>  <SCORE.RESTR.norm>
0.177407

>  <SCORE.SYSTEM>
0

>  <SCORE.SYSTEM.CONST>
0

>  <SCORE.SYSTEM.DIHEDRAL>
0

>  <SCORE.SYSTEM.SOLV>
0

>  <SCORE.SYSTEM.norm>
0

>  <SCORE.heavy>
42

>  <SCORE.norm>
0.148658

>  <RMSD>
4.603

$$$$
1NEM.B
 OpenBabel11021811403D
libRbt.so/2013.1/901 2013/11/27
 42 45  0  0  0  0  0  0  0  0999 V2000
    2.9944   -3.5093    2.4904 O   0  0  0  0  0  0  0  0  0  0  0  0
    1.6924   -3.4997    3.0793 C   0  0  0  0  0  0  0  0  0  0  0  0
    0.5843   -3.8494    2.0870 C   0  0  1  0  0  0  0  0  0  0  0  0
   -0.5320   -4.4237    2.7605 O   0  0  0  0  0  0  0  0  0  0  0  0
   -0.0225   -2.6557    1.3670 C   0  0  1  0  0  0  0  0  0  0  0  0
    0.9467   -2.1902    0.4251 O   0  0  0  0  0  0  0  0  0  0  0  0
   -1.2560   -3.3270    0.7928 C   0  0  1  0  0  0  0  0  0  0  0  0
   -0.9316   -4.2516   -0.2508 O   0  0  0  0  0  0  0  0  0  0  0  0
   -1.7188   -4.0833    2.0436 C   0  0  2  0  0  0  0  0  0  0  0  0
    1.5664   -0.9726    0.7260 C   0  0  2  0  0  0  0  0  0  0  0  0
    2.5729   -0.6299   -0.3808 C   0  0  2  0  0  0  0  0  0  0  0  0
    3.5085   -1.7662   -0.5896 N   0  3  0  0  0  0  0  0  0  0  0  0
    3.3211    0.6669   -0.0551 C   0  0  1  0  0  0  0  0  0  0  0  0
    2.4363    1.7726   -0.1777 O   0  0  0  0  0  0  0  0  0  0  0  0
    3.9027    0.6287    1.3614 C   0  0  2  0  0  0  0  0  0  0  0  0
    4.9554   -0.3242    1.4377 O   0  0  0  0  0  0  0  0  0  0  0  0
    2.8037    0.2713    2.3581 C   0  0  1  0  0  0  0  0  0  0  0  0
    2.2095   -0.9897    1.9938 O   0  0  0  0  0  0  0  0  0  0  0  0
    3.3046    0.1579    3.7871 C   0  0  0  0  0  0  0  0  0  0  0  0
    3.5841    1.4840    4.3814 N   0  3  0  0  0  0  0  0  0  0  0  0
   -8.9190   -6.0220    2.8565 C   0  0  0  0  0  0  0  0  0  0  0  0
   -5.9830   -4.4575    4.4872 C   0  0  2  0  0  0  0  0  0  0  0  0
   -5.3943   -5.6491    5.2385 C   0  0  2  0  0  0  0  0  0  0  0  0
   -3.9769   -5.3876    5.5854 N   0  3  0  0  0  0  0  0  0  0  0  0
   -5.4802   -6.9046    4.3809 C   0  0  1  0  0  0  0  0  0  0  0  0
   -5.0017   -8.0187    5.1187 O   0  0  0  0  0  0  0  0  0  0  0  0
   -6.9293   -7.1370    3.9590 C   0  0  2  0  0  0  0  0  0  0  0  0
   -7.0079   -8.2681    3.1011 O   0  0  0  0  0  0  0  0  0  0  0  0
   -9.7777   -6.1422    4.0570 N   0  3  0  0  0  0  0  0  0  0  0  0
   -7.4520   -5.9005    3.2303 C   0  0  2  0  0  0  0  0  0  0  0  0
   -7.3170   -4.7359    4.0700 O   0  0  0  0  0  0  0  0  0  0  0  0
   -4.4565   -0.2979    1.6978 C   0  0  2  0  0  0  0  0  0  0  0  0
   -4.1020    1.1349    1.5763 N   0  3  0  0  0  0  0  0  0  0  0  0
   -5.6253   -0.4655    2.6622 C   0  0  0  0  0  0  0  0  0  0  0  0
   -5.9994   -1.9347    2.7987 C   0  0  2  0  0  0  0  0  0  0  0  0
   -7.1172   -2.0258    3.7274 N   0  3  0  0  0  0  0  0  0  0  0  0
   -4.7999   -2.7286    3.3108 C   0  0  1  0  0  0  0  0  0  0  0  0
   -5.1536   -4.1219    3.4104 O   0  0  0  0  0  0  0  0  0  0  0  0
   -3.6003   -2.5729    2.3659 C   0  0  2  0  0  0  0  0  0  0  0  0
   -2.4585   -3.2460    2.9296 O   0  0  0  0  0  0  0  0  0  0  0  0
   -3.2420   -1.1039    2.1556 C   0  0  1  0  0  0  0  0  0  0  0  0
   -2.2116   -1.0016    1.1818 O   0  0  0  0  0  0  0  0  0  0  0  0
  1  2  1  0  0  0  0
  3  2  1  1  0  0  0
  3  5  1  0  0  0  0
  3  4  1  0  0  0  0
  4  9  1  0  0  0  0
  5  7  1  0  0  0  0
  5  6  1  6  0  0  0
  7  9  1  0  0  0  0
  7  8  1  6  0  0  0
  9 40  1  1  0  0  0
 10  6  1  6  0  0  0
 10 11  1  0  0  0  0
 10 18  1  0  0  0  0
 11 13  1  0  0  0  0
 11 12  1  1  0  0  0
 13 15  1  0  0  0  0
 13 14  1  1  0  0  0
 15 17  1  0  0  0  0
 15 16  1  6  0  0  0
 17 19  1  1  0  0  0
 17 18  1  0  0  0  0
 19 20  1  0  0  0  0
 21 29  1  0  0  0  0
 22 23  1  0  0  0  0
 22 31  1  0  0  0  0
 22 38  1  6  0  0  0
 23 25  1  0  0  0  0
 23 24  1  6  0  0  0
 25 27  1  0  0  0  0
 25 26  1  1  0  0  0
 27 30  1  0  0  0  0
 27 28  1  6  0  0  0
 30 21  1  1  0  0  0
 30 31  1  0  0  0  0
 32 34  1  0  0  0  0
 32 41  1  0  0  0  0
 32 33  1  1  0  0  0
 34 35  1  0  0  0  0
 35 37  1  0  0  0  0
 35 36  1  1  0  0  0
 37 39  1  0  0  0  0
 37 38  1  6  0  0  0
 39 41  1  0  0  0  0
 39 40  1  1  0  0  0
 41 42  1  6  0  0  0
M  CHG  6  12   1  20   1  24   1  29   1  33   1  36   1
M  END
>  <CHROM.1>
177.18373495,153.10232677,-108.61085159,179.81482340,26.19380450,169.72311615
-70.44165107,55.24179831,68.97645515,74.28398778,-62.38901515,62.64794477
-59.78239485,-130.23678200,162.19291126,174.32674167,-62.07402616,-42.50153181
45.60861746,-74.59115328,133.43595834,65.87222384,-2.02163975,-2.82690731
2.47285152,-0.51283510,-0.12021565,2.89488261

>  <Name>
1NEM.B

>  <RI>
0

>  <Rbt.Current_Directory>
/home/itssahil/PROJECTS/Mol_Feturizer/New_Systems/rnas/1nem

>  <Rbt.Executable>
rbdock ($Id: //depot/dev/client3/rdock/2013.1/src/exe/rbdock.cxx#4 $)

>  <Rbt.Library>
libRbt.so (2013.1, Build901 2013/11/27)

>  <Rbt.Parameter_File>
/export/apps/rDock/src/rDock_2013.1_src/data/scripts/dock_solv.prm

>  <Rbt.Receptor>
prm/blind_docking_100.prm

>  <SCORE>
-27.7434

>  <SCORE.INTER>
-42.3946

>  <SCORE.INTER.CONST>
1

>  <SCORE.INTER.POLAR>
-6.14749

>  <SCORE.INTER.ROT>
9

>  <SCORE.INTER.SOLV>
38.0697

>  <SCORE.INTER.VDW>
-30.0613

>  <SCORE.INTER.norm>
-1.00939

>  <SCORE.INTRA>
10.0947

>  <SCORE.INTRA.DIHEDRAL>
8.80792

>  <SCORE.INTRA.DIHEDRAL.0>
22.4324

>  <SCORE.INTRA.POLAR>
0.265636

>  <SCORE.INTRA.POLAR.0>
-1.83749

>  <SCORE.INTRA.REPUL>
0

>  <SCORE.INTRA.REPUL.0>
0

>  <SCORE.INTRA.SOLV>
-1.15955

>  <SCORE.INTRA.SOLV.lig_0>
-160.638

>  <SCORE.INTRA.VDW>
5.36737

>  <SCORE.INTRA.VDW.0>
-7.61953

>  <SCORE.INTRA.norm>
0.24035

>  <SCORE.RESTR>
4.55646

>  <SCORE.RESTR.CAVITY>
4.55646

>  <SCORE.RESTR.norm>
0.108487

>  <SCORE.SYSTEM>
0

>  <SCORE.SYSTEM.CONST>
0

>  <SCORE.SYSTEM.DIHEDRAL>
0

>  <SCORE.SYSTEM.SOLV>
0

>  <SCORE.SYSTEM.norm>
0

>  <SCORE.heavy>
42

>  <SCORE.norm>
-0.660557

>  <RMSD>
4.622

$$$$
1NEM.B
 OpenBabel11021811403D
libRbt.so/2013.1/901 2013/11/27
 42 45  0  0  0  0  0  0  0  0999 V2000
    3.2497   -3.0465    3.5399 O   0  0  0  0  0  0  0  0  0  0  0  0
    2.3326   -2.1233    2.9494 C   0  0  0  0  0  0  0  0  0  0  0  0
    1.2097   -2.8094    2.1729 C   0  0  1  0  0  0  0  0  0  0  0  0
    0.1565   -3.1991    3.0494 O   0  0  0  0  0  0  0  0  0  0  0  0
    0.5055   -1.9221    1.1587 C   0  0  1  0  0  0  0  0  0  0  0  0
    1.4081   -1.7247    0.0680 O   0  0  0  0  0  0  0  0  0  0  0  0
   -0.7072   -2.7916    0.8845 C   0  0  1  0  0  0  0  0  0  0  0  0
   -0.3691   -3.9760    0.1550 O   0  0  0  0  0  0  0  0  0  0  0  0
   -1.0754   -3.1482    2.3295 C   0  0  2  0  0  0  0  0  0  0  0  0
    1.5914   -0.4028   -0.3515 C   0  0  2  0  0  0  0  0  0  0  0  0
    2.3324   -0.3964   -1.6954 C   0  0  2  0  0  0  0  0  0  0  0  0
    3.5837   -1.1927   -1.5920 N   0  3  0  0  0  0  0  0  0  0  0  0
    2.6106    1.0374   -2.1581 C   0  0  1  0  0  0  0  0  0  0  0  0
    1.3926    1.6586   -2.5471 O   0  0  0  0  0  0  0  0  0  0  0  0
    3.2740    1.8578   -1.0476 C   0  0  2  0  0  0  0  0  0  0  0  0
    4.5930    1.3851   -0.8051 O   0  0  0  0  0  0  0  0  0  0  0  0
    2.4431    1.7605    0.2287 C   0  0  1  0  0  0  0  0  0  0  0  0
    2.2940    0.3781    0.6064 O   0  0  0  0  0  0  0  0  0  0  0  0
    3.0579    2.5033    1.4019 C   0  0  0  0  0  0  0  0  0  0  0  0
    2.1372    2.5674    2.5586 N   0  3  0  0  0  0  0  0  0  0  0  0
   -7.5581   -5.9265    3.6295 C   0  0  0  0  0  0  0  0  0  0  0  0
   -5.3081   -3.2594    4.8749 C   0  0  2  0  0  0  0  0  0  0  0  0
   -4.6529   -3.9586    6.0635 C   0  0  2  0  0  0  0  0  0  0  0  0
   -3.3953   -3.2677    6.4359 N   0  3  0  0  0  0  0  0  0  0  0  0
   -4.3473   -5.4094    5.7156 C   0  0  1  0  0  0  0  0  0  0  0  0
   -3.8106   -6.0686    6.8523 O   0  0  0  0  0  0  0  0  0  0  0  0
   -5.6274   -6.1062    5.2599 C   0  0  2  0  0  0  0  0  0  0  0  0
   -5.3379   -7.4417    4.8673 O   0  0  0  0  0  0  0  0  0  0  0  0
   -8.0936   -5.2083    2.4504 N   0  3  0  0  0  0  0  0  0  0  0  0
   -6.2313   -5.3428    4.0828 C   0  0  2  0  0  0  0  0  0  0  0  0
   -6.4693   -3.9692    4.4521 O   0  0  0  0  0  0  0  0  0  0  0  0
   -4.2192    0.1560    1.1324 C   0  0  2  0  0  0  0  0  0  0  0  0
   -4.0483    1.5317    0.6112 N   0  3  0  0  0  0  0  0  0  0  0  0
   -5.3208    0.1311    2.1860 C   0  0  0  0  0  0  0  0  0  0  0  0
   -5.5062   -1.2774    2.7327 C   0  0  2  0  0  0  0  0  0  0  0  0
   -6.5680   -1.2333    3.7281 N   0  3  0  0  0  0  0  0  0  0  0  0
   -4.1996   -1.7683    3.3517 C   0  0  1  0  0  0  0  0  0  0  0  0
   -4.3755   -3.1121    3.8413 O   0  0  0  0  0  0  0  0  0  0  0  0
   -3.0652   -1.7462    2.3178 C   0  0  2  0  0  0  0  0  0  0  0  0
   -1.8287   -2.1137    2.9585 O   0  0  0  0  0  0  0  0  0  0  0  0
   -2.8983   -0.3596    1.7013 C   0  0  1  0  0  0  0  0  0  0  0  0
   -1.9262   -0.4147    0.6657 O   0  0  0  0  0  0  0  0  0  0  0  0
  1  2  1  0  0  0  0
  3  2  1  1  0  0  0
  3  5  1  0  0  0  0
  3  4  1  0  0  0  0
  4  9  1  0  0  0  0
  5  7  1  0  0  0  0
  5  6  1  6  0  0  0
  7  9  1  0  0  0  0
  7  8  1  6  0  0  0
  9 40  1  1  0  0  0
 10  6  1  1  0  0  0
 10 11  1  0  0  0  0
 10 18  1  0  0  0  0
 11 13  1  0  0  0  0
 11 12  1  1  0  0  0
 13 15  1  0  0  0  0
 13 14  1  1  0  0  0
 15 17  1  0  0  0  0
 15 16  1  1  0  0  0
 17 19  1  1  0  0  0
 17 18  1  0  0  0  0
 19 20  1  0  0  0  0
 21 29  1  0  0  0  0
 22 23  1  0  0  0  0
 22 31  1  0  0  0  0
 22 38  1  6  0  0  0
 23 25  1  0  0  0  0
 23 24  1  6  0  0  0
 25 27  1  0  0  0  0
 25 26  1  1  0  0  0
 27 30  1  0  0  0  0
 27 28  1  6  0  0  0
 30 21  1  1  0  0  0
 30 31  1  0  0  0  0
 32 34  1  0  0  0  0
 32 41  1  0  0  0  0
 32 33  1  1  0  0  0
 34 35  1  0  0  0  0
 35 37  1  0  0  0  0
 35 36  1  1  0  0  0
 37 39  1  0  0  0  0
 37 38  1  6  0  0  0
 39 41  1  0  0  0  0
 39 40  1  1  0  0  0
 41 42  1  6  0  0  0
M  CHG  6  12   1  20   1  24   1  29   1  33   1  36   1
M  END
>  <CHROM.1>
81.43711304,83.66502668,-130.78427551,-167.85941840,-169.10553201,172.86762025
-35.39463980,-178.93932998,-83.39706025,171.22352937,-169.43265969,-177.44540758
-71.23375506,-125.55598771,-62.58849731,61.13734583,174.30397595,95.49652239
-77.19850541,-63.46303761,128.82586661,61.29081805,-1.61899017,-1.90441918
2.16699553,-0.69075594,-0.11457031,2.52261837

>  <Name>
1NEM.B

>  <RI>
0

>  <Rbt.Current_Directory>
/home/itssahil/PROJECTS/Mol_Feturizer/New_Systems/rnas/1nem

>  <Rbt.Executable>
rbdock ($Id: //depot/dev/client3/rdock/2013.1/src/exe/rbdock.cxx#4 $)

>  <Rbt.Library>
libRbt.so (2013.1, Build901 2013/11/27)

>  <Rbt.Parameter_File>
/export/apps/rDock/src/rDock_2013.1_src/data/scripts/dock_solv.prm

>  <Rbt.Receptor>
prm/pocket_docking_6.prm

>  <SCORE>
-33.6158

>  <SCORE.INTER>
-46.2464

>  <SCORE.INTER.CONST>
1

>  <SCORE.INTER.POLAR>
-6.30285

>  <SCORE.INTER.ROT>
9

>  <SCORE.INTER.SOLV>
41.2239

>  <SCORE.INTER.VDW>
-33.1627

>  <SCORE.INTER.norm>
-1.1011

>  <SCORE.INTRA>
12.6306

>  <SCORE.INTRA.DIHEDRAL>
11.4094

>  <SCORE.INTRA.DIHEDRAL.0>
22.4324

>  <SCORE.INTRA.POLAR>
0.736637

>  <SCORE.INTRA.POLAR.0>
-1.83749

>  <SCORE.INTRA.REPUL>
0

>  <SCORE.INTRA.REPUL.0>
0

>  <SCORE.INTRA.SOLV>
-5.33668

>  <SCORE.INTRA.SOLV.lig_0>
-160.638

>  <SCORE.INTRA.VDW>
7.08971

>  <SCORE.INTRA.VDW.0>
-7.61953

>  <SCORE.INTRA.norm>
0.300729

>  <SCORE.RESTR>
0

>  <SCORE.RESTR.CAVITY>
0

>  <SCORE.RESTR.norm>
0

>  <SCORE.SYSTEM>
0

>  <SCORE.SYSTEM.CONST>
0

>  <SCORE.SYSTEM.DIHEDRAL>
0

>  <SCORE.SYSTEM.SOLV>
0

>  <SCORE.SYSTEM.norm>
0

>  <SCORE.heavy>
42

>  <SCORE.norm>
-0.800375

>  <RMSD>
4.631

$$$$
1NEM.B
 OpenBabel11021811403D
libRbt.so/2013.1/901 2013/11/27
 42 45  0  0  0  0  0  0  0  0999 V2000
    2.2786   -4.5973    3.2228 O   0  0  0  0  0  0  0  0  0  0  0  0
    2.3903   -4.2915    1.8313 C   0  0  0  0  0  0  0  0  0  0  0  0
    1.2912   -3.3532    1.3349 C   0  0  1  0  0  0  0  0  0  0  0  0
    0.0036   -3.9091    1.5850 O   0  0  0  0  0  0  0  0  0  0  0  0
    1.2332   -2.0112    2.0471 C   0  0  1  0  0  0  0  0  0  0  0  0
    2.3586   -1.2477    1.6070 O   0  0  0  0  0  0  0  0  0  0  0  0
   -0.1290   -1.5466    1.5670 C   0  0  1  0  0  0  0  0  0  0  0  0
   -0.1274   -1.2165    0.1741 O   0  0  0  0  0  0  0  0  0  0  0  0
   -0.9177   -2.8402    1.8025 C   0  0  2  0  0  0  0  0  0  0  0  0
    2.4891    0.0332    2.1541 C   0  0  2  0  0  0  0  0  0  0  0  0
    3.7120    0.7251    1.5367 C   0  0  2  0  0  0  0  0  0  0  0  0
    4.9144   -0.1369    1.6839 N   0  3  0  0  0  0  0  0  0  0  0  0
    3.9278    2.1086    2.1588 C   0  0  1  0  0  0  0  0  0  0  0  0
    2.9019    2.9922    1.7258 O   0  0  0  0  0  0  0  0  0  0  0  0
    3.9289    2.0328    3.6887 C   0  0  2  0  0  0  0  0  0  0  0  0
    5.0828    1.3404    4.1481 O   0  0  0  0  0  0  0  0  0  0  0  0
    2.6681    1.3191    4.1681 C   0  0  1  0  0  0  0  0  0  0  0  0
    2.5951    0.0096    3.5716 O   0  0  0  0  0  0  0  0  0  0  0  0
    2.6117    1.1509    5.6763 C   0  0  0  0  0  0  0  0  0  0  0  0
    2.0632    2.3512    6.3459 N   0  3  0  0  0  0  0  0  0  0  0  0
   -5.8291   -0.7545    3.6279 C   0  0  0  0  0  0  0  0  0  0  0  0
   -4.5602   -2.5749    0.6609 C   0  0  2  0  0  0  0  0  0  0  0  0
   -4.4411   -1.4390   -0.3523 C   0  0  2  0  0  0  0  0  0  0  0  0
   -3.5298   -1.8282   -1.4548 N   0  3  0  0  0  0  0  0  0  0  0  0
   -3.9055   -0.1850    0.3258 C   0  0  1  0  0  0  0  0  0  0  0  0
   -3.8728    0.8838   -0.6075 O   0  0  0  0  0  0  0  0  0  0  0  0
   -4.8000    0.1778    1.5090 C   0  0  2  0  0  0  0  0  0  0  0  0
   -4.2679    1.3072    2.1893 O   0  0  0  0  0  0  0  0  0  0  0  0
   -7.0861   -1.5238    3.4832 N   0  3  0  0  0  0  0  0  0  0  0  0
   -4.8830   -1.0087    2.4673 C   0  0  2  0  0  0  0  0  0  0  0  0
   -5.3617   -2.1768    1.7700 O   0  0  0  0  0  0  0  0  0  0  0  0
   -4.1161   -4.9743    4.7186 C   0  0  2  0  0  0  0  0  0  0  0  0
   -4.0991   -5.9990    5.7878 N   0  3  0  0  0  0  0  0  0  0  0  0
   -4.6378   -5.5829    3.4219 C   0  0  0  0  0  0  0  0  0  0  0  0
   -4.6586   -4.5408    2.3124 C   0  0  2  0  0  0  0  0  0  0  0  0
   -5.1657   -5.1821    1.1076 N   0  3  0  0  0  0  0  0  0  0  0  0
   -3.2500   -3.9961    2.0877 C   0  0  1  0  0  0  0  0  0  0  0  0
   -3.2831   -2.9905    1.0562 O   0  0  0  0  0  0  0  0  0  0  0  0
   -2.6905   -3.3839    3.3794 C   0  0  2  0  0  0  0  0  0  0  0  0
   -1.3265   -2.9754    3.1618 O   0  0  0  0  0  0  0  0  0  0  0  0
   -2.7185   -4.3864    4.5304 C   0  0  1  0  0  0  0  0  0  0  0  0
   -2.3102   -3.7427    5.7302 O   0  0  0  0  0  0  0  0  0  0  0  0
  1  2  1  0  0  0  0
  3  2  1  1  0  0  0
  3  5  1  0  0  0  0
  3  4  1  0  0  0  0
  4  9  1  0  0  0  0
  5  7  1  0  0  0  0
  5  6  1  6  0  0  0
  7  9  1  0  0  0  0
  7  8  1  6  0  0  0
  9 40  1  1  0  0  0
 10  6  1  6  0  0  0
 10 11  1  0  0  0  0
 10 18  1  0  0  0  0
 11 13  1  0  0  0  0
 11 12  1  1  0  0  0
 13 15  1  0  0  0  0
 13 14  1  1  0  0  0
 15 17  1  0  0  0  0
 15 16  1  6  0  0  0
 17 19  1  1  0  0  0
 17 18  1  0  0  0  0
 19 20  1  0  0  0  0
 21 29  1  0  0  0  0
 22 23  1  0  0  0  0
 22 31  1  0  0  0  0
 22 38  1  1  0  0  0
 23 25  1  0  0  0  0
 23 24  1  6  0  0  0
 25 27  1  0  0  0  0
 25 26  1  6  0  0  0
 27 30  1  0  0  0  0
 27 28  1  1  0  0  0
 30 21  1  1  0  0  0
 30 31  1  0  0  0  0
 32 34  1  0  0  0  0
 32 41  1  0  0  0  0
 32 33  1  1  0  0  0
 34 35  1  0  0  0  0
 35 37  1  0  0  0  0
 35 36  1  6  0  0  0
 37 39  1  0  0  0  0
 37 38  1  6  0  0  0
 39 41  1  0  0  0  0
 39 40  1  6  0  0  0
 41 42  1  1  0  0  0
M  CHG  6  12   1  20   1  24   1  29   1  33   1  36   1
M  END
>  <CHROM.1>
63.75269694,-57.42464920,-179.89829814,-177.92998629,69.84932092,-110.76156337
154.20445756,177.40187241,174.55984646,84.73748361,-37.37794173,106.75395776
22.30970989,175.65849495,69.37944164,29.34265874,63.02519991,-56.39667255
35.48370754,10.30383574,17.64916386,-55.36582420,-1.07642837,-1.60510865
2.45957763,-0.36411648,0.26358282,2.72700369

>  <Name>
1NEM.B

>  <RI>
0

>  <Rbt.Current_Directory>
/home/itssahil/PROJECTS/Mol_Feturizer/New_Systems/rnas/1nem

>  <Rbt.Executable>
rbdock ($Id: //depot/dev/client3/rdock/2013.1/src/exe/rbdock.cxx#4 $)

>  <Rbt.Library>
libRbt.so (2013.1, Build901 2013/11/27)

>  <Rbt.Parameter_File>
/export/apps/rDock/src/rDock_2013.1_src/data/scripts/dock_solv.prm

>  <Rbt.Receptor>
prm/pocket_docking_5.prm

>  <SCORE>
-35.9293

>  <SCORE.INTER>
-59.6809

>  <SCORE.INTER.CONST>
1

>  <SCORE.INTER.POLAR>
-8.62042

>  <SCORE.INTER.ROT>
9

>  <SCORE.INTER.SOLV>
49.3941

>  <SCORE.INTER.VDW>
-37.1173

>  <SCORE.INTER.norm>
-1.42097

>  <SCORE.INTRA>
23.5414

>  <SCORE.INTRA.DIHEDRAL>
15.4216

>  <SCORE.INTRA.DIHEDRAL.0>
22.4324

>  <SCORE.INTRA.POLAR>
0.468724

>  <SCORE.INTRA.POLAR.0>
-1.83749

>  <SCORE.INTRA.REPUL>
0

>  <SCORE.INTRA.REPUL.0>
0

>  <SCORE.INTRA.SOLV>
-5.36433

>  <SCORE.INTRA.SOLV.lig_0>
-160.638

>  <SCORE.INTRA.VDW>
16.9191

>  <SCORE.INTRA.VDW.0>
-7.61953

>  <SCORE.INTRA.norm>
0.56051

>  <SCORE.RESTR>
0.210219

>  <SCORE.RESTR.CAVITY>
0.210219

>  <SCORE.RESTR.norm>
0.00500522

>  <SCORE.SYSTEM>
0

>  <SCORE.SYSTEM.CONST>
0

>  <SCORE.SYSTEM.DIHEDRAL>
0

>  <SCORE.SYSTEM.SOLV>
0

>  <SCORE.SYSTEM.norm>
0

>  <SCORE.heavy>
42

>  <SCORE.norm>
-0.85546

>  <RMSD>
4.632

$$$$
1NEM.B
 OpenBabel11021811403D
libRbt.so/2013.1/901 2013/11/27
 42 45  0  0  0  0  0  0  0  0999 V2000
    2.3807   -4.7782    3.1569 O   0  0  0  0  0  0  0  0  0  0  0  0
    2.4825   -4.3469    1.7983 C   0  0  0  0  0  0  0  0  0  0  0  0
    1.3592   -3.3965    1.3865 C   0  0  1  0  0  0  0  0  0  0  0  0
    0.0868   -4.0081    1.5775 O   0  0  0  0  0  0  0  0  0  0  0  0
    1.2628   -2.1290    2.2206 C   0  0  1  0  0  0  0  0  0  0  0  0
    2.3678   -1.2975    1.8589 O   0  0  0  0  0  0  0  0  0  0  0  0
   -0.1106   -1.6587    1.7795 C   0  0  1  0  0  0  0  0  0  0  0  0
   -0.1150   -1.2000    0.4235 O   0  0  0  0  0  0  0  0  0  0  0  0
   -0.8639   -2.9896    1.8895 C   0  0  2  0  0  0  0  0  0  0  0  0
    2.4201   -0.0390    2.4678 C   0  0  2  0  0  0  0  0  0  0  0  0
    3.5848    0.7634    1.8720 C   0  0  2  0  0  0  0  0  0  0  0  0
    4.8442   -0.0213    1.9626 N   0  3  0  0  0  0  0  0  0  0  0  0
    3.7163    2.1262    2.5598 C   0  0  1  0  0  0  0  0  0  0  0  0
    2.6273    2.9585    2.1830 O   0  0  0  0  0  0  0  0  0  0  0  0
    3.7447    1.9758    4.0839 C   0  0  2  0  0  0  0  0  0  0  0  0
    4.9490    1.3414    4.4953 O   0  0  0  0  0  0  0  0  0  0  0  0
    2.5417    1.1558    4.5413 C   0  0  1  0  0  0  0  0  0  0  0  0
    2.5480   -0.1249    3.8811 O   0  0  0  0  0  0  0  0  0  0  0  0
    2.5187    0.9104    6.0397 C   0  0  0  0  0  0  0  0  0  0  0  0
    2.0073    2.0829    6.7837 N   0  3  0  0  0  0  0  0  0  0  0  0
   -6.1263   -0.8673    3.1353 C   0  0  0  0  0  0  0  0  0  0  0  0
   -4.3987   -2.7988    0.4873 C   0  0  2  0  0  0  0  0  0  0  0  0
   -4.1699   -1.7161   -0.5645 C   0  0  2  0  0  0  0  0  0  0  0  0
   -3.1009   -2.1311   -1.5040 N   0  3  0  0  0  0  0  0  0  0  0  0
   -3.7717   -0.4083    0.1065 C   0  0  1  0  0  0  0  0  0  0  0  0
   -3.6377    0.6086   -0.8745 O   0  0  0  0  0  0  0  0  0  0  0  0
   -4.8347   -0.0146    1.1296 C   0  0  2  0  0  0  0  0  0  0  0  0
   -4.4368    1.1688    1.8098 O   0  0  0  0  0  0  0  0  0  0  0  0
   -5.9729    0.4696    3.7536 N   0  3  0  0  0  0  0  0  0  0  0  0
   -5.0186   -1.1495    2.1353 C   0  0  2  0  0  0  0  0  0  0  0  0
   -5.3602   -2.3705    1.4482 O   0  0  0  0  0  0  0  0  0  0  0  0
   -4.2622   -4.9669    4.7622 C   0  0  2  0  0  0  0  0  0  0  0  0
   -4.3599   -5.9659    5.8512 N   0  3  0  0  0  0  0  0  0  0  0  0
   -4.8109   -5.5534    3.4664 C   0  0  0  0  0  0  0  0  0  0  0  0
   -4.7147   -4.5375    2.3367 C   0  0  2  0  0  0  0  0  0  0  0  0
   -5.2537   -5.1560    1.1338 N   0  3  0  0  0  0  0  0  0  0  0  0
   -3.2582   -4.1274    2.1324 C   0  0  1  0  0  0  0  0  0  0  0  0
   -3.1791   -3.1453    1.0810 O   0  0  0  0  0  0  0  0  0  0  0  0
   -2.6714   -3.5410    3.4239 C   0  0  2  0  0  0  0  0  0  0  0  0
   -1.2718   -3.2623    3.2283 O   0  0  0  0  0  0  0  0  0  0  0  0
   -2.8135   -4.5120    4.5933 C   0  0  1  0  0  0  0  0  0  0  0  0
   -2.3725   -3.8825    5.7889 O   0  0  0  0  0  0  0  0  0  0  0  0
  1  2  1  0  0  0  0
  3  2  1  1  0  0  0
  3  5  1  0  0  0  0
  3  4  1  0  0  0  0
  4  9  1  0  0  0  0
  5  7  1  0  0  0  0
  5  6  1  6  0  0  0
  7  9  1  0  0  0  0
  7  8  1  6  0  0  0
  9 40  1  1  0  0  0
 10  6  1  6  0  0  0
 10 11  1  0  0  0  0
 10 18  1  0  0  0  0
 11 13  1  0  0  0  0
 11 12  1  1  0  0  0
 13 15  1  0  0  0  0
 13 14  1  1  0  0  0
 15 17  1  0  0  0  0
 15 16  1  6  0  0  0
 17 19  1  1  0  0  0
 17 18  1  0  0  0  0
 19 20  1  0  0  0  0
 21 29  1  0  0  0  0
 22 23  1  0  0  0  0
 22 31  1  0  0  0  0
 22 38  1  1  0  0  0
 23 25  1  0  0  0  0
 23 24  1  6  0  0  0
 25 27  1  0  0  0  0
 25 26  1  6  0  0  0
 27 30  1  0  0  0  0
 27 28  1  1  0  0  0
 30 21  1  1  0  0  0
 30 31  1  0  0  0  0
 32 34  1  0  0  0  0
 32 41  1  0  0  0  0
 32 33  1  1  0  0  0
 34 35  1  0  0  0  0
 35 37  1  0  0  0  0
 35 36  1  6  0  0  0
 37 39  1  0  0  0  0
 37 38  1  6  0  0  0
 39 41  1  0  0  0  0
 39 40  1  6  0  0  0
 41 42  1  1  0  0  0
M  CHG  6  12   1  20   1  24   1  29   1  33   1  36   1
M  END
>  <CHROM.1>
91.81429372,-57.76866896,176.60477888,-174.74998950,-176.89013142,-119.30649098
35.62295368,-57.04427979,-177.95507353,79.86819862,-35.98989678,-50.28036340
26.90895265,177.80478290,-60.08210726,47.32952251,-50.02305609,-160.66821789
16.92920382,-0.52341176,26.98493612,-45.54078834,-1.06799782,-1.65766074
2.53133596,-0.34314122,0.31521844,2.74300023

>  <Name>
1NEM.B

>  <RI>
0

>  <Rbt.Current_Directory>
/home/itssahil/PROJECTS/Mol_Feturizer/New_Systems/rnas/1nem

>  <Rbt.Executable>
rbdock ($Id: //depot/dev/client3/rdock/2013.1/src/exe/rbdock.cxx#4 $)

>  <Rbt.Library>
libRbt.so (2013.1, Build901 2013/11/27)

>  <Rbt.Parameter_File>
/export/apps/rDock/src/rDock_2013.1_src/data/scripts/dock_solv.prm

>  <Rbt.Receptor>
prm/blind_docking_80.prm

>  <SCORE>
-12.9153

>  <SCORE.INTER>
-42.9119

>  <SCORE.INTER.CONST>
1

>  <SCORE.INTER.POLAR>
-7.16606

>  <SCORE.INTER.ROT>
9

>  <SCORE.INTER.SOLV>
51.799

>  <SCORE.INTER.VDW>
-31.5874

>  <SCORE.INTER.norm>
-1.02171

>  <SCORE.INTRA>
24.5391

>  <SCORE.INTRA.DIHEDRAL>
13.4303

>  <SCORE.INTRA.DIHEDRAL.0>
22.4324

>  <SCORE.INTRA.POLAR>
-0.0884197

>  <SCORE.INTRA.POLAR.0>
-1.83749

>  <SCORE.INTRA.REPUL>
0

>  <SCORE.INTRA.REPUL.0>
0

>  <SCORE.INTRA.SOLV>
-2.99402

>  <SCORE.INTRA.SOLV.lig_0>
-160.638

>  <SCORE.INTRA.VDW>
19.6216

>  <SCORE.INTRA.VDW.0>
-7.61953

>  <SCORE.INTRA.norm>
0.584265

>  <SCORE.RESTR>
5.45747

>  <SCORE.RESTR.CAVITY>
5.45747

>  <SCORE.RESTR.norm>
0.12994

>  <SCORE.SYSTEM>
0

>  <SCORE.SYSTEM.CONST>
0

>  <SCORE.SYSTEM.DIHEDRAL>
0

>  <SCORE.SYSTEM.SOLV>
0

>  <SCORE.SYSTEM.norm>
0

>  <SCORE.heavy>
42

>  <SCORE.norm>
-0.307506

>  <RMSD>
4.635

$$$$
1NEM.B
 OpenBabel11021811403D
libRbt.so/2013.1/901 2013/11/27
 42 45  0  0  0  0  0  0  0  0999 V2000
    0.7094   -5.6350    1.3625 O   0  0  0  0  0  0  0  0  0  0  0  0
   -0.5987   -5.4109    0.8324 C   0  0  0  0  0  0  0  0  0  0  0  0
   -0.8534   -3.9496    0.4658 C   0  0  1  0  0  0  0  0  0  0  0  0
   -2.2277   -3.7410    0.1535 O   0  0  0  0  0  0  0  0  0  0  0  0
   -0.6002   -2.9596    1.5916 C   0  0  1  0  0  0  0  0  0  0  0  0
    0.8152   -2.8743    1.7718 O   0  0  0  0  0  0  0  0  0  0  0  0
   -1.2808   -1.7422    0.9944 C   0  0  1  0  0  0  0  0  0  0  0  0
   -0.5581   -1.2124   -0.1219 O   0  0  0  0  0  0  0  0  0  0  0  0
   -2.5781   -2.4056    0.5172 C   0  0  2  0  0  0  0  0  0  0  0  0
    1.3215   -1.6129    2.1031 C   0  0  2  0  0  0  0  0  0  0  0  0
    1.8765   -0.9424    0.8391 C   0  0  2  0  0  0  0  0  0  0  0  0
    2.8500   -1.8441    0.1686 N   0  3  0  0  0  0  0  0  0  0  0  0
    2.5003    0.4169    1.1719 C   0  0  1  0  0  0  0  0  0  0  0  0
    1.4760    1.3425    1.5105 O   0  0  0  0  0  0  0  0  0  0  0  0
    3.4922    0.3005    2.3333 C   0  0  2  0  0  0  0  0  0  0  0  0
    4.6387   -0.4386    1.9315 O   0  0  0  0  0  0  0  0  0  0  0  0
    2.8180   -0.3870    3.5172 C   0  0  1  0  0  0  0  0  0  0  0  0
    2.3221   -1.6774    3.1110 O   0  0  0  0  0  0  0  0  0  0  0  0
    3.7485   -0.5935    4.6994 C   0  0  0  0  0  0  0  0  0  0  0  0
    5.0575   -1.1435    4.2826 N   0  3  0  0  0  0  0  0  0  0  0  0
   -5.5119   -5.0787    4.2105 C   0  0  0  0  0  0  0  0  0  0  0  0
   -5.6627   -4.8345    0.5166 C   0  0  2  0  0  0  0  0  0  0  0  0
   -6.9153   -5.6550    0.2186 C   0  0  2  0  0  0  0  0  0  0  0  0
   -7.4374   -5.3234   -1.1286 N   0  3  0  0  0  0  0  0  0  0  0  0
   -7.9893   -5.3701    1.2599 C   0  0  1  0  0  0  0  0  0  0  0  0
   -9.1184   -6.1952    1.0172 O   0  0  0  0  0  0  0  0  0  0  0  0
   -7.4319   -5.6395    2.6558 C   0  0  2  0  0  0  0  0  0  0  0  0
   -8.4060   -5.3098    3.6376 O   0  0  0  0  0  0  0  0  0  0  0  0
   -6.2178   -4.3995    5.3212 N   0  3  0  0  0  0  0  0  0  0  0  0
   -6.1758   -4.7981    2.8737 C   0  0  2  0  0  0  0  0  0  0  0  0
   -5.2059   -5.0793    1.8442 O   0  0  0  0  0  0  0  0  0  0  0  0
   -6.0460    0.0161    2.7039 C   0  0  2  0  0  0  0  0  0  0  0  0
   -6.0786    0.8862    3.9019 N   0  3  0  0  0  0  0  0  0  0  0  0
   -7.2525   -0.9159    2.7038 C   0  0  0  0  0  0  0  0  0  0  0  0
   -7.2309   -1.8184    1.4782 C   0  0  2  0  0  0  0  0  0  0  0  0
   -8.4044   -2.6785    1.5370 N   0  3  0  0  0  0  0  0  0  0  0  0
   -5.9485   -2.6470    1.4683 C   0  0  1  0  0  0  0  0  0  0  0  0
   -5.9227   -3.4775    0.2910 O   0  0  0  0  0  0  0  0  0  0  0  0
   -4.7123   -1.7371    1.4781 C   0  0  2  0  0  0  0  0  0  0  0  0
   -3.5248   -2.5466    1.5740 O   0  0  0  0  0  0  0  0  0  0  0  0
   -4.7382   -0.7725    2.6611 C   0  0  1  0  0  0  0  0  0  0  0  0
   -3.6443    0.1298    2.5615 O   0  0  0  0  0  0  0  0  0  0  0  0
  1  2  1  0  0  0  0
  3  2  1  1  0  0  0
  3  5  1  0  0  0  0
  3  4  1  0  0  0  0
  4  9  1  0  0  0  0
  5  7  1  0  0  0  0
  5  6  1  6  0  0  0
  7  9  1  0  0  0  0
  7  8  1  6  0  0  0
  9 40  1  1  0  0  0
 10  6  1  6  0  0  0
 10 11  1  0  0  0  0
 10 18  1  0  0  0  0
 11 13  1  0  0  0  0
 11 12  1  1  0  0  0
 13 15  1  0  0  0  0
 13 14  1  1  0  0  0
 15 17  1  0  0  0  0
 15 16  1  6  0  0  0
 17 19  1  1  0  0  0
 17 18  1  0  0  0  0
 19 20  1  0  0  0  0
 21 29  1  0  0  0  0
 22 23  1  0  0  0  0
 22 31  1  0  0  0  0
 22 38  1  1  0  0  0
 23 25  1  0  0  0  0
 23 24  1  6  0  0  0
 25 27  1  0  0  0  0
 25 26  1  6  0  0  0
 27 30  1  0  0  0  0
 27 28  1  1  0  0  0
 30 21  1  1  0  0  0
 30 31  1  0  0  0  0
 32 34  1  0  0  0  0
 32 41  1  0  0  0  0
 32 33  1  1  0  0  0
 34 35  1  0  0  0  0
 35 37  1  0  0  0  0
 35 36  1  1  0  0  0
 37 39  1  0  0  0  0
 37 38  1  6  0  0  0
 39 41  1  0  0  0  0
 39 40  1  1  0  0  0
 41 42  1  6  0  0  0
M  CHG  6  12   1  20   1  24   1  29   1  33   1  36   1
M  END
>  <CHROM.1>
140.88447536,-170.45006861,143.82514429,-99.14463249,-168.45638266,-133.51718412
166.28263309,-56.34760732,59.36222074,-46.28718397,-24.74351371,-78.38118066
54.29280805,111.35732241,132.90784772,-68.00188663,75.74793331,90.63046043
-63.54413528,-129.16933051,121.49686983,-165.14985975,-2.71449219,-2.62047181
1.86275240,-0.29561801,-0.08727376,-2.76005437

>  <Name>
1NEM.B

>  <RI>
0

>  <Rbt.Current_Directory>
/home/itssahil/PROJECTS/Mol_Feturizer/New_Systems/rnas/1nem

>  <Rbt.Executable>
rbdock ($Id: //depot/dev/client3/rdock/2013.1/src/exe/rbdock.cxx#4 $)

>  <Rbt.Library>
libRbt.so (2013.1, Build901 2013/11/27)

>  <Rbt.Parameter_File>
/export/apps/rDock/src/rDock_2013.1_src/data/scripts/dock_solv.prm

>  <Rbt.Receptor>
prm/blind_docking_60.prm

>  <SCORE>
23.2498

>  <SCORE.INTER>
-11.0861

>  <SCORE.INTER.CONST>
1

>  <SCORE.INTER.POLAR>
-5.8996

>  <SCORE.INTER.ROT>
9

>  <SCORE.INTER.SOLV>
51.4253

>  <SCORE.INTER.VDW>
-14.4671

>  <SCORE.INTER.norm>
-0.263954

>  <SCORE.INTRA>
30.2464

>  <SCORE.INTRA.DIHEDRAL>
33.3491

>  <SCORE.INTRA.DIHEDRAL.0>
22.4324

>  <SCORE.INTRA.POLAR>
0.271252

>  <SCORE.INTRA.POLAR.0>
-1.83749

>  <SCORE.INTRA.REPUL>
0.00828931

>  <SCORE.INTRA.REPUL.0>
0

>  <SCORE.INTRA.SOLV>
5.81718

>  <SCORE.INTRA.SOLV.lig_0>
-160.638

>  <SCORE.INTRA.VDW>
9.69957

>  <SCORE.INTRA.VDW.0>
-7.61953

>  <SCORE.INTRA.norm>
0.720153

>  <SCORE.RESTR>
4.08943

>  <SCORE.RESTR.CAVITY>
4.08943

>  <SCORE.RESTR.norm>
0.0973673

>  <SCORE.SYSTEM>
0

>  <SCORE.SYSTEM.CONST>
0

>  <SCORE.SYSTEM.DIHEDRAL>
0

>  <SCORE.SYSTEM.SOLV>
0

>  <SCORE.SYSTEM.norm>
0

>  <SCORE.heavy>
42

>  <SCORE.norm>
0.553566

>  <RMSD>
4.637

$$$$
1NEM.B
 OpenBabel11021811403D
libRbt.so/2013.1/901 2013/11/27
 42 45  0  0  0  0  0  0  0  0999 V2000
    0.0508   -6.3354    1.1130 O   0  0  0  0  0  0  0  0  0  0  0  0
   -1.1959   -5.6944    1.3906 C   0  0  0  0  0  0  0  0  0  0  0  0
   -1.2918   -4.2898    0.7968 C   0  0  1  0  0  0  0  0  0  0  0  0
   -2.2625   -4.2488   -0.2452 O   0  0  0  0  0  0  0  0  0  0  0  0
   -1.7782   -3.2234    1.7652 C   0  0  1  0  0  0  0  0  0  0  0  0
   -0.7177   -2.9747    2.6908 O   0  0  0  0  0  0  0  0  0  0  0  0
   -2.0802   -2.1190    0.7697 C   0  0  1  0  0  0  0  0  0  0  0  0
   -0.8900   -1.5692    0.1950 O   0  0  0  0  0  0  0  0  0  0  0  0
   -2.8399   -2.9433   -0.2763 C   0  0  2  0  0  0  0  0  0  0  0  0
    0.5054   -2.5796    2.1383 C   0  0  2  0  0  0  0  0  0  0  0  0
    1.3063   -3.8262    1.7383 C   0  0  2  0  0  0  0  0  0  0  0  0
    1.4197   -4.7528    2.8954 N   0  3  0  0  0  0  0  0  0  0  0  0
    2.6822   -3.4370    1.1879 C   0  0  1  0  0  0  0  0  0  0  0  0
    2.5311   -2.8239   -0.0856 O   0  0  0  0  0  0  0  0  0  0  0  0
    3.4064   -2.4777    2.1374 C   0  0  2  0  0  0  0  0  0  0  0  0
    3.7689   -3.1499    3.3369 O   0  0  0  0  0  0  0  0  0  0  0  0
    2.5008   -1.2920    2.4582 C   0  0  1  0  0  0  0  0  0  0  0  0
    1.2632   -1.7657    3.0239 O   0  0  0  0  0  0  0  0  0  0  0  0
    3.1206   -0.3132    3.4400 C   0  0  0  0  0  0  0  0  0  0  0  0
    3.2497   -0.8961    4.7940 N   0  3  0  0  0  0  0  0  0  0  0  0
   -5.0454   -5.2417    5.9868 C   0  0  0  0  0  0  0  0  0  0  0  0
   -5.0602   -4.1062    2.4601 C   0  0  2  0  0  0  0  0  0  0  0  0
   -5.9841   -5.1408    1.8220 C   0  0  2  0  0  0  0  0  0  0  0  0
   -6.5077   -4.6342    0.5309 N   0  3  0  0  0  0  0  0  0  0  0  0
   -7.1494   -5.4487    2.7527 C   0  0  1  0  0  0  0  0  0  0  0  0
   -7.9574   -6.4670    2.1830 O   0  0  0  0  0  0  0  0  0  0  0  0
   -6.6140   -5.9005    4.1096 C   0  0  2  0  0  0  0  0  0  0  0  0
   -7.6946   -6.1235    5.0062 O   0  0  0  0  0  0  0  0  0  0  0  0
   -4.4240   -6.5821    5.8855 N   0  3  0  0  0  0  0  0  0  0  0  0
   -5.6887   -4.8249    4.6756 C   0  0  2  0  0  0  0  0  0  0  0  0
   -4.6242   -4.5459    3.7437 O   0  0  0  0  0  0  0  0  0  0  0  0
   -4.9409    0.5611    0.1331 C   0  0  2  0  0  0  0  0  0  0  0  0
   -4.2269    1.7029   -0.4831 N   0  3  0  0  0  0  0  0  0  0  0  0
   -4.9582    0.7146    1.6498 C   0  0  0  0  0  0  0  0  0  0  0  0
   -5.6876   -0.4541    2.2974 C   0  0  2  0  0  0  0  0  0  0  0  0
   -5.6702   -0.2472    3.7386 N   0  3  0  0  0  0  0  0  0  0  0  0
   -4.9967   -1.7644    1.9269 C   0  0  1  0  0  0  0  0  0  0  0  0
   -5.7094   -2.8672    2.5203 O   0  0  0  0  0  0  0  0  0  0  0  0
   -4.9535   -1.9453    0.4032 C   0  0  2  0  0  0  0  0  0  0  0  0
   -4.2059   -3.1347    0.0851 O   0  0  0  0  0  0  0  0  0  0  0  0
   -4.2861   -0.7555   -0.2818 C   0  0  1  0  0  0  0  0  0  0  0  0
   -4.3791   -0.9066   -1.6922 O   0  0  0  0  0  0  0  0  0  0  0  0
  1  2  1  0  0  0  0
  3  2  1  1  0  0  0
  3  5  1  0  0  0  0
  3  4  1  0  0  0  0
  4  9  1  0  0  0  0
  5  7  1  0  0  0  0
  5  6  1  1  0  0  0
  7  9  1  0  0  0  0
  7  8  1  6  0  0  0
  9 40  1  1  0  0  0
 10  6  1  1  0  0  0
 10 11  1  0  0  0  0
 10 18  1  0  0  0  0
 11 13  1  0  0  0  0
 11 12  1  1  0  0  0
 13 15  1  0  0  0  0
 13 14  1  6  0  0  0
 15 17  1  0  0  0  0
 15 16  1  1  0  0  0
 17 19  1  1  0  0  0
 17 18  1  0  0  0  0
 19 20  1  0  0  0  0
 21 29  1  0  0  0  0
 22 23  1  0  0  0  0
 22 31  1  0  0  0  0
 22 38  1  1  0  0  0
 23 25  1  0  0  0  0
 23 24  1  6  0  0  0
 25 27  1  0  0  0  0
 25 26  1  6  0  0  0
 27 30  1  0  0  0  0
 27 28  1  1  0  0  0
 30 21  1  1  0  0  0
 30 31  1  0  0  0  0
 32 34  1  0  0  0  0
 32 41  1  0  0  0  0
 32 33  1  6  0  0  0
 34 35  1  0  0  0  0
 35 37  1  0  0  0  0
 35 36  1  1  0  0  0
 37 39  1  0  0  0  0
 37 38  1  1  0  0  0
 39 41  1  0  0  0  0
 39 40  1  1  0  0  0
 41 42  1  6  0  0  0
M  CHG  6  12   1  20   1  24   1  29   1  33   1  36   1
M  END
>  <CHROM.1>
-35.66905466,112.31625864,57.16013299,-85.35099562,-170.80089761,167.42693062
14.41264859,62.09790749,159.91575759,-68.47832676,135.39233191,50.26812706
175.77361306,-126.09886124,169.07695847,-55.42113521,63.55363491,24.56508632
54.97835121,-169.29644897,-97.89396094,-170.90608003,-2.55408861,-3.08794485
2.02913563,-0.19324215,0.06896541,2.53643920

>  <Name>
1NEM.B

>  <RI>
0

>  <Rbt.Current_Directory>
/home/itssahil/PROJECTS/Mol_Feturizer/New_Systems/rnas/1nem

>  <Rbt.Executable>
rbdock ($Id: //depot/dev/client3/rdock/2013.1/src/exe/rbdock.cxx#4 $)

>  <Rbt.Library>
libRbt.so (2013.1, Build901 2013/11/27)

>  <Rbt.Parameter_File>
/export/apps/rDock/src/rDock_2013.1_src/data/scripts/dock_solv.prm

>  <Rbt.Receptor>
prm/blind_docking_100.prm

>  <SCORE>
24.3541

>  <SCORE.INTER>
4.53335

>  <SCORE.INTER.CONST>
1

>  <SCORE.INTER.POLAR>
-6.14722

>  <SCORE.INTER.ROT>
9

>  <SCORE.INTER.SOLV>
52.7565

>  <SCORE.INTER.VDW>
-3.67254

>  <SCORE.INTER.norm>
0.107937

>  <SCORE.INTRA>
18.8895

>  <SCORE.INTRA.DIHEDRAL>
14.3057

>  <SCORE.INTRA.DIHEDRAL.0>
22.4324

>  <SCORE.INTRA.POLAR>
-0.788103

>  <SCORE.INTRA.POLAR.0>
-1.83749

>  <SCORE.INTRA.REPUL>
0

>  <SCORE.INTRA.REPUL.0>
0

>  <SCORE.INTRA.SOLV>
4.36391

>  <SCORE.INTRA.SOLV.lig_0>
-160.638

>  <SCORE.INTRA.VDW>
12.2342

>  <SCORE.INTRA.VDW.0>
-7.61953

>  <SCORE.INTRA.norm>
0.449749

>  <SCORE.RESTR>
0.931283

>  <SCORE.RESTR.CAVITY>
0.931283

>  <SCORE.RESTR.norm>
0.0221734

>  <SCORE.SYSTEM>
0

>  <SCORE.SYSTEM.CONST>
0

>  <SCORE.SYSTEM.DIHEDRAL>
0

>  <SCORE.SYSTEM.SOLV>
0

>  <SCORE.SYSTEM.norm>
0

>  <SCORE.heavy>
42

>  <SCORE.norm>
0.579859

>  <RMSD>
4.665

$$$$
1NEM.B
 OpenBabel11021811403D
libRbt.so/2013.1/901 2013/11/27
 42 45  0  0  0  0  0  0  0  0999 V2000
    3.5135    1.6509   -2.5958 O   0  0  0  0  0  0  0  0  0  0  0  0
    4.1634    1.6571   -1.3232 C   0  0  0  0  0  0  0  0  0  0  0  0
    3.1838    1.6273   -0.1509 C   0  0  1  0  0  0  0  0  0  0  0  0
    1.9097    1.1485   -0.5715 O   0  0  0  0  0  0  0  0  0  0  0  0
    3.5617    0.6694    0.9676 C   0  0  1  0  0  0  0  0  0  0  0  0
    4.6769    1.2395    1.6564 O   0  0  0  0  0  0  0  0  0  0  0  0
    2.2427    0.6477    1.7171 C   0  0  1  0  0  0  0  0  0  0  0  0
    1.9768    1.8889    2.3789 O   0  0  0  0  0  0  0  0  0  0  0  0
    1.2950    0.4711    0.5248 C   0  0  2  0  0  0  0  0  0  0  0  0
    4.7758    0.9478    3.0211 C   0  0  2  0  0  0  0  0  0  0  0  0
    4.4319    2.2038    3.8333 C   0  0  2  0  0  0  0  0  0  0  0  0
    5.2674    3.3478    3.3822 N   0  3  0  0  0  0  0  0  0  0  0  0
    4.5920    1.9432    5.3346 C   0  0  1  0  0  0  0  0  0  0  0  0
    3.5606    1.0729    5.7809 O   0  0  0  0  0  0  0  0  0  0  0  0
    5.9578    1.3234    5.6456 C   0  0  2  0  0  0  0  0  0  0  0  0
    6.9935    2.2707    5.4176 O   0  0  0  0  0  0  0  0  0  0  0  0
    6.1749    0.0934    4.7687 C   0  0  1  0  0  0  0  0  0  0  0  0
    6.0624    0.4613    3.3802 O   0  0  0  0  0  0  0  0  0  0  0  0
    7.5324   -0.5558    4.9730 C   0  0  0  0  0  0  0  0  0  0  0  0
    7.7252   -1.0053    6.3696 N   0  3  0  0  0  0  0  0  0  0  0  0
   -5.5629   -1.9033    2.0745 C   0  0  0  0  0  0  0  0  0  0  0  0
   -2.6544   -1.2175   -0.1159 C   0  0  2  0  0  0  0  0  0  0  0  0
   -2.9835    0.1891   -0.6098 C   0  0  2  0  0  0  0  0  0  0  0  0
   -1.7611    0.8515   -1.1242 N   0  3  0  0  0  0  0  0  0  0  0  0
   -3.5682    1.0202    0.5244 C   0  0  1  0  0  0  0  0  0  0  0  0
   -3.9414    2.2989    0.0342 O   0  0  0  0  0  0  0  0  0  0  0  0
   -4.7852    0.3052    1.1071 C   0  0  2  0  0  0  0  0  0  0  0  0
   -5.2955    1.0407    2.2116 O   0  0  0  0  0  0  0  0  0  0  0  0
   -6.3683   -2.4539    0.9605 N   0  3  0  0  0  0  0  0  0  0  0  0
   -4.3825   -1.0959    1.5632 C   0  0  2  0  0  0  0  0  0  0  0  0
   -3.8043   -1.8283    0.4637 O   0  0  0  0  0  0  0  0  0  0  0  0
    1.1963   -4.1013    2.0872 C   0  0  2  0  0  0  0  0  0  0  0  0
    2.1198   -5.2589    2.0650 N   0  3  0  0  0  0  0  0  0  0  0  0
   -0.2065   -4.5461    1.6892 C   0  0  0  0  0  0  0  0  0  0  0  0
   -1.1668   -3.3651    1.7054 C   0  0  2  0  0  0  0  0  0  0  0  0
   -2.4826   -3.8549    1.3197 N   0  3  0  0  0  0  0  0  0  0  0  0
   -0.6806   -2.2896    0.7368 C   0  0  1  0  0  0  0  0  0  0  0  0
   -1.5791   -1.1639    0.7790 O   0  0  0  0  0  0  0  0  0  0  0  0
    0.7359   -1.8260    1.1042 C   0  0  2  0  0  0  0  0  0  0  0  0
    1.2038   -0.8911    0.1135 O   0  0  0  0  0  0  0  0  0  0  0  0
    1.7104   -2.9997    1.1617 C   0  0  1  0  0  0  0  0  0  0  0  0
    2.9748   -2.5442    1.6246 O   0  0  0  0  0  0  0  0  0  0  0  0
  1  2  1  0  0  0  0
  3  2  1  6  0  0  0
  3  5  1  0  0  0  0
  3  4  1  0  0  0  0
  4  9  1  0  0  0  0
  5  7  1  0  0  0  0
  5  6  1  1  0  0  0
  7  9  1  0  0  0  0
  7  8  1  6  0  0  0
  9 40  1  6  0  0  0
 10  6  1  6  0  0  0
 10 11  1  0  0  0  0
 10 18  1  0  0  0  0
 11 13  1  0  0  0  0
 11 12  1  6  0  0  0
 13 15  1  0  0  0  0
 13 14  1  6  0  0  0
 15 17  1  0  0  0  0
 15 16  1  6  0  0  0
 17 19  1  6  0  0  0
 17 18  1  0  0  0  0
 19 20  1  0  0  0  0
 21 29  1  0  0  0  0
 22 23  1  0  0  0  0
 22 31  1  0  0  0  0
 22 38  1  1  0  0  0
 23 25  1  0  0  0  0
 23 24  1  1  0  0  0
 25 27  1  0  0  0  0
 25 26  1  6  0  0  0
 27 30  1  0  0  0  0
 27 28  1  1  0  0  0
 30 21  1  6  0  0  0
 30 31  1  0  0  0  0
 32 34  1  0  0  0  0
 32 41  1  0  0  0  0
 32 33  1  6  0  0  0
 34 35  1  0  0  0  0
 35 37  1  0  0  0  0
 35 36  1  6  0  0  0
 37 39  1  0  0  0  0
 37 38  1  1  0  0  0
 39 41  1  0  0  0  0
 39 40  1  6  0  0  0
 41 42  1  1  0  0  0
M  CHG  6  12   1  20   1  24   1  29   1  33   1  36   1
M  END
>  <CHROM.1>
-148.37291927,19.87048391,149.13954148,-107.94108784,64.17837056,173.91990193
-14.43406212,61.94188748,-68.42159245,60.00020768,58.75522294,78.74818640
58.43608425,-145.40969043,-164.66876645,-63.30485180,-62.84898012,-51.28671396
-54.20953487,-89.36838985,108.61103488,-175.43392490,1.16058446,-0.28086222
1.80718802,0.06442047,-0.37912671,-0.39220031

>  <Name>
1NEM.B

>  <RI>
0

>  <Rbt.Current_Directory>
/home/itssahil/PROJECTS/Mol_Feturizer/New_Systems/rnas/1nem

>  <Rbt.Executable>
rbdock ($Id: //depot/dev/client3/rdock/2013.1/src/exe/rbdock.cxx#4 $)

>  <Rbt.Library>
libRbt.so (2013.1, Build901 2013/11/27)

>  <Rbt.Parameter_File>
/export/apps/rDock/src/rDock_2013.1_src/data/scripts/dock_solv.prm

>  <Rbt.Receptor>
prm/pocket_docking_3.prm

>  <SCORE>
-22.4662

>  <SCORE.INTER>
-40.3237

>  <SCORE.INTER.CONST>
1

>  <SCORE.INTER.POLAR>
-6.43754

>  <SCORE.INTER.ROT>
9

>  <SCORE.INTER.SOLV>
33.273

>  <SCORE.INTER.VDW>
-26.115

>  <SCORE.INTER.norm>
-0.960087

>  <SCORE.INTRA>
17.494

>  <SCORE.INTRA.DIHEDRAL>
16.5845

>  <SCORE.INTRA.DIHEDRAL.0>
22.4324

>  <SCORE.INTRA.POLAR>
0.968075

>  <SCORE.INTRA.POLAR.0>
-1.83749

>  <SCORE.INTRA.REPUL>
0

>  <SCORE.INTRA.REPUL.0>
0

>  <SCORE.INTRA.SOLV>
-0.18644

>  <SCORE.INTRA.SOLV.lig_0>
-160.638

>  <SCORE.INTRA.VDW>
6.0035

>  <SCORE.INTRA.VDW.0>
-7.61953

>  <SCORE.INTRA.norm>
0.416523

>  <SCORE.RESTR>
0.363445

>  <SCORE.RESTR.CAVITY>
0.363445

>  <SCORE.RESTR.norm>
0.00865346

>  <SCORE.SYSTEM>
0

>  <SCORE.SYSTEM.CONST>
0

>  <SCORE.SYSTEM.DIHEDRAL>
0

>  <SCORE.SYSTEM.SOLV>
0

>  <SCORE.SYSTEM.norm>
0

>  <SCORE.heavy>
42

>  <SCORE.norm>
-0.534911

>  <RMSD>
4.674

$$$$
1NEM.B
 OpenBabel11021811403D
libRbt.so/2013.1/901 2013/11/27
 42 45  0  0  0  0  0  0  0  0999 V2000
    2.1531   -5.7409    2.1396 O   0  0  0  0  0  0  0  0  0  0  0  0
    2.2041   -4.4316    2.7099 C   0  0  0  0  0  0  0  0  0  0  0  0
    1.6772   -3.3485    1.7697 C   0  0  1  0  0  0  0  0  0  0  0  0
    0.2747   -3.4956    1.5678 O   0  0  0  0  0  0  0  0  0  0  0  0
    1.8034   -1.9300    2.3020 C   0  0  1  0  0  0  0  0  0  0  0  0
    3.1882   -1.5791    2.2516 O   0  0  0  0  0  0  0  0  0  0  0  0
    0.8905   -1.2248    1.3166 C   0  0  1  0  0  0  0  0  0  0  0  0
    1.4545   -1.1688    0.0021 O   0  0  0  0  0  0  0  0  0  0  0  0
   -0.2895   -2.2033    1.3439 C   0  0  2  0  0  0  0  0  0  0  0  0
    3.5427   -0.3713    2.8622 C   0  0  2  0  0  0  0  0  0  0  0  0
    5.0638   -0.3330    3.0628 C   0  0  2  0  0  0  0  0  0  0  0  0
    5.5136   -1.5498    3.7890 N   0  3  0  0  0  0  0  0  0  0  0  0
    5.4860    0.9482    3.7892 C   0  0  1  0  0  0  0  0  0  0  0  0
    5.3250    2.0636    2.9229 O   0  0  0  0  0  0  0  0  0  0  0  0
    4.6585    1.1613    5.0605 C   0  0  2  0  0  0  0  0  0  0  0  0
    4.9817    0.1739    6.0315 O   0  0  0  0  0  0  0  0  0  0  0  0
    3.1719    1.0925    4.7228 C   0  0  1  0  0  0  0  0  0  0  0  0
    2.8736   -0.1725    4.1007 O   0  0  0  0  0  0  0  0  0  0  0  0
    2.2739    1.2401    5.9384 C   0  0  0  0  0  0  0  0  0  0  0  0
    2.0297    2.6602    6.2755 N   0  3  0  0  0  0  0  0  0  0  0  0
    0.3256    1.4658   -0.8615 C   0  0  0  0  0  0  0  0  0  0  0  0
   -2.4048   -0.2201    0.9904 C   0  0  2  0  0  0  0  0  0  0  0  0
   -3.5035    0.8378    0.9218 C   0  0  2  0  0  0  0  0  0  0  0  0
   -4.8261    0.2218    1.1845 N   0  3  0  0  0  0  0  0  0  0  0  0
   -3.5164    1.4926   -0.4530 C   0  0  1  0  0  0  0  0  0  0  0  0
   -4.4889    2.5261   -0.4789 O   0  0  0  0  0  0  0  0  0  0  0  0
   -2.1340    2.0642   -0.7596 C   0  0  2  0  0  0  0  0  0  0  0  0
   -2.1184    2.6164   -2.0697 O   0  0  0  0  0  0  0  0  0  0  0  0
    0.7085    2.4408    0.1852 N   0  3  0  0  0  0  0  0  0  0  0  0
   -1.0896    0.9543   -0.6561 C   0  0  2  0  0  0  0  0  0  0  0  0
   -1.1415    0.3448    0.6498 O   0  0  0  0  0  0  0  0  0  0  0  0
   -4.0770   -4.3119    2.8456 C   0  0  2  0  0  0  0  0  0  0  0  0
   -4.1957   -5.6186    3.5325 N   0  3  0  0  0  0  0  0  0  0  0  0
   -4.3628   -4.4776    1.3574 C   0  0  0  0  0  0  0  0  0  0  0  0
   -4.2421   -3.1417    0.6376 C   0  0  2  0  0  0  0  0  0  0  0  0
   -4.5271   -3.3674   -0.7724 N   0  3  0  0  0  0  0  0  0  0  0  0
   -2.8355   -2.5780    0.8254 C   0  0  1  0  0  0  0  0  0  0  0  0
   -2.7381   -1.3009    0.1653 O   0  0  0  0  0  0  0  0  0  0  0  0
   -2.5117   -2.4080    2.3162 C   0  0  2  0  0  0  0  0  0  0  0  0
   -1.1456   -1.9752    2.4612 O   0  0  0  0  0  0  0  0  0  0  0  0
   -2.6887   -3.7183    3.0792 C   0  0  1  0  0  0  0  0  0  0  0  0
   -2.5004   -3.4871    4.4691 O   0  0  0  0  0  0  0  0  0  0  0  0
  1  2  1  0  0  0  0
  3  2  1  1  0  0  0
  3  5  1  0  0  0  0
  3  4  1  0  0  0  0
  4  9  1  0  0  0  0
  5  7  1  0  0  0  0
  5  6  1  6  0  0  0
  7  9  1  0  0  0  0
  7  8  1  6  0  0  0
  9 40  1  1  0  0  0
 10  6  1  1  0  0  0
 10 11  1  0  0  0  0
 10 18  1  0  0  0  0
 11 13  1  0  0  0  0
 11 12  1  1  0  0  0
 13 15  1  0  0  0  0
 13 14  1  6  0  0  0
 15 17  1  0  0  0  0
 15 16  1  1  0  0  0
 17 19  1  1  0  0  0
 17 18  1  0  0  0  0
 19 20  1  0  0  0  0
 21 29  1  0  0  0  0
 22 23  1  0  0  0  0
 22 31  1  0  0  0  0
 22 38  1  6  0  0  0
 23 25  1  0  0  0  0
 23 24  1  6  0  0  0
 25 27  1  0  0  0  0
 25 26  1  1  0  0  0
 27 30  1  0  0  0  0
 27 28  1  6  0  0  0
 30 21  1  1  0  0  0
 30 31  1  0  0  0  0
 32 34  1  0  0  0  0
 32 41  1  0  0  0  0
 32 33  1  1  0  0  0
 34 35  1  0  0  0  0
 35 37  1  0  0  0  0
 35 36  1  6  0  0  0
 37 39  1  0  0  0  0
 37 38  1  6  0  0  0
 39 41  1  0  0  0  0
 39 40  1  6  0  0  0
 41 42  1  1  0  0  0
M  CHG  6  12   1  20   1  24   1  29   1  33   1  36   1
M  END
>  <CHROM.1>
171.57606552,67.84023832,-171.91949516,164.46588204,60.37772757,-90.26102422
164.67164065,-173.18538930,-73.24048788,84.60452768,159.21010205,62.67001280
-141.46268989,-121.26001317,55.22560752,69.29777464,175.39350824,-152.59025026
176.31392188,120.61548186,-19.31066604,170.27941481,-0.02969464,-0.93964553
1.99935018,-0.06413076,0.44967098,2.77800923

>  <Name>
1NEM.B

>  <RI>
0

>  <Rbt.Current_Directory>
/home/itssahil/PROJECTS/Mol_Feturizer/New_Systems/rnas/1nem

>  <Rbt.Executable>
rbdock ($Id: //depot/dev/client3/rdock/2013.1/src/exe/rbdock.cxx#4 $)

>  <Rbt.Library>
libRbt.so (2013.1, Build901 2013/11/27)

>  <Rbt.Parameter_File>
/export/apps/rDock/src/rDock_2013.1_src/data/scripts/dock_solv.prm

>  <Rbt.Receptor>
prm/pocket_docking_2.prm

>  <SCORE>
-10.6347

>  <SCORE.INTER>
-41.5214

>  <SCORE.INTER.CONST>
1

>  <SCORE.INTER.POLAR>
-4.79563

>  <SCORE.INTER.ROT>
9

>  <SCORE.INTER.SOLV>
46.7629

>  <SCORE.INTER.VDW>
-36.8831

>  <SCORE.INTER.norm>
-0.988604

>  <SCORE.INTRA>
27.8432

>  <SCORE.INTRA.DIHEDRAL>
13.5815

>  <SCORE.INTRA.DIHEDRAL.0>
22.4324

>  <SCORE.INTRA.POLAR>
1.76232

>  <SCORE.INTRA.POLAR.0>
-1.83749

>  <SCORE.INTRA.REPUL>
0

>  <SCORE.INTRA.REPUL.0>
0

>  <SCORE.INTRA.SOLV>
-4.29242

>  <SCORE.INTRA.SOLV.lig_0>
-160.638

>  <SCORE.INTRA.VDW>
17.2068

>  <SCORE.INTRA.VDW.0>
-7.61953

>  <SCORE.INTRA.norm>
0.662934

>  <SCORE.RESTR>
3.04345

>  <SCORE.RESTR.CAVITY>
3.04345

>  <SCORE.RESTR.norm>
0.072463

>  <SCORE.SYSTEM>
0

>  <SCORE.SYSTEM.CONST>
0

>  <SCORE.SYSTEM.DIHEDRAL>
0

>  <SCORE.SYSTEM.SOLV>
0

>  <SCORE.SYSTEM.norm>
0

>  <SCORE.heavy>
42

>  <SCORE.norm>
-0.253207

>  <RMSD>
4.683

$$$$
1NEM.B
 OpenBabel11021811403D
libRbt.so/2013.1/901 2013/11/27
 42 45  0  0  0  0  0  0  0  0999 V2000
    2.7593   -3.6700    2.5223 O   0  0  0  0  0  0  0  0  0  0  0  0
    1.4641   -3.8741    3.0906 C   0  0  0  0  0  0  0  0  0  0  0  0
    0.3715   -4.0593    2.0386 C   0  0  1  0  0  0  0  0  0  0  0  0
   -0.8086   -4.5977    2.6276 O   0  0  0  0  0  0  0  0  0  0  0  0
   -0.1182   -2.7700    1.3987 C   0  0  1  0  0  0  0  0  0  0  0  0
    0.9175   -2.3075    0.5288 O   0  0  0  0  0  0  0  0  0  0  0  0
   -1.3752   -3.2980    0.7332 C   0  0  1  0  0  0  0  0  0  0  0  0
   -1.0806   -4.1601   -0.3710 O   0  0  0  0  0  0  0  0  0  0  0  0
   -1.9393   -4.1124    1.9033 C   0  0  2  0  0  0  0  0  0  0  0  0
    1.5290   -1.1000    0.8826 C   0  0  2  0  0  0  0  0  0  0  0  0
    2.5108   -0.6871   -0.2223 C   0  0  2  0  0  0  0  0  0  0  0  0
    3.4551   -1.7995   -0.5076 N   0  3  0  0  0  0  0  0  0  0  0  0
    3.2503    0.5997    0.1581 C   0  0  1  0  0  0  0  0  0  0  0  0
    2.3510    1.6994    0.1100 O   0  0  0  0  0  0  0  0  0  0  0  0
    3.8584    0.4941    1.5600 C   0  0  2  0  0  0  0  0  0  0  0  0
    4.9230   -0.4486    1.5669 O   0  0  0  0  0  0  0  0  0  0  0  0
    2.7820    0.0713    2.5558 C   0  0  1  0  0  0  0  0  0  0  0  0
    2.1955   -1.1760    2.1360 O   0  0  0  0  0  0  0  0  0  0  0  0
    3.3105   -0.1111    3.9677 C   0  0  0  0  0  0  0  0  0  0  0  0
    4.1935   -1.2934    4.0785 N   0  3  0  0  0  0  0  0  0  0  0  0
   -9.1049   -6.0605    2.7915 C   0  0  0  0  0  0  0  0  0  0  0  0
   -6.1749   -4.4579    4.3958 C   0  0  2  0  0  0  0  0  0  0  0  0
   -5.5585   -5.6438    5.1339 C   0  0  2  0  0  0  0  0  0  0  0  0
   -4.1415   -5.3616    5.4655 N   0  3  0  0  0  0  0  0  0  0  0  0
   -5.6347   -6.8962    4.2709 C   0  0  1  0  0  0  0  0  0  0  0  0
   -5.1300   -8.0063    4.9971 O   0  0  0  0  0  0  0  0  0  0  0  0
   -7.0849   -7.1494    3.8648 C   0  0  2  0  0  0  0  0  0  0  0  0
   -7.1557   -8.2772    3.0019 O   0  0  0  0  0  0  0  0  0  0  0  0
   -9.4548   -5.2567    1.5980 N   0  3  0  0  0  0  0  0  0  0  0  0
   -7.6356   -5.9177    3.1487 C   0  0  2  0  0  0  0  0  0  0  0  0
   -7.5091   -4.7553    3.9928 O   0  0  0  0  0  0  0  0  0  0  0  0
   -4.5676   -0.2418    1.7319 C   0  0  2  0  0  0  0  0  0  0  0  0
   -4.1704    1.1830    1.6588 N   0  3  0  0  0  0  0  0  0  0  0  0
   -5.7304   -0.4095    2.7035 C   0  0  0  0  0  0  0  0  0  0  0  0
   -6.1482   -1.8707    2.7905 C   0  0  2  0  0  0  0  0  0  0  0  0
   -7.2580   -1.9621    3.7286 N   0  3  0  0  0  0  0  0  0  0  0  0
   -4.9682   -2.7192    3.2586 C   0  0  1  0  0  0  0  0  0  0  0  0
   -5.3637   -4.1038    3.3111 O   0  0  0  0  0  0  0  0  0  0  0  0
   -3.7748   -2.5651    2.3055 C   0  0  2  0  0  0  0  0  0  0  0  0
   -2.6482   -3.2931    2.8303 O   0  0  0  0  0  0  0  0  0  0  0  0
   -3.3736   -1.1009    2.1450 C   0  0  1  0  0  0  0  0  0  0  0  0
   -2.3512   -0.9940    1.1633 O   0  0  0  0  0  0  0  0  0  0  0  0
  1  2  1  0  0  0  0
  3  2  1  1  0  0  0
  3  5  1  0  0  0  0
  3  4  1  0  0  0  0
  4  9  1  0  0  0  0
  5  7  1  0  0  0  0
  5  6  1  6  0  0  0
  7  9  1  0  0  0  0
  7  8  1  6  0  0  0
  9 40  1  1  0  0  0
 10  6  1  6  0  0  0
 10 11  1  0  0  0  0
 10 18  1  0  0  0  0
 11 13  1  0  0  0  0
 11 12  1  1  0  0  0
 13 15  1  0  0  0  0
 13 14  1  1  0  0  0
 15 17  1  0  0  0  0
 15 16  1  6  0  0  0
 17 19  1  1  0  0  0
 17 18  1  0  0  0  0
 19 20  1  0  0  0  0
 21 29  1  0  0  0  0
 22 23  1  0  0  0  0
 22 31  1  0  0  0  0
 22 38  1  6  0  0  0
 23 25  1  0  0  0  0
 23 24  1  6  0  0  0
 25 27  1  0  0  0  0
 25 26  1  1  0  0  0
 27 30  1  0  0  0  0
 27 28  1  6  0  0  0
 30 21  1  1  0  0  0
 30 31  1  0  0  0  0
 32 34  1  0  0  0  0
 32 41  1  0  0  0  0
 32 33  1  1  0  0  0
 34 35  1  0  0  0  0
 35 37  1  0  0  0  0
 35 36  1  1  0  0  0
 37 39  1  0  0  0  0
 37 38  1  6  0  0  0
 39 41  1  0  0  0  0
 39 40  1  1  0  0  0
 41 42  1  6  0  0  0
M  CHG  6  12   1  20   1  24   1  29   1  33   1  36   1
M  END
>  <CHROM.1>
66.39977323,164.84097748,-114.37240280,-174.52192249,-166.05312434,173.96286226
171.48825629,71.26964899,73.49953402,-69.54657136,17.37785120,-152.20154026
-93.35662462,-126.72313356,-137.50056227,80.45469373,170.40728130,85.27077186
45.76770268,-75.50414214,133.82474104,46.98002016,-2.12554882,-2.92727372
2.39996413,-0.46606023,-0.04657478,2.80981989

>  <Name>
1NEM.B

>  <RI>
0

>  <Rbt.Current_Directory>
/home/itssahil/PROJECTS/Mol_Feturizer/New_Systems/rnas/1nem

>  <Rbt.Executable>
rbdock ($Id: //depot/dev/client3/rdock/2013.1/src/exe/rbdock.cxx#4 $)

>  <Rbt.Library>
libRbt.so (2013.1, Build901 2013/11/27)

>  <Rbt.Parameter_File>
/export/apps/rDock/src/rDock_2013.1_src/data/scripts/dock_solv.prm

>  <Rbt.Receptor>
prm/blind_docking_40.prm

>  <SCORE>
-28.7622

>  <SCORE.INTER>
-45.0883

>  <SCORE.INTER.CONST>
1

>  <SCORE.INTER.POLAR>
-8.2462

>  <SCORE.INTER.ROT>
9

>  <SCORE.INTER.SOLV>
45.7269

>  <SCORE.INTER.VDW>
-27.4138

>  <SCORE.INTER.norm>
-1.07353

>  <SCORE.INTRA>
11.2332

>  <SCORE.INTRA.DIHEDRAL>
18.545

>  <SCORE.INTRA.DIHEDRAL.0>
22.4324

>  <SCORE.INTRA.POLAR>
-1.30681

>  <SCORE.INTRA.POLAR.0>
-1.83749

>  <SCORE.INTRA.REPUL>
0

>  <SCORE.INTRA.REPUL.0>
0

>  <SCORE.INTRA.SOLV>
2.59762

>  <SCORE.INTRA.SOLV.lig_0>
-160.638

>  <SCORE.INTRA.VDW>
5.10504

>  <SCORE.INTRA.VDW.0>
-7.61953

>  <SCORE.INTRA.norm>
0.267457

>  <SCORE.RESTR>
5.09293

>  <SCORE.RESTR.CAVITY>
5.09293

>  <SCORE.RESTR.norm>
0.12126

>  <SCORE.SYSTEM>
0

>  <SCORE.SYSTEM.CONST>
0

>  <SCORE.SYSTEM.DIHEDRAL>
0

>  <SCORE.SYSTEM.SOLV>
0

>  <SCORE.SYSTEM.norm>
0

>  <SCORE.heavy>
42

>  <SCORE.norm>
-0.684813

>  <RMSD>
4.686

$$$$
1NEM.B
 OpenBabel11021811403D
libRbt.so/2013.1/901 2013/11/27
 42 45  0  0  0  0  0  0  0  0999 V2000
    0.8011   -5.7302    1.5566 O   0  0  0  0  0  0  0  0  0  0  0  0
   -0.5596   -5.7146    1.1201 C   0  0  0  0  0  0  0  0  0  0  0  0
   -0.9711   -4.3841    0.4914 C   0  0  1  0  0  0  0  0  0  0  0  0
   -2.1371   -4.5455   -0.3109 O   0  0  0  0  0  0  0  0  0  0  0  0
   -1.3822   -3.3118    1.4879 C   0  0  1  0  0  0  0  0  0  0  0  0
   -0.1936   -2.8620    2.1423 O   0  0  0  0  0  0  0  0  0  0  0  0
   -2.0372   -2.3355    0.5289 C   0  0  1  0  0  0  0  0  0  0  0  0
   -1.0831   -1.6913   -0.3219 O   0  0  0  0  0  0  0  0  0  0  0  0
   -2.8814   -3.3274   -0.2800 C   0  0  2  0  0  0  0  0  0  0  0  0
    0.7414   -2.1997    1.3397 C   0  0  2  0  0  0  0  0  0  0  0  0
    2.0144   -3.0508    1.2382 C   0  0  2  0  0  0  0  0  0  0  0  0
    2.5032   -3.4020    2.5977 N   0  3  0  0  0  0  0  0  0  0  0  0
    3.0893   -2.3289    0.4192 C   0  0  1  0  0  0  0  0  0  0  0  0
    2.7062   -2.2972   -0.9493 O   0  0  0  0  0  0  0  0  0  0  0  0
    3.3035   -0.8993    0.9261 C   0  0  2  0  0  0  0  0  0  0  0  0
    3.9038   -0.9170    2.2150 O   0  0  0  0  0  0  0  0  0  0  0  0
    1.9644   -0.1698    0.9853 C   0  0  1  0  0  0  0  0  0  0  0  0
    1.0506   -0.9002    1.8264 O   0  0  0  0  0  0  0  0  0  0  0  0
    2.0756    1.2432    1.5304 C   0  0  0  0  0  0  0  0  0  0  0  0
    2.7029    1.2705    2.8704 N   0  3  0  0  0  0  0  0  0  0  0  0
   -3.1474   -3.4646    4.4176 C   0  0  0  0  0  0  0  0  0  0  0  0
   -5.7643   -5.0230    2.3080 C   0  0  2  0  0  0  0  0  0  0  0  0
   -6.5390   -5.8289    3.3479 C   0  0  2  0  0  0  0  0  0  0  0  0
   -7.8891   -6.1641    2.8357 N   0  3  0  0  0  0  0  0  0  0  0  0
   -6.6729   -5.0303    4.6376 C   0  0  1  0  0  0  0  0  0  0  0  0
   -7.3260   -5.8190    5.6204 O   0  0  0  0  0  0  0  0  0  0  0  0
   -5.2872   -4.6187    5.1299 C   0  0  2  0  0  0  0  0  0  0  0  0
   -5.4073   -3.8139    6.2959 O   0  0  0  0  0  0  0  0  0  0  0  0
   -2.6801   -2.2654    3.6852 N   0  3  0  0  0  0  0  0  0  0  0  0
   -4.5699   -3.8332    4.0337 C   0  0  2  0  0  0  0  0  0  0  0  0
   -4.4998   -4.6183    2.8260 O   0  0  0  0  0  0  0  0  0  0  0  0
   -5.3879   -0.1143    0.4200 C   0  0  2  0  0  0  0  0  0  0  0  0
   -4.6786    1.1800    0.2976 N   0  3  0  0  0  0  0  0  0  0  0  0
   -6.0887   -0.1986    1.7713 C   0  0  0  0  0  0  0  0  0  0  0  0
   -6.8207   -1.5259    1.9122 C   0  0  2  0  0  0  0  0  0  0  0  0
   -7.4669   -1.5425    3.2169 N   0  3  0  0  0  0  0  0  0  0  0  0
   -5.8297   -2.6799    1.7806 C   0  0  1  0  0  0  0  0  0  0  0  0
   -6.5344   -3.9323    1.8868 O   0  0  0  0  0  0  0  0  0  0  0  0
   -5.0984   -2.6185    0.4324 C   0  0  2  0  0  0  0  0  0  0  0  0
   -4.1000   -3.6556    0.3836 O   0  0  0  0  0  0  0  0  0  0  0  0
   -4.4083   -1.2715    0.2321 C   0  0  1  0  0  0  0  0  0  0  0  0
   -3.8519   -1.2133   -1.0747 O   0  0  0  0  0  0  0  0  0  0  0  0
  1  2  1  0  0  0  0
  3  2  1  1  0  0  0
  3  5  1  0  0  0  0
  3  4  1  0  0  0  0
  4  9  1  0  0  0  0
  5  7  1  0  0  0  0
  5  6  1  6  0  0  0
  7  9  1  0  0  0  0
  7  8  1  6  0  0  0
  9 40  1  1  0  0  0
 10  6  1  1  0  0  0
 10 11  1  0  0  0  0
 10 18  1  0  0  0  0
 11 13  1  0  0  0  0
 11 12  1  1  0  0  0
 13 15  1  0  0  0  0
 13 14  1  6  0  0  0
 15 17  1  0  0  0  0
 15 16  1  1  0  0  0
 17 19  1  1  0  0  0
 17 18  1  0  0  0  0
 19 20  1  0  0  0  0
 21 29  1  0  0  0  0
 22 23  1  0  0  0  0
 22 31  1  0  0  0  0
 22 38  1  1  0  0  0
 23 25  1  0  0  0  0
 23 24  1  6  0  0  0
 25 27  1  0  0  0  0
 25 26  1  1  0  0  0
 27 30  1  0  0  0  0
 27 28  1  1  0  0  0
 30 21  1  1  0  0  0
 30 31  1  0  0  0  0
 32 34  1  0  0  0  0
 32 41  1  0  0  0  0
 32 33  1  1  0  0  0
 34 35  1  0  0  0  0
 35 37  1  0  0  0  0
 35 36  1  1  0  0  0
 37 39  1  0  0  0  0
 37 38  1  6  0  0  0
 39 41  1  0  0  0  0
 39 40  1  1  0  0  0
 41 42  1  6  0  0  0
M  CHG  6  12   1  20   1  24   1  29   1  33   1  36   1
M  END
>  <CHROM.1>
-71.26096481,160.56903509,65.57390176,-113.61048196,50.12207855,-174.13348783
-22.20610725,-28.68592992,55.82301166,-56.11801566,48.61665813,-155.03032600
83.81861185,136.07289851,179.04602170,-62.37297389,65.99948963,72.88839576
170.00370920,-155.83970851,-143.31815331,78.27387171,-2.45924438,-2.74640975
1.87565701,-0.34944186,-0.06265597,2.61628383

>  <Name>
1NEM.B

>  <RI>
0

>  <Rbt.Current_Directory>
/home/itssahil/PROJECTS/Mol_Feturizer/New_Systems/rnas/1nem

>  <Rbt.Executable>
rbdock ($Id: //depot/dev/client3/rdock/2013.1/src/exe/rbdock.cxx#4 $)

>  <Rbt.Library>
libRbt.so (2013.1, Build901 2013/11/27)

>  <Rbt.Parameter_File>
/export/apps/rDock/src/rDock_2013.1_src/data/scripts/dock_solv.prm

>  <Rbt.Receptor>
prm/blind_docking_100.prm

>  <SCORE>
10.9869

>  <SCORE.INTER>
-17.6167

>  <SCORE.INTER.CONST>
1

>  <SCORE.INTER.POLAR>
-6.12589

>  <SCORE.INTER.ROT>
9

>  <SCORE.INTER.SOLV>
42.8341

>  <SCORE.INTER.VDW>
-15.2029

>  <SCORE.INTER.norm>
-0.419446

>  <SCORE.INTRA>
27.5441

>  <SCORE.INTRA.DIHEDRAL>
13.6482

>  <SCORE.INTRA.DIHEDRAL.0>
22.4324

>  <SCORE.INTRA.POLAR>
0.10038

>  <SCORE.INTRA.POLAR.0>
-1.83749

>  <SCORE.INTRA.REPUL>
0

>  <SCORE.INTRA.REPUL.0>
0

>  <SCORE.INTRA.SOLV>
7.48136

>  <SCORE.INTRA.SOLV.lig_0>
-160.638

>  <SCORE.INTRA.VDW>
16.638

>  <SCORE.INTRA.VDW.0>
-7.61953

>  <SCORE.INTRA.norm>
0.655812

>  <SCORE.RESTR>
1.05952

>  <SCORE.RESTR.CAVITY>
1.05952

>  <SCORE.RESTR.norm>
0.0252267

>  <SCORE.SYSTEM>
0

>  <SCORE.SYSTEM.CONST>
0

>  <SCORE.SYSTEM.DIHEDRAL>
0

>  <SCORE.SYSTEM.SOLV>
0

>  <SCORE.SYSTEM.norm>
0

>  <SCORE.heavy>
42

>  <SCORE.norm>
0.261592

>  <RMSD>
4.704

$$$$
1NEM.B
 OpenBabel11021811403D
libRbt.so/2013.1/901 2013/11/27
 42 45  0  0  0  0  0  0  0  0999 V2000
    5.7285    4.6663   -0.3806 O   0  0  0  0  0  0  0  0  0  0  0  0
    5.6498    4.4235    1.0254 C   0  0  0  0  0  0  0  0  0  0  0  0
    4.2906    3.8802    1.4636 C   0  0  1  0  0  0  0  0  0  0  0  0
    3.5159    3.4906    0.3333 O   0  0  0  0  0  0  0  0  0  0  0  0
    4.3536    2.6088    2.2950 C   0  0  1  0  0  0  0  0  0  0  0  0
    4.8478    2.9700    3.5867 O   0  0  0  0  0  0  0  0  0  0  0  0
    2.8937    2.2028    2.2184 C   0  0  1  0  0  0  0  0  0  0  0  0
    2.0482    3.0824    2.9671 O   0  0  0  0  0  0  0  0  0  0  0  0
    2.6691    2.4064    0.7155 C   0  0  2  0  0  0  0  0  0  0  0  0
    5.0544    1.9184    4.4860 C   0  0  2  0  0  0  0  0  0  0  0  0
    3.7141    1.5261    5.1225 C   0  0  2  0  0  0  0  0  0  0  0  0
    3.0582    2.7240    5.7100 N   0  3  0  0  0  0  0  0  0  0  0  0
    3.9081    0.4191    6.1637 C   0  0  1  0  0  0  0  0  0  0  0  0
    4.2348   -0.8000    5.5096 O   0  0  0  0  0  0  0  0  0  0  0  0
    5.0162    0.7823    7.1569 C   0  0  2  0  0  0  0  0  0  0  0  0
    4.6058    1.8668    7.9800 O   0  0  0  0  0  0  0  0  0  0  0  0
    6.2849    1.1571    6.3961 C   0  0  1  0  0  0  0  0  0  0  0  0
    6.0053    2.2434    5.4917 O   0  0  0  0  0  0  0  0  0  0  0  0
    7.4240    1.5851    7.3045 C   0  0  0  0  0  0  0  0  0  0  0  0
    8.0112    0.4379    8.0319 N   0  3  0  0  0  0  0  0  0  0  0  0
   -3.1887   -0.6120    0.4516 C   0  0  0  0  0  0  0  0  0  0  0  0
    0.4767   -0.0748    0.3974 C   0  0  2  0  0  0  0  0  0  0  0  0
    0.9714   -1.3549    1.0664 C   0  0  2  0  0  0  0  0  0  0  0  0
    2.4011   -1.5814    0.7468 N   0  3  0  0  0  0  0  0  0  0  0  0
    0.1529   -2.5468    0.5886 C   0  0  1  0  0  0  0  0  0  0  0  0
    0.5705   -3.7169    1.2749 O   0  0  0  0  0  0  0  0  0  0  0  0
   -1.3292   -2.2860    0.8485 C   0  0  2  0  0  0  0  0  0  0  0  0
   -2.1061   -3.3639    0.3425 O   0  0  0  0  0  0  0  0  0  0  0  0
   -3.7209    0.3247   -0.5646 N   0  3  0  0  0  0  0  0  0  0  0  0
   -1.7450   -0.9855    0.1637 C   0  0  2  0  0  0  0  0  0  0  0  0
   -0.9190    0.1034    0.6239 O   0  0  0  0  0  0  0  0  0  0  0  0
    2.7432    2.6522   -3.5413 C   0  0  2  0  0  0  0  0  0  0  0  0
    3.1844    3.9326   -4.1408 N   0  3  0  0  0  0  0  0  0  0  0  0
    1.2238    2.5441   -3.6032 C   0  0  0  0  0  0  0  0  0  0  0  0
    0.7555    1.2328   -2.9880 C   0  0  2  0  0  0  0  0  0  0  0  0
   -0.6971    1.1910   -3.0795 N   0  3  0  0  0  0  0  0  0  0  0  0
    1.2121    1.1517   -1.5333 C   0  0  1  0  0  0  0  0  0  0  0  0
    0.7894   -0.1041   -0.9669 O   0  0  0  0  0  0  0  0  0  0  0  0
    2.7395    1.2676   -1.4347 C   0  0  2  0  0  0  0  0  0  0  0  0
    3.1274    1.2926   -0.0478 O   0  0  0  0  0  0  0  0  0  0  0  0
    3.2471    2.5428   -2.1032 C   0  0  1  0  0  0  0  0  0  0  0  0
    4.6686    2.5475   -2.0979 O   0  0  0  0  0  0  0  0  0  0  0  0
  1  2  1  0  0  0  0
  3  2  1  6  0  0  0
  3  5  1  0  0  0  0
  3  4  1  0  0  0  0
  4  9  1  0  0  0  0
  5  7  1  0  0  0  0
  5  6  1  1  0  0  0
  7  9  1  0  0  0  0
  7  8  1  1  0  0  0
  9 40  1  6  0  0  0
 10  6  1  6  0  0  0
 10 11  1  0  0  0  0
 10 18  1  0  0  0  0
 11 13  1  0  0  0  0
 11 12  1  1  0  0  0
 13 15  1  0  0  0  0
 13 14  1  6  0  0  0
 15 17  1  0  0  0  0
 15 16  1  6  0  0  0
 17 19  1  1  0  0  0
 17 18  1  0  0  0  0
 19 20  1  0  0  0  0
 21 29  1  0  0  0  0
 22 23  1  0  0  0  0
 22 31  1  0  0  0  0
 22 38  1  6  0  0  0
 23 25  1  0  0  0  0
 23 24  1  6  0  0  0
 25 27  1  0  0  0  0
 25 26  1  1  0  0  0
 27 30  1  0  0  0  0
 27 28  1  6  0  0  0
 30 21  1  1  0  0  0
 30 31  1  0  0  0  0
 32 34  1  0  0  0  0
 32 41  1  0  0  0  0
 32 33  1  1  0  0  0
 34 35  1  0  0  0  0
 35 37  1  0  0  0  0
 35 36  1  1  0  0  0
 37 39  1  0  0  0  0
 37 38  1  6  0  0  0
 39 41  1  0  0  0  0
 39 40  1  1  0  0  0
 41 42  1  6  0  0  0
M  CHG  6  12   1  20   1  24   1  29   1  33   1  36   1
M  END
>  <CHROM.1>
169.91457331,11.77526929,-176.42829877,-80.65114728,46.17373044,-76.68659596
90.26602084,-51.54505670,-67.31582074,72.74716697,-176.72473078,-159.21801050
103.81247774,-141.25257236,157.78073544,-91.74373765,-61.43560156,-68.39574305
50.02022759,-147.42882546,-63.84431483,157.55292433,2.57214903,1.14045512
1.53284278,-0.70535876,-0.66295437,-1.12842364

>  <Name>
1NEM.B

>  <RI>
0

>  <Rbt.Current_Directory>
/home/itssahil/PROJECTS/Mol_Feturizer/New_Systems/rnas/1nem

>  <Rbt.Executable>
rbdock ($Id: //depot/dev/client3/rdock/2013.1/src/exe/rbdock.cxx#4 $)

>  <Rbt.Library>
libRbt.so (2013.1, Build901 2013/11/27)

>  <Rbt.Parameter_File>
/export/apps/rDock/src/rDock_2013.1_src/data/scripts/dock_solv.prm

>  <Rbt.Receptor>
prm/pocket_docking_4.prm

>  <SCORE>
-20.3092

>  <SCORE.INTER>
-27.5655

>  <SCORE.INTER.CONST>
1

>  <SCORE.INTER.POLAR>
-4.82801

>  <SCORE.INTER.ROT>
9

>  <SCORE.INTER.SOLV>
25.9611

>  <SCORE.INTER.VDW>
-20.5373

>  <SCORE.INTER.norm>
-0.656321

>  <SCORE.INTRA>
5.37204

>  <SCORE.INTRA.DIHEDRAL>
12.1279

>  <SCORE.INTRA.DIHEDRAL.0>
22.4324

>  <SCORE.INTRA.POLAR>
-1.26198

>  <SCORE.INTRA.POLAR.0>
-1.83749

>  <SCORE.INTRA.REPUL>
0

>  <SCORE.INTRA.REPUL.0>
0

>  <SCORE.INTRA.SOLV>
-1.17179

>  <SCORE.INTRA.SOLV.lig_0>
-160.638

>  <SCORE.INTRA.VDW>
4.18471

>  <SCORE.INTRA.VDW.0>
-7.61953

>  <SCORE.INTRA.norm>
0.127906

>  <SCORE.RESTR>
1.88418

>  <SCORE.RESTR.CAVITY>
1.88418

>  <SCORE.RESTR.norm>
0.0448615

>  <SCORE.SYSTEM>
0

>  <SCORE.SYSTEM.CONST>
0

>  <SCORE.SYSTEM.DIHEDRAL>
0

>  <SCORE.SYSTEM.SOLV>
0

>  <SCORE.SYSTEM.norm>
0

>  <SCORE.heavy>
42

>  <SCORE.norm>
-0.483553

>  <RMSD>
4.704

$$$$
1NEM.B
 OpenBabel11021811403D
libRbt.so/2013.1/901 2013/11/27
 42 45  0  0  0  0  0  0  0  0999 V2000
   -0.2889   -5.6638    1.3824 O   0  0  0  0  0  0  0  0  0  0  0  0
    0.6932   -4.6555    1.6293 C   0  0  0  0  0  0  0  0  0  0  0  0
    0.3166   -3.2966    1.0408 C   0  0  1  0  0  0  0  0  0  0  0  0
   -1.0880   -3.2166    0.8170 O   0  0  0  0  0  0  0  0  0  0  0  0
    0.5896   -2.1121    1.9540 C   0  0  1  0  0  0  0  0  0  0  0  0
    2.0061   -1.9244    1.9942 O   0  0  0  0  0  0  0  0  0  0  0  0
   -0.2122   -1.0553    1.2178 C   0  0  1  0  0  0  0  0  0  0  0  0
    0.3874   -0.6945   -0.0309 O   0  0  0  0  0  0  0  0  0  0  0  0
   -1.4960   -1.8576    0.9751 C   0  0  2  0  0  0  0  0  0  0  0  0
    2.4596   -0.7789    2.6571 C   0  0  2  0  0  0  0  0  0  0  0  0
    2.9714    0.2342    1.6242 C   0  0  2  0  0  0  0  0  0  0  0  0
    3.9768   -0.4063    0.7359 N   0  3  0  0  0  0  0  0  0  0  0  0
    3.5380    1.4787    2.3154 C   0  0  1  0  0  0  0  0  0  0  0  0
    2.4773    2.2301    2.8908 O   0  0  0  0  0  0  0  0  0  0  0  0
    4.5460    1.0962    3.4035 C   0  0  2  0  0  0  0  0  0  0  0  0
    5.7198    0.5468    2.8183 O   0  0  0  0  0  0  0  0  0  0  0  0
    3.9149    0.0831    4.3544 C   0  0  1  0  0  0  0  0  0  0  0  0
    3.4724   -1.0695    3.6116 O   0  0  0  0  0  0  0  0  0  0  0  0
    4.8657   -0.3945    5.4379 C   0  0  0  0  0  0  0  0  0  0  0  0
    6.0518   -1.0745    4.8716 N   0  3  0  0  0  0  0  0  0  0  0  0
   -5.6730    0.1268    3.2879 C   0  0  0  0  0  0  0  0  0  0  0  0
   -5.0043   -0.5221   -0.2980 C   0  0  2  0  0  0  0  0  0  0  0  0
   -4.6905    0.8859   -0.7981 C   0  0  2  0  0  0  0  0  0  0  0  0
   -3.9500    0.8218   -2.0807 N   0  3  0  0  0  0  0  0  0  0  0  0
   -3.8532    1.6338    0.2308 C   0  0  1  0  0  0  0  0  0  0  0  0
   -3.6341    2.9649   -0.2105 O   0  0  0  0  0  0  0  0  0  0  0  0
   -4.5789    1.6384    1.5743 C   0  0  2  0  0  0  0  0  0  0  0  0
   -3.7727    2.2745    2.5575 O   0  0  0  0  0  0  0  0  0  0  0  0
   -5.9782   -1.2741    3.6585 N   0  3  0  0  0  0  0  0  0  0  0  0
   -4.8718    0.2009    1.9998 C   0  0  2  0  0  0  0  0  0  0  0  0
   -5.6356   -0.4727    0.9787 O   0  0  0  0  0  0  0  0  0  0  0  0
   -5.2285   -4.2715    2.4044 C   0  0  2  0  0  0  0  0  0  0  0  0
   -5.3471   -5.5642    3.1172 N   0  3  0  0  0  0  0  0  0  0  0  0
   -5.4280   -4.4816    0.9076 C   0  0  0  0  0  0  0  0  0  0  0  0
   -5.3064   -3.1605    0.1612 C   0  0  2  0  0  0  0  0  0  0  0  0
   -5.5076   -3.4286   -1.2557 N   0  3  0  0  0  0  0  0  0  0  0  0
   -3.9289   -2.5506    0.4099 C   0  0  1  0  0  0  0  0  0  0  0  0
   -3.8322   -1.2875   -0.2767 O   0  0  0  0  0  0  0  0  0  0  0  0
   -3.6918   -2.3350    1.9110 C   0  0  2  0  0  0  0  0  0  0  0  0
   -2.3485   -1.8581    2.1181 O   0  0  0  0  0  0  0  0  0  0  0  0
   -3.8725   -3.6313    2.6969 C   0  0  1  0  0  0  0  0  0  0  0  0
   -3.7669   -3.3610    4.0884 O   0  0  0  0  0  0  0  0  0  0  0  0
  1  2  1  0  0  0  0
  3  2  1  1  0  0  0
  3  5  1  0  0  0  0
  3  4  1  0  0  0  0
  4  9  1  0  0  0  0
  5  7  1  0  0  0  0
  5  6  1  6  0  0  0
  7  9  1  0  0  0  0
  7  8  1  6  0  0  0
  9 40  1  1  0  0  0
 10  6  1  6  0  0  0
 10 11  1  0  0  0  0
 10 18  1  0  0  0  0
 11 13  1  0  0  0  0
 11 12  1  1  0  0  0
 13 15  1  0  0  0  0
 13 14  1  1  0  0  0
 15 17  1  0  0  0  0
 15 16  1  6  0  0  0
 17 19  1  1  0  0  0
 17 18  1  0  0  0  0
 19 20  1  0  0  0  0
 21 29  1  0  0  0  0
 22 23  1  0  0  0  0
 22 31  1  0  0  0  0
 22 38  1  1  0  0  0
 23 25  1  0  0  0  0
 23 24  1  6  0  0  0
 25 27  1  0  0  0  0
 25 26  1  6  0  0  0
 27 30  1  0  0  0  0
 27 28  1  1  0  0  0
 30 21  1  1  0  0  0
 30 31  1  0  0  0  0
 32 34  1  0  0  0  0
 32 41  1  0  0  0  0
 32 33  1  1  0  0  0
 34 35  1  0  0  0  0
 35 37  1  0  0  0  0
 35 36  1  6  0  0  0
 37 39  1  0  0  0  0
 37 38  1  6  0  0  0
 39 41  1  0  0  0  0
 39 40  1  6  0  0  0
 41 42  1  1  0  0  0
M  CHG  6  12   1  20   1  24   1  29   1  33   1  36   1
M  END
>  <CHROM.1>
53.28908181,21.00609322,172.61463475,-107.34740803,-18.20906681,-78.05768994
-158.09977589,177.67983166,76.16032257,-61.09604759,93.63119593,178.33504584
-162.62828514,168.65350544,69.49040459,-165.46759541,-38.16709270,100.77011443
-89.79706935,36.65976992,-7.95576739,61.19774768,-1.27848058,-1.20060559
1.73316563,-0.11736609,0.24665445,2.93972755

>  <Name>
1NEM.B

>  <RI>
0

>  <Rbt.Current_Directory>
/home/itssahil/PROJECTS/Mol_Feturizer/New_Systems/rnas/1nem

>  <Rbt.Executable>
rbdock ($Id: //depot/dev/client3/rdock/2013.1/src/exe/rbdock.cxx#4 $)

>  <Rbt.Library>
libRbt.so (2013.1, Build901 2013/11/27)

>  <Rbt.Parameter_File>
/export/apps/rDock/src/rDock_2013.1_src/data/scripts/dock_solv.prm

>  <Rbt.Receptor>
prm/blind_docking_40.prm

>  <SCORE>
-1.87655

>  <SCORE.INTER>
-28.2947

>  <SCORE.INTER.CONST>
1

>  <SCORE.INTER.POLAR>
-6.7859

>  <SCORE.INTER.ROT>
9

>  <SCORE.INTER.SOLV>
49.8545

>  <SCORE.INTER.VDW>
-22.4616

>  <SCORE.INTER.norm>
-0.673683

>  <SCORE.INTRA>
21.8132

>  <SCORE.INTRA.DIHEDRAL>
18.5584

>  <SCORE.INTRA.DIHEDRAL.0>
22.4324

>  <SCORE.INTRA.POLAR>
0.586704

>  <SCORE.INTRA.POLAR.0>
-1.83749

>  <SCORE.INTRA.REPUL>
0

>  <SCORE.INTRA.REPUL.0>
0

>  <SCORE.INTRA.SOLV>
2.30063

>  <SCORE.INTRA.SOLV.lig_0>
-160.638

>  <SCORE.INTRA.VDW>
9.38889

>  <SCORE.INTRA.VDW.0>
-7.61953

>  <SCORE.INTRA.norm>
0.519362

>  <SCORE.RESTR>
4.60494

>  <SCORE.RESTR.CAVITY>
4.60494

>  <SCORE.RESTR.norm>
0.109641

>  <SCORE.SYSTEM>
0

>  <SCORE.SYSTEM.CONST>
0

>  <SCORE.SYSTEM.DIHEDRAL>
0

>  <SCORE.SYSTEM.SOLV>
0

>  <SCORE.SYSTEM.norm>
0

>  <SCORE.heavy>
42

>  <SCORE.norm>
-0.0446798

>  <RMSD>
4.717

$$$$
1NEM.B
 OpenBabel11021811403D
libRbt.so/2013.1/901 2013/11/27
 42 45  0  0  0  0  0  0  0  0999 V2000
   -0.3929   -6.4037    1.3902 O   0  0  0  0  0  0  0  0  0  0  0  0
    0.4033   -5.2185    1.3311 C   0  0  0  0  0  0  0  0  0  0  0  0
   -0.3642   -4.0079    0.8020 C   0  0  1  0  0  0  0  0  0  0  0  0
   -1.5132   -4.4214    0.0683 O   0  0  0  0  0  0  0  0  0  0  0  0
   -0.9470   -3.1061    1.8785 C   0  0  1  0  0  0  0  0  0  0  0  0
    0.1428   -2.4023    2.4787 O   0  0  0  0  0  0  0  0  0  0  0  0
   -1.8891   -2.2864    1.0168 C   0  0  1  0  0  0  0  0  0  0  0  0
   -1.1861   -1.3974    0.1425 O   0  0  0  0  0  0  0  0  0  0  0  0
   -2.5259   -3.4253    0.2117 C   0  0  2  0  0  0  0  0  0  0  0  0
    1.0162   -1.7505    1.6015 C   0  0  2  0  0  0  0  0  0  0  0  0
    2.2059   -2.6705    1.2954 C   0  0  2  0  0  0  0  0  0  0  0  0
    2.8316   -3.1341    2.5618 N   0  3  0  0  0  0  0  0  0  0  0  0
    3.2199   -1.9669    0.3875 C   0  0  1  0  0  0  0  0  0  0  0  0
    2.6757   -1.8275   -0.9183 O   0  0  0  0  0  0  0  0  0  0  0  0
    3.5919   -0.5872    0.9392 C   0  0  2  0  0  0  0  0  0  0  0  0
    4.3423   -0.7212    2.1396 O   0  0  0  0  0  0  0  0  0  0  0  0
    2.3233    0.2183    1.2053 C   0  0  1  0  0  0  0  0  0  0  0  0
    1.4709   -0.5050    2.1143 O   0  0  0  0  0  0  0  0  0  0  0  0
    2.5970    1.5855    1.8069 C   0  0  0  0  0  0  0  0  0  0  0  0
    1.6261    2.5994    1.3385 N   0  3  0  0  0  0  0  0  0  0  0  0
   -7.7690   -5.6759    2.4684 C   0  0  0  0  0  0  0  0  0  0  0  0
   -5.1222   -4.2661    4.6442 C   0  0  2  0  0  0  0  0  0  0  0  0
   -4.8413   -5.4479    5.5690 C   0  0  2  0  0  0  0  0  0  0  0  0
   -3.5170   -5.2897    6.2161 N   0  3  0  0  0  0  0  0  0  0  0  0
   -4.8642   -6.7496    4.7789 C   0  0  1  0  0  0  0  0  0  0  0  0
   -4.6792   -7.8456    5.6616 O   0  0  0  0  0  0  0  0  0  0  0  0
   -6.1997   -6.8815    4.0502 C   0  0  2  0  0  0  0  0  0  0  0  0
   -6.2026   -8.0602    3.2551 O   0  0  0  0  0  0  0  0  0  0  0  0
   -7.9931   -4.4405    1.6833 N   0  3  0  0  0  0  0  0  0  0  0  0
   -6.4169   -5.6594    3.1600 C   0  0  2  0  0  0  0  0  0  0  0  0
   -6.3518   -4.4537    3.9485 O   0  0  0  0  0  0  0  0  0  0  0  0
   -5.5728   -0.9055    1.4032 C   0  0  2  0  0  0  0  0  0  0  0  0
   -5.6268    0.3391    0.6024 N   0  3  0  0  0  0  0  0  0  0  0  0
   -5.0805   -0.5973    2.8127 C   0  0  0  0  0  0  0  0  0  0  0  0
   -5.0178   -1.8689    3.6473 C   0  0  2  0  0  0  0  0  0  0  0  0
   -4.5442   -1.5074    4.9759 N   0  3  0  0  0  0  0  0  0  0  0  0
   -4.0763   -2.8743    2.9884 C   0  0  1  0  0  0  0  0  0  0  0  0
   -4.0444   -4.0850    3.7692 O   0  0  0  0  0  0  0  0  0  0  0  0
   -4.5390   -3.1993    1.5614 C   0  0  2  0  0  0  0  0  0  0  0  0
   -3.5755   -4.0663    0.9333 O   0  0  0  0  0  0  0  0  0  0  0  0
   -4.6762   -1.9348    0.7171 C   0  0  1  0  0  0  0  0  0  0  0  0
   -5.2234   -2.2686   -0.5516 O   0  0  0  0  0  0  0  0  0  0  0  0
  1  2  1  0  0  0  0
  3  2  1  1  0  0  0
  3  5  1  0  0  0  0
  3  4  1  0  0  0  0
  4  9  1  0  0  0  0
  5  7  1  0  0  0  0
  5  6  1  6  0  0  0
  7  9  1  0  0  0  0
  7  8  1  6  0  0  0
  9 40  1  1  0  0  0
 10  6  1  1  0  0  0
 10 11  1  0  0  0  0
 10 18  1  0  0  0  0
 11 13  1  0  0  0  0
 11 12  1  1  0  0  0
 13 15  1  0  0  0  0
 13 14  1  6  0  0  0
 15 17  1  0  0  0  0
 15 16  1  1  0  0  0
 17 19  1  1  0  0  0
 17 18  1  0  0  0  0
 19 20  1  0  0  0  0
 21 29  1  0  0  0  0
 22 23  1  0  0  0  0
 22 31  1  0  0  0  0
 22 38  1  6  0  0  0
 23 25  1  0  0  0  0
 23 24  1  6  0  0  0
 25 27  1  0  0  0  0
 25 26  1  1  0  0  0
 27 30  1  0  0  0  0
 27 28  1  6  0  0  0
 30 21  1  1  0  0  0
 30 31  1  0  0  0  0
 32 34  1  0  0  0  0
 32 41  1  0  0  0  0
 32 33  1  6  0  0  0
 34 35  1  0  0  0  0
 35 37  1  0  0  0  0
 35 36  1  1  0  0  0
 37 39  1  0  0  0  0
 37 38  1  1  0  0  0
 39 41  1  0  0  0  0
 39 40  1  6  0  0  0
 41 42  1  6  0  0  0
M  CHG  6  12   1  20   1  24   1  29   1  33   1  36   1
M  END
>  <CHROM.1>
107.89110730,-20.31057869,51.06176768,-94.49258241,-168.62363394,161.96548884
-30.67322638,-60.15726137,176.85166275,145.73967957,172.83063371,176.23443362
-85.09482989,-170.26570477,171.35917806,52.98346337,179.34891466,-155.84926662
35.28877768,19.45651743,-90.46919808,-22.95153529,-2.28552556,-3.07400705
2.19274046,-0.53643897,-0.05702245,2.73392815

>  <Name>
1NEM.B

>  <RI>
0

>  <Rbt.Current_Directory>
/home/itssahil/PROJECTS/Mol_Feturizer/New_Systems/rnas/1nem

>  <Rbt.Executable>
rbdock ($Id: //depot/dev/client3/rdock/2013.1/src/exe/rbdock.cxx#4 $)

>  <Rbt.Library>
libRbt.so (2013.1, Build901 2013/11/27)

>  <Rbt.Parameter_File>
/export/apps/rDock/src/rDock_2013.1_src/data/scripts/dock_solv.prm

>  <Rbt.Receptor>
prm/blind_docking_40.prm

>  <SCORE>
-7.33178

>  <SCORE.INTER>
-39.101

>  <SCORE.INTER.CONST>
1

>  <SCORE.INTER.POLAR>
-7.74833

>  <SCORE.INTER.ROT>
9

>  <SCORE.INTER.SOLV>
45.562

>  <SCORE.INTER.VDW>
-25.0269

>  <SCORE.INTER.norm>
-0.930975

>  <SCORE.INTRA>
27.9678

>  <SCORE.INTRA.DIHEDRAL>
19.7024

>  <SCORE.INTRA.DIHEDRAL.0>
22.4324

>  <SCORE.INTRA.POLAR>
1.83749

>  <SCORE.INTRA.POLAR.0>
-1.83749

>  <SCORE.INTRA.REPUL>
0

>  <SCORE.INTRA.REPUL.0>
0

>  <SCORE.INTRA.SOLV>
-3.70899

>  <SCORE.INTRA.SOLV.lig_0>
-160.638

>  <SCORE.INTRA.VDW>
13.7237

>  <SCORE.INTRA.VDW.0>
-7.61953

>  <SCORE.INTRA.norm>
0.665901

>  <SCORE.RESTR>
3.80134

>  <SCORE.RESTR.CAVITY>
3.80134

>  <SCORE.RESTR.norm>
0.0905081

>  <SCORE.SYSTEM>
0

>  <SCORE.SYSTEM.CONST>
0

>  <SCORE.SYSTEM.DIHEDRAL>
0

>  <SCORE.SYSTEM.SOLV>
0

>  <SCORE.SYSTEM.norm>
0

>  <SCORE.heavy>
42

>  <SCORE.norm>
-0.174566

>  <RMSD>
4.768

$$$$
1NEM.B
 OpenBabel11021811403D
libRbt.so/2013.1/901 2013/11/27
 42 45  0  0  0  0  0  0  0  0999 V2000
    2.6920    0.9958   -3.1968 O   0  0  0  0  0  0  0  0  0  0  0  0
    1.3103    0.6388   -3.1230 C   0  0  0  0  0  0  0  0  0  0  0  0
    0.6398    1.1059   -1.8319 C   0  0  1  0  0  0  0  0  0  0  0  0
   -0.6953    0.6153   -1.7518 O   0  0  0  0  0  0  0  0  0  0  0  0
    1.2797    0.5779   -0.5578 C   0  0  1  0  0  0  0  0  0  0  0  0
    2.5242    1.2615   -0.3927 O   0  0  0  0  0  0  0  0  0  0  0  0
    0.1785    0.9308    0.4245 C   0  0  1  0  0  0  0  0  0  0  0  0
    0.0719    2.3431    0.6322 O   0  0  0  0  0  0  0  0  0  0  0  0
   -1.0260    0.4222   -0.3763 C   0  0  2  0  0  0  0  0  0  0  0  0
    3.2346    0.9784    0.7788 C   0  0  2  0  0  0  0  0  0  0  0  0
    2.7425    1.8989    1.9039 C   0  0  2  0  0  0  0  0  0  0  0  0
    2.8083    3.3185    1.4673 N   0  3  0  0  0  0  0  0  0  0  0  0
    3.5425    1.6645    3.1894 C   0  0  1  0  0  0  0  0  0  0  0  0
    3.2007    0.3996    3.7407 O   0  0  0  0  0  0  0  0  0  0  0  0
    5.0495    1.7175    2.9203 C   0  0  2  0  0  0  0  0  0  0  0  0
    5.4453    3.0418    2.5863 O   0  0  0  0  0  0  0  0  0  0  0  0
    5.4010    0.7658    1.7803 C   0  0  1  0  0  0  0  0  0  0  0  0
    4.6395    1.1116    0.6071 O   0  0  0  0  0  0  0  0  0  0  0  0
    6.8732    0.7941    1.4086 C   0  0  0  0  0  0  0  0  0  0  0  0
    7.7278    0.2695    2.4969 N   0  3  0  0  0  0  0  0  0  0  0  0
   -5.3033   -3.9832   -0.0955 C   0  0  0  0  0  0  0  0  0  0  0  0
   -3.8954   -0.7108    0.9225 C   0  0  2  0  0  0  0  0  0  0  0  0
   -5.1391   -0.0119    1.4663 C   0  0  2  0  0  0  0  0  0  0  0  0
   -4.7505    1.1171    2.3448 N   0  3  0  0  0  0  0  0  0  0  0  0
   -5.9906   -0.9962    2.2570 C   0  0  1  0  0  0  0  0  0  0  0  0
   -7.1802   -0.3550    2.6909 O   0  0  0  0  0  0  0  0  0  0  0  0
   -6.3318   -2.1976    1.3782 C   0  0  2  0  0  0  0  0  0  0  0  0
   -7.0683   -3.1534    2.1302 O   0  0  0  0  0  0  0  0  0  0  0  0
   -6.0768   -5.0655    0.5550 N   0  3  0  0  0  0  0  0  0  0  0  0
   -5.0424   -2.8322    0.8605 C   0  0  2  0  0  0  0  0  0  0  0  0
   -4.2578   -1.8525    0.1504 O   0  0  0  0  0  0  0  0  0  0  0  0
    0.5100   -3.3696    2.1271 C   0  0  2  0  0  0  0  0  0  0  0  0
    1.4737   -4.4651    1.8730 N   0  3  0  0  0  0  0  0  0  0  0  0
   -0.7587   -3.9284    2.7613 C   0  0  0  0  0  0  0  0  0  0  0  0
   -1.7601   -2.8130    3.0264 C   0  0  2  0  0  0  0  0  0  0  0  0
   -2.9428   -3.4098    3.6308 N   0  3  0  0  0  0  0  0  0  0  0  0
   -2.1127   -2.1122    1.7164 C   0  0  1  0  0  0  0  0  0  0  0  0
   -3.0389   -1.0402    1.9798 O   0  0  0  0  0  0  0  0  0  0  0  0
   -0.8535   -1.5457    1.0459 C   0  0  2  0  0  0  0  0  0  0  0  0
   -1.2055   -0.9851   -0.2333 O   0  0  0  0  0  0  0  0  0  0  0  0
    0.1987   -2.6299    0.8271 C   0  0  1  0  0  0  0  0  0  0  0  0
    1.3891   -2.0405    0.3210 O   0  0  0  0  0  0  0  0  0  0  0  0
  1  2  1  0  0  0  0
  3  2  1  6  0  0  0
  3  5  1  0  0  0  0
  3  4  1  0  0  0  0
  4  9  1  0  0  0  0
  5  7  1  0  0  0  0
  5  6  1  1  0  0  0
  7  9  1  0  0  0  0
  7  8  1  6  0  0  0
  9 40  1  6  0  0  0
 10  6  1  6  0  0  0
 10 11  1  0  0  0  0
 10 18  1  0  0  0  0
 11 13  1  0  0  0  0
 11 12  1  6  0  0  0
 13 15  1  0  0  0  0
 13 14  1  6  0  0  0
 15 17  1  0  0  0  0
 15 16  1  6  0  0  0
 17 19  1  6  0  0  0
 17 18  1  0  0  0  0
 19 20  1  0  0  0  0
 21 29  1  0  0  0  0
 22 23  1  0  0  0  0
 22 31  1  0  0  0  0
 22 38  1  1  0  0  0
 23 25  1  0  0  0  0
 23 24  1  1  0  0  0
 25 27  1  0  0  0  0
 25 26  1  6  0  0  0
 27 30  1  0  0  0  0
 27 28  1  1  0  0  0
 30 21  1  6  0  0  0
 30 31  1  0  0  0  0
 32 34  1  0  0  0  0
 32 41  1  0  0  0  0
 32 33  1  6  0  0  0
 34 35  1  0  0  0  0
 35 37  1  0  0  0  0
 35 36  1  6  0  0  0
 37 39  1  0  0  0  0
 37 38  1  1  0  0  0
 39 41  1  0  0  0  0
 39 40  1  6  0  0  0
 41 42  1  1  0  0  0
M  CHG  6  12   1  20   1  24   1  29   1  33   1  36   1
M  END
>  <CHROM.1>
164.74183048,-174.41368496,175.97774916,-86.38386635,72.52631124,148.30332678
-173.89977763,-57.43118861,58.48293106,66.31228434,-55.88614939,-60.21592306
156.52009029,157.32496192,-118.59996829,-76.61257553,68.53264193,-152.08613854
55.50534374,-152.33908318,115.53981703,58.33836401,-0.29067023,-0.55331326
1.11768999,0.29921016,-0.19237479,-0.62581654

>  <Name>
1NEM.B

>  <RI>
0

>  <Rbt.Current_Directory>
/home/itssahil/PROJECTS/Mol_Feturizer/New_Systems/rnas/1nem

>  <Rbt.Executable>
rbdock ($Id: //depot/dev/client3/rdock/2013.1/src/exe/rbdock.cxx#4 $)

>  <Rbt.Library>
libRbt.so (2013.1, Build901 2013/11/27)

>  <Rbt.Parameter_File>
/export/apps/rDock/src/rDock_2013.1_src/data/scripts/dock_solv.prm

>  <Rbt.Receptor>
prm/pocket_docking_4.prm

>  <SCORE>
-41.1097

>  <SCORE.INTER>
-50.2072

>  <SCORE.INTER.CONST>
1

>  <SCORE.INTER.POLAR>
-7.18503

>  <SCORE.INTER.ROT>
9

>  <SCORE.INTER.SOLV>
35.7488

>  <SCORE.INTER.VDW>
-31.0376

>  <SCORE.INTER.norm>
-1.19541

>  <SCORE.INTRA>
9.09746

>  <SCORE.INTRA.DIHEDRAL>
8.09682

>  <SCORE.INTRA.DIHEDRAL.0>
22.4324

>  <SCORE.INTRA.POLAR>
0.51721

>  <SCORE.INTRA.POLAR.0>
-1.83749

>  <SCORE.INTRA.REPUL>
0.0114471

>  <SCORE.INTRA.REPUL.0>
0

>  <SCORE.INTRA.SOLV>
-1.50056

>  <SCORE.INTRA.SOLV.lig_0>
-160.638

>  <SCORE.INTRA.VDW>
3.98358

>  <SCORE.INTRA.VDW.0>
-7.61953

>  <SCORE.INTRA.norm>
0.216606

>  <SCORE.RESTR>
0

>  <SCORE.RESTR.CAVITY>
0

>  <SCORE.RESTR.norm>
0

>  <SCORE.SYSTEM>
0

>  <SCORE.SYSTEM.CONST>
0

>  <SCORE.SYSTEM.DIHEDRAL>
0

>  <SCORE.SYSTEM.SOLV>
0

>  <SCORE.SYSTEM.norm>
0

>  <SCORE.heavy>
42

>  <SCORE.norm>
-0.978803

>  <RMSD>
4.791

$$$$
1NEM.B
 OpenBabel11021811403D
libRbt.so/2013.1/901 2013/11/27
 42 45  0  0  0  0  0  0  0  0999 V2000
    4.2623    0.6733    2.6278 O   0  0  0  0  0  0  0  0  0  0  0  0
    3.3144    1.5375    1.9980 C   0  0  0  0  0  0  0  0  0  0  0  0
    2.7595    0.9675    0.6934 C   0  0  1  0  0  0  0  0  0  0  0  0
    1.7961   -0.0483    0.9572 O   0  0  0  0  0  0  0  0  0  0  0  0
    1.9878    1.9641   -0.1568 C   0  0  1  0  0  0  0  0  0  0  0  0
    2.9408    2.8656   -0.7246 O   0  0  0  0  0  0  0  0  0  0  0  0
    1.3213    0.9934   -1.1136 C   0  0  1  0  0  0  0  0  0  0  0  0
    2.2575    0.3965   -2.0171 O   0  0  0  0  0  0  0  0  0  0  0  0
    0.8329   -0.0449   -0.0967 C   0  0  2  0  0  0  0  0  0  0  0  0
    2.4846    3.6646   -1.7785 C   0  0  2  0  0  0  0  0  0  0  0  0
    3.2123    3.2640   -3.0690 C   0  0  2  0  0  0  0  0  0  0  0  0
    4.6834    3.2988   -2.8571 N   0  3  0  0  0  0  0  0  0  0  0  0
    2.7872    4.1613   -4.2359 C   0  0  1  0  0  0  0  0  0  0  0  0
    1.4482    3.8607   -4.6064 O   0  0  0  0  0  0  0  0  0  0  0  0
    2.8968    5.6428   -3.8625 C   0  0  2  0  0  0  0  0  0  0  0  0
    4.2610    6.0145   -3.7111 O   0  0  0  0  0  0  0  0  0  0  0  0
    2.1392    5.9021   -2.5634 C   0  0  1  0  0  0  0  0  0  0  0  0
    2.6571    5.0522   -1.5216 O   0  0  0  0  0  0  0  0  0  0  0  0
    2.2401    7.3408   -2.0879 C   0  0  0  0  0  0  0  0  0  0  0  0
    1.3263    7.6141   -0.9565 N   0  3  0  0  0  0  0  0  0  0  0  0
   -3.8521   -2.5499    4.2874 C   0  0  0  0  0  0  0  0  0  0  0  0
   -1.3872   -2.1943    1.5442 C   0  0  2  0  0  0  0  0  0  0  0  0
   -0.8608   -3.6232    1.4349 C   0  0  2  0  0  0  0  0  0  0  0  0
   -0.2122   -3.8318    0.1183 N   0  3  0  0  0  0  0  0  0  0  0  0
   -2.0030   -4.6172    1.5975 C   0  0  1  0  0  0  0  0  0  0  0  0
   -1.4900   -5.9403    1.5716 O   0  0  0  0  0  0  0  0  0  0  0  0
   -2.7215   -4.3580    2.9197 C   0  0  2  0  0  0  0  0  0  0  0  0
   -3.8320   -5.2366    3.0472 O   0  0  0  0  0  0  0  0  0  0  0  0
   -4.7505   -1.3803    4.1536 N   0  3  0  0  0  0  0  0  0  0  0  0
   -3.2036   -2.9092    2.9619 C   0  0  2  0  0  0  0  0  0  0  0  0
   -2.0921   -2.0109    2.7692 O   0  0  0  0  0  0  0  0  0  0  0  0
   -3.3662    1.8110   -1.2688 C   0  0  2  0  0  0  0  0  0  0  0  0
   -3.8457    3.2080   -1.3782 N   0  3  0  0  0  0  0  0  0  0  0  0
   -4.4211    0.9502   -0.5831 C   0  0  0  0  0  0  0  0  0  0  0  0
   -3.9406   -0.4891   -0.4617 C   0  0  2  0  0  0  0  0  0  0  0  0
   -4.9891   -1.2552    0.1969 N   0  3  0  0  0  0  0  0  0  0  0  0
   -2.6444   -0.5356    0.3439 C   0  0  1  0  0  0  0  0  0  0  0  0
   -2.1814   -1.8974    0.4301 O   0  0  0  0  0  0  0  0  0  0  0  0
   -1.5622    0.3306   -0.3154 C   0  0  2  0  0  0  0  0  0  0  0  0
   -0.3901    0.3488    0.5217 O   0  0  0  0  0  0  0  0  0  0  0  0
   -2.0397    1.7673   -0.5121 C   0  0  1  0  0  0  0  0  0  0  0  0
   -1.0581    2.4987   -1.2347 O   0  0  0  0  0  0  0  0  0  0  0  0
  1  2  1  0  0  0  0
  3  2  1  1  0  0  0
  3  5  1  0  0  0  0
  3  4  1  0  0  0  0
  4  9  1  0  0  0  0
  5  7  1  0  0  0  0
  5  6  1  6  0  0  0
  7  9  1  0  0  0  0
  7  8  1  6  0  0  0
  9 40  1  1  0  0  0
 10  6  1  1  0  0  0
 10 11  1  0  0  0  0
 10 18  1  0  0  0  0
 11 13  1  0  0  0  0
 11 12  1  1  0  0  0
 13 15  1  0  0  0  0
 13 14  1  1  0  0  0
 15 17  1  0  0  0  0
 15 16  1  1  0  0  0
 17 19  1  1  0  0  0
 17 18  1  0  0  0  0
 19 20  1  0  0  0  0
 21 29  1  0  0  0  0
 22 23  1  0  0  0  0
 22 31  1  0  0  0  0
 22 38  1  6  0  0  0
 23 25  1  0  0  0  0
 23 24  1  6  0  0  0
 25 27  1  0  0  0  0
 25 26  1  1  0  0  0
 27 30  1  0  0  0  0
 27 28  1  6  0  0  0
 30 21  1  1  0  0  0
 30 31  1  0  0  0  0
 32 34  1  0  0  0  0
 32 41  1  0  0  0  0
 32 33  1  1  0  0  0
 34 35  1  0  0  0  0
 35 37  1  0  0  0  0
 35 36  1  1  0  0  0
 37 39  1  0  0  0  0
 37 38  1  6  0  0  0
 39 41  1  0  0  0  0
 39 40  1  1  0  0  0
 41 42  1  6  0  0  0
M  CHG  6  12   1  20   1  24   1  29   1  33   1  36   1
M  END
>  <CHROM.1>
-171.48055375,76.37781469,165.65688298,-113.65117591,-168.47016653,-175.28022284
166.36912434,65.60757031,-165.37657613,170.81516496,-42.70664052,-158.14545538
-159.73161550,-174.53518047,-112.55652397,-65.66237266,82.76549487,-29.48261797
-62.87477259,-153.93372669,125.27643442,70.07643361,-0.11577865,0.79654282
-0.15854139,-1.01425389,-0.01859950,2.63469879

>  <Name>
1NEM.B

>  <RI>
0

>  <Rbt.Current_Directory>
/home/itssahil/PROJECTS/Mol_Feturizer/New_Systems/rnas/1nem

>  <Rbt.Executable>
rbdock ($Id: //depot/dev/client3/rdock/2013.1/src/exe/rbdock.cxx#4 $)

>  <Rbt.Library>
libRbt.so (2013.1, Build901 2013/11/27)

>  <Rbt.Parameter_File>
/export/apps/rDock/src/rDock_2013.1_src/data/scripts/dock_solv.prm

>  <Rbt.Receptor>
prm/pocket_docking_6.prm

>  <SCORE>
-44.6002

>  <SCORE.INTER>
-54.7661

>  <SCORE.INTER.CONST>
1

>  <SCORE.INTER.POLAR>
-8.71921

>  <SCORE.INTER.ROT>
9

>  <SCORE.INTER.SOLV>
41.3221

>  <SCORE.INTER.VDW>
-30.8208

>  <SCORE.INTER.norm>
-1.30395

>  <SCORE.INTRA>
9.10268

>  <SCORE.INTRA.DIHEDRAL>
11.6834

>  <SCORE.INTRA.DIHEDRAL.0>
22.4324

>  <SCORE.INTRA.POLAR>
1.03053

>  <SCORE.INTRA.POLAR.0>
-1.83749

>  <SCORE.INTRA.REPUL>
0

>  <SCORE.INTRA.REPUL.0>
0

>  <SCORE.INTRA.SOLV>
-5.69046

>  <SCORE.INTRA.SOLV.lig_0>
-160.638

>  <SCORE.INTRA.VDW>
2.60241

>  <SCORE.INTRA.VDW.0>
-7.61953

>  <SCORE.INTRA.norm>
0.216731

>  <SCORE.RESTR>
1.06318

>  <SCORE.RESTR.CAVITY>
1.06318

>  <SCORE.RESTR.norm>
0.0253138

>  <SCORE.SYSTEM>
0

>  <SCORE.SYSTEM.CONST>
0

>  <SCORE.SYSTEM.DIHEDRAL>
0

>  <SCORE.SYSTEM.SOLV>
0

>  <SCORE.SYSTEM.norm>
0

>  <SCORE.heavy>
42

>  <SCORE.norm>
-1.06191

>  <RMSD>
4.838

$$$$
1NEM.B
 OpenBabel11021811403D
libRbt.so/2013.1/901 2013/11/27
 42 45  0  0  0  0  0  0  0  0999 V2000
    3.2234    2.3944   -3.6767 O   0  0  0  0  0  0  0  0  0  0  0  0
    3.7571    1.6720   -2.5653 C   0  0  0  0  0  0  0  0  0  0  0  0
    2.9555    1.8735   -1.2801 C   0  0  1  0  0  0  0  0  0  0  0  0
    1.6181    1.4108   -1.4431 O   0  0  0  0  0  0  0  0  0  0  0  0
    3.4559    1.0733   -0.0882 C   0  0  1  0  0  0  0  0  0  0  0  0
    4.6781    1.6752    0.3447 O   0  0  0  0  0  0  0  0  0  0  0  0
    2.2584    1.2390    0.8284 C   0  0  1  0  0  0  0  0  0  0  0  0
    2.1344    2.5782    1.3188 O   0  0  0  0  0  0  0  0  0  0  0  0
    1.1436    0.9409   -0.1811 C   0  0  2  0  0  0  0  0  0  0  0  0
    5.0540    1.4279    1.6693 C   0  0  2  0  0  0  0  0  0  0  0  0
    4.3701    2.4489    2.5886 C   0  0  2  0  0  0  0  0  0  0  0  0
    4.6479    3.8300    2.1133 N   0  3  0  0  0  0  0  0  0  0  0  0
    4.8081    2.2521    4.0435 C   0  0  1  0  0  0  0  0  0  0  0  0
    4.2469    1.0495    4.5528 O   0  0  0  0  0  0  0  0  0  0  0  0
    6.3345    2.1959    4.1586 C   0  0  2  0  0  0  0  0  0  0  0  0
    6.8988    3.4689    3.8700 O   0  0  0  0  0  0  0  0  0  0  0  0
    6.8841    1.1513    3.1912 C   0  0  1  0  0  0  0  0  0  0  0  0
    6.4638    1.4642    1.8491 O   0  0  0  0  0  0  0  0  0  0  0  0
    8.4002    1.0659    3.1997 C   0  0  0  0  0  0  0  0  0  0  0  0
    8.8756   -0.2768    3.6011 N   0  3  0  0  0  0  0  0  0  0  0  0
   -5.1243   -1.0917    3.3140 C   0  0  0  0  0  0  0  0  0  0  0  0
   -2.8196   -0.9414    0.4170 C   0  0  2  0  0  0  0  0  0  0  0  0
   -3.3009    0.3310   -0.2761 C   0  0  2  0  0  0  0  0  0  0  0  0
   -2.2521    0.8470   -1.1878 N   0  3  0  0  0  0  0  0  0  0  0  0
   -3.6386    1.3964    0.7583 C   0  0  1  0  0  0  0  0  0  0  0  0
   -4.1577    2.5453    0.1064 O   0  0  0  0  0  0  0  0  0  0  0  0
   -4.6647    0.8436    1.7449 C   0  0  2  0  0  0  0  0  0  0  0  0
   -4.9337    1.8080    2.7544 O   0  0  0  0  0  0  0  0  0  0  0  0
   -4.4855   -1.5424    4.5716 N   0  3  0  0  0  0  0  0  0  0  0  0
   -4.1206   -0.4327    2.3839 C   0  0  2  0  0  0  0  0  0  0  0  0
   -3.7846   -1.3942    1.3629 O   0  0  0  0  0  0  0  0  0  0  0  0
    1.6375   -3.3135    2.0035 C   0  0  2  0  0  0  0  0  0  0  0  0
    2.6081   -4.4292    1.9234 N   0  3  0  0  0  0  0  0  0  0  0  0
    0.2152   -3.8614    2.0344 C   0  0  0  0  0  0  0  0  0  0  0  0
   -0.7942   -2.7247    2.1146 C   0  0  2  0  0  0  0  0  0  0  0  0
   -2.1262   -3.3123    2.1423 N   0  3  0  0  0  0  0  0  0  0  0  0
   -0.6310   -1.8020    0.9090 C   0  0  1  0  0  0  0  0  0  0  0  0
   -1.5705   -0.7138    1.0069 O   0  0  0  0  0  0  0  0  0  0  0  0
    0.7959   -1.2400    0.8427 C   0  0  2  0  0  0  0  0  0  0  0  0
    0.9460   -0.4601   -0.3589 O   0  0  0  0  0  0  0  0  0  0  0  0
    1.8361   -2.3572    0.8287 C   0  0  1  0  0  0  0  0  0  0  0  0
    3.1392   -1.7929    0.8926 O   0  0  0  0  0  0  0  0  0  0  0  0
  1  2  1  0  0  0  0
  3  2  1  6  0  0  0
  3  5  1  0  0  0  0
  3  4  1  0  0  0  0
  4  9  1  0  0  0  0
  5  7  1  0  0  0  0
  5  6  1  1  0  0  0
  7  9  1  0  0  0  0
  7  8  1  6  0  0  0
  9 40  1  6  0  0  0
 10  6  1  6  0  0  0
 10 11  1  0  0  0  0
 10 18  1  0  0  0  0
 11 13  1  0  0  0  0
 11 12  1  6  0  0  0
 13 15  1  0  0  0  0
 13 14  1  6  0  0  0
 15 17  1  0  0  0  0
 15 16  1  6  0  0  0
 17 19  1  6  0  0  0
 17 18  1  0  0  0  0
 19 20  1  0  0  0  0
 21 29  1  0  0  0  0
 22 23  1  0  0  0  0
 22 31  1  0  0  0  0
 22 38  1  1  0  0  0
 23 25  1  0  0  0  0
 23 24  1  6  0  0  0
 25 27  1  0  0  0  0
 25 26  1  6  0  0  0
 27 30  1  0  0  0  0
 27 28  1  1  0  0  0
 30 21  1  1  0  0  0
 30 31  1  0  0  0  0
 32 34  1  0  0  0  0
 32 41  1  0  0  0  0
 32 33  1  6  0  0  0
 34 35  1  0  0  0  0
 35 37  1  0  0  0  0
 35 36  1  6  0  0  0
 37 39  1  0  0  0  0
 37 38  1  1  0  0  0
 39 41  1  0  0  0  0
 39 40  1  6  0  0  0
 41 42  1  1  0  0  0
M  CHG  6  12   1  20   1  24   1  29   1  33   1  36   1
M  END
>  <CHROM.1>
-177.27011339,61.26827853,157.70865779,-85.58420482,-177.46070244,164.71764494
39.37779954,91.78390562,60.53530300,119.32702805,-173.86331095,-136.43586509
-23.83389314,-140.85006697,78.31269163,96.27643235,60.73018908,179.17300137
-179.17696371,-89.71334501,113.44026992,163.54385162,1.32045760,0.28848842
1.39443463,0.11453479,-0.19323740,-0.69489248

>  <Name>
1NEM.B

>  <RI>
0

>  <Rbt.Current_Directory>
/home/itssahil/PROJECTS/Mol_Feturizer/New_Systems/rnas/1nem

>  <Rbt.Executable>
rbdock ($Id: //depot/dev/client3/rdock/2013.1/src/exe/rbdock.cxx#4 $)

>  <Rbt.Library>
libRbt.so (2013.1, Build901 2013/11/27)

>  <Rbt.Parameter_File>
/export/apps/rDock/src/rDock_2013.1_src/data/scripts/dock_solv.prm

>  <Rbt.Receptor>
prm/pocket_docking_4.prm

>  <SCORE>
-35.4088

>  <SCORE.INTER>
-52.42

>  <SCORE.INTER.CONST>
1

>  <SCORE.INTER.POLAR>
-7.46865

>  <SCORE.INTER.ROT>
9

>  <SCORE.INTER.SOLV>
35.0417

>  <SCORE.INTER.VDW>
-31.3317

>  <SCORE.INTER.norm>
-1.2481

>  <SCORE.INTRA>
16.9345

>  <SCORE.INTRA.DIHEDRAL>
23.8968

>  <SCORE.INTRA.DIHEDRAL.0>
22.4324

>  <SCORE.INTRA.POLAR>
0.335317

>  <SCORE.INTRA.POLAR.0>
-1.83749

>  <SCORE.INTRA.REPUL>
0

>  <SCORE.INTRA.REPUL.0>
0

>  <SCORE.INTRA.SOLV>
-1.39383

>  <SCORE.INTRA.SOLV.lig_0>
-160.638

>  <SCORE.INTRA.VDW>
4.54295

>  <SCORE.INTRA.VDW.0>
-7.61953

>  <SCORE.INTRA.norm>
0.403203

>  <SCORE.RESTR>
0.0767403

>  <SCORE.RESTR.CAVITY>
0.0767403

>  <SCORE.RESTR.norm>
0.00182715

>  <SCORE.SYSTEM>
0

>  <SCORE.SYSTEM.CONST>
0

>  <SCORE.SYSTEM.DIHEDRAL>
0

>  <SCORE.SYSTEM.SOLV>
0

>  <SCORE.SYSTEM.norm>
0

>  <SCORE.heavy>
42

>  <SCORE.norm>
-0.843066

>  <RMSD>
4.839

$$$$
1NEM.B
 OpenBabel11021811403D
libRbt.so/2013.1/901 2013/11/27
 42 45  0  0  0  0  0  0  0  0999 V2000
    8.6853    0.2431    0.8527 O   0  0  0  0  0  0  0  0  0  0  0  0
    7.3071   -0.0809    0.6587 C   0  0  0  0  0  0  0  0  0  0  0  0
    6.6830    0.6471   -0.5310 C   0  0  1  0  0  0  0  0  0  0  0  0
    5.6876   -0.1620   -1.1507 O   0  0  0  0  0  0  0  0  0  0  0  0
    5.9245    1.9149   -0.1721 C   0  0  1  0  0  0  0  0  0  0  0  0
    6.8940    2.9049    0.1789 O   0  0  0  0  0  0  0  0  0  0  0  0
    5.1844    2.1266   -1.4795 C   0  0  1  0  0  0  0  0  0  0  0  0
    6.0622    2.5187   -2.5401 O   0  0  0  0  0  0  0  0  0  0  0  0
    4.6888    0.6935   -1.7066 C   0  0  2  0  0  0  0  0  0  0  0  0
    7.2016    3.0142    1.5394 C   0  0  2  0  0  0  0  0  0  0  0  0
    5.9089    3.2463    2.3334 C   0  0  2  0  0  0  0  0  0  0  0  0
    5.1657    4.4047    1.7713 N   0  3  0  0  0  0  0  0  0  0  0  0
    6.2108    3.4365    3.8234 C   0  0  1  0  0  0  0  0  0  0  0  0
    6.6266    2.2001    4.3882 O   0  0  0  0  0  0  0  0  0  0  0  0
    7.3011    4.4911    4.0363 C   0  0  2  0  0  0  0  0  0  0  0  0
    6.8158    5.7810    3.6859 O   0  0  0  0  0  0  0  0  0  0  0  0
    8.5218    4.1459    3.1880 C   0  0  1  0  0  0  0  0  0  0  0  0
    8.1385    4.0505    1.8023 O   0  0  0  0  0  0  0  0  0  0  0  0
    9.6362    5.1718    3.2964 C   0  0  0  0  0  0  0  0  0  0  0  0
    9.2833    6.4436    2.6274 N   0  3  0  0  0  0  0  0  0  0  0  0
   -1.5287   -3.9842    1.4058 C   0  0  0  0  0  0  0  0  0  0  0  0
    0.7937   -1.1003    1.2768 C   0  0  2  0  0  0  0  0  0  0  0  0
    1.9134   -1.5830    2.1957 C   0  0  2  0  0  0  0  0  0  0  0  0
    3.1540   -0.8125    1.9414 N   0  3  0  0  0  0  0  0  0  0  0  0
    2.1824   -3.0636    1.9620 C   0  0  1  0  0  0  0  0  0  0  0  0
    3.1697   -3.5179    2.8748 O   0  0  0  0  0  0  0  0  0  0  0  0
    0.8894   -3.8538    2.1503 C   0  0  2  0  0  0  0  0  0  0  0  0
    1.1166   -5.2283    1.8662 O   0  0  0  0  0  0  0  0  0  0  0  0
   -2.1321   -4.3734    0.1106 N   0  3  0  0  0  0  0  0  0  0  0  0
   -0.1841   -3.3048    1.2126 C   0  0  2  0  0  0  0  0  0  0  0  0
   -0.3763   -1.8954    1.4499 O   0  0  0  0  0  0  0  0  0  0  0  0
    0.7863    1.6412   -3.2628 C   0  0  2  0  0  0  0  0  0  0  0  0
    0.6384    2.9169   -4.0004 N   0  3  0  0  0  0  0  0  0  0  0  0
   -0.3642    1.4730   -2.2767 C   0  0  0  0  0  0  0  0  0  0  0  0
   -0.2240    0.1659   -1.5092 C   0  0  2  0  0  0  0  0  0  0  0  0
   -1.3489    0.0656   -0.5901 N   0  3  0  0  0  0  0  0  0  0  0  0
    1.1014    0.1506   -0.7513 C   0  0  1  0  0  0  0  0  0  0  0  0
    1.2392   -1.1008   -0.0504 O   0  0  0  0  0  0  0  0  0  0  0  0
    2.2823    0.3281   -1.7158 C   0  0  2  0  0  0  0  0  0  0  0  0
    3.5060    0.4140   -0.9610 O   0  0  0  0  0  0  0  0  0  0  0  0
    2.1366    1.5988   -2.5492 C   0  0  1  0  0  0  0  0  0  0  0  0
    3.1821    1.6582   -3.5105 O   0  0  0  0  0  0  0  0  0  0  0  0
  1  2  1  0  0  0  0
  3  2  1  1  0  0  0
  3  5  1  0  0  0  0
  3  4  1  0  0  0  0
  4  9  1  0  0  0  0
  5  7  1  0  0  0  0
  5  6  1  6  0  0  0
  7  9  1  0  0  0  0
  7  8  1  6  0  0  0
  9 40  1  1  0  0  0
 10  6  1  6  0  0  0
 10 11  1  0  0  0  0
 10 18  1  0  0  0  0
 11 13  1  0  0  0  0
 11 12  1  6  0  0  0
 13 15  1  0  0  0  0
 13 14  1  6  0  0  0
 15 17  1  0  0  0  0
 15 16  1  6  0  0  0
 17 19  1  6  0  0  0
 17 18  1  0  0  0  0
 19 20  1  0  0  0  0
 21 29  1  0  0  0  0
 22 23  1  0  0  0  0
 22 31  1  0  0  0  0
 22 38  1  6  0  0  0
 23 25  1  0  0  0  0
 23 24  1  6  0  0  0
 25 27  1  0  0  0  0
 25 26  1  1  0  0  0
 27 30  1  0  0  0  0
 27 28  1  6  0  0  0
 30 21  1  1  0  0  0
 30 31  1  0  0  0  0
 32 34  1  0  0  0  0
 32 41  1  0  0  0  0
 32 33  1  1  0  0  0
 34 35  1  0  0  0  0
 35 37  1  0  0  0  0
 35 36  1  1  0  0  0
 37 39  1  0  0  0  0
 37 38  1  6  0  0  0
 39 41  1  0  0  0  0
 39 40  1  1  0  0  0
 41 42  1  6  0  0  0
M  CHG  6  12   1  20   1  24   1  29   1  33   1  36   1
M  END
>  <CHROM.1>
64.75791295,147.17339237,-93.58860836,-55.04079997,-51.04626439,-138.42322308
80.35380575,-177.89505978,-77.26784140,-70.74448996,-169.10787384,-133.20066563
70.80950999,-125.40739386,-153.31110864,-66.44621614,-59.96388802,-62.45432497
-177.44048333,-93.43671337,-174.91855375,-69.53723632,3.82367873,0.81909493
0.56809871,-0.24210987,0.66483679,2.26502389

>  <Name>
1NEM.B

>  <RI>
0

>  <Rbt.Current_Directory>
/home/itssahil/PROJECTS/Mol_Feturizer/New_Systems/rnas/1nem

>  <Rbt.Executable>
rbdock ($Id: //depot/dev/client3/rdock/2013.1/src/exe/rbdock.cxx#4 $)

>  <Rbt.Library>
libRbt.so (2013.1, Build901 2013/11/27)

>  <Rbt.Parameter_File>
/export/apps/rDock/src/rDock_2013.1_src/data/scripts/dock_solv.prm

>  <Rbt.Receptor>
prm/pocket_docking_5.prm

>  <SCORE>
-27.2367

>  <SCORE.INTER>
-40.4874

>  <SCORE.INTER.CONST>
1

>  <SCORE.INTER.POLAR>
-5.97309

>  <SCORE.INTER.ROT>
9

>  <SCORE.INTER.SOLV>
27.993

>  <SCORE.INTER.VDW>
-26.0123

>  <SCORE.INTER.norm>
-0.963985

>  <SCORE.INTRA>
12.4092

>  <SCORE.INTRA.DIHEDRAL>
12.9664

>  <SCORE.INTRA.DIHEDRAL.0>
22.4324

>  <SCORE.INTRA.POLAR>
-0.428077

>  <SCORE.INTRA.POLAR.0>
-1.83749

>  <SCORE.INTRA.REPUL>
0.00124112

>  <SCORE.INTRA.REPUL.0>
0

>  <SCORE.INTRA.SOLV>
0.208258

>  <SCORE.INTRA.SOLV.lig_0>
-160.638

>  <SCORE.INTRA.VDW>
7.2711

>  <SCORE.INTRA.VDW.0>
-7.61953

>  <SCORE.INTRA.norm>
0.295456

>  <SCORE.RESTR>
0.841493

>  <SCORE.RESTR.CAVITY>
0.841493

>  <SCORE.RESTR.norm>
0.0200355

>  <SCORE.SYSTEM>
0

>  <SCORE.SYSTEM.CONST>
0

>  <SCORE.SYSTEM.DIHEDRAL>
0

>  <SCORE.SYSTEM.SOLV>
0

>  <SCORE.SYSTEM.norm>
0

>  <SCORE.heavy>
42

>  <SCORE.norm>
-0.648493

>  <RMSD>
4.856

$$$$
1NEM.B
 OpenBabel11021811403D
libRbt.so/2013.1/901 2013/11/27
 42 45  0  0  0  0  0  0  0  0999 V2000
    3.0776   -4.0481    3.2720 O   0  0  0  0  0  0  0  0  0  0  0  0
    1.8541   -4.5858    2.7661 C   0  0  0  0  0  0  0  0  0  0  0  0
    1.0521   -3.5779    1.9442 C   0  0  1  0  0  0  0  0  0  0  0  0
   -0.3406   -3.8709    2.0076 O   0  0  0  0  0  0  0  0  0  0  0  0
    1.1277   -2.1453    2.4478 C   0  0  1  0  0  0  0  0  0  0  0  0
    2.4350   -1.6555    2.1404 O   0  0  0  0  0  0  0  0  0  0  0  0
   -0.0208   -1.5534    1.6525 C   0  0  1  0  0  0  0  0  0  0  0  0
    0.2797   -1.4617    0.2559 O   0  0  0  0  0  0  0  0  0  0  0  0
   -1.0673   -2.6469    1.8970 C   0  0  2  0  0  0  0  0  0  0  0  0
    3.0654   -0.9063    3.1397 C   0  0  2  0  0  0  0  0  0  0  0  0
    2.6689    0.5690    2.9923 C   0  0  2  0  0  0  0  0  0  0  0  0
    2.9388    1.0339    1.6061 N   0  3  0  0  0  0  0  0  0  0  0  0
    3.3912    1.4341    4.0301 C   0  0  1  0  0  0  0  0  0  0  0  0
    2.8655    1.1673    5.3236 O   0  0  0  0  0  0  0  0  0  0  0  0
    4.8989    1.1637    4.0225 C   0  0  2  0  0  0  0  0  0  0  0  0
    5.4798    1.6387    2.8145 O   0  0  0  0  0  0  0  0  0  0  0  0
    5.1525   -0.3340    4.1684 C   0  0  1  0  0  0  0  0  0  0  0  0
    4.4800   -1.0454    3.1113 O   0  0  0  0  0  0  0  0  0  0  0  0
    6.6254   -0.7001    4.1165 C   0  0  0  0  0  0  0  0  0  0  0  0
    7.2123   -0.8219    5.4694 N   0  3  0  0  0  0  0  0  0  0  0  0
   -5.6655   -0.2462    3.5270 C   0  0  0  0  0  0  0  0  0  0  0  0
   -4.7255   -2.2438    0.5516 C   0  0  2  0  0  0  0  0  0  0  0  0
   -4.5989   -1.1518   -0.5078 C   0  0  2  0  0  0  0  0  0  0  0  0
   -3.7925   -1.6383   -1.6525 N   0  3  0  0  0  0  0  0  0  0  0  0
   -3.9355    0.0828    0.0879 C   0  0  1  0  0  0  0  0  0  0  0  0
   -3.8941    1.1165   -0.8838 O   0  0  0  0  0  0  0  0  0  0  0  0
   -4.7216    0.5445    1.3129 C   0  0  2  0  0  0  0  0  0  0  0  0
   -4.0699    1.6551    1.9156 O   0  0  0  0  0  0  0  0  0  0  0  0
   -5.8826   -1.4201    4.4032 N   0  3  0  0  0  0  0  0  0  0  0  0
   -4.8193   -0.6024    2.3171 C   0  0  2  0  0  0  0  0  0  0  0  0
   -5.4216   -1.7559    1.6955 O   0  0  0  0  0  0  0  0  0  0  0  0
   -4.4337   -4.7331    4.4959 C   0  0  2  0  0  0  0  0  0  0  0  0
   -4.4177   -5.7336    5.5877 N   0  3  0  0  0  0  0  0  0  0  0  0
   -4.7670   -5.4118    3.1721 C   0  0  0  0  0  0  0  0  0  0  0  0
   -4.7848   -4.3949    2.0394 C   0  0  2  0  0  0  0  0  0  0  0  0
   -5.1092   -5.1032    0.8093 N   0  3  0  0  0  0  0  0  0  0  0  0
   -3.4218   -3.7150    1.9330 C   0  0  1  0  0  0  0  0  0  0  0  0
   -3.4555   -2.7346    0.8777 O   0  0  0  0  0  0  0  0  0  0  0  0
   -3.0508   -3.0291    3.2552 C   0  0  2  0  0  0  0  0  0  0  0  0
   -1.7193   -2.4891    3.1553 O   0  0  0  0  0  0  0  0  0  0  0  0
   -3.0893   -4.0108    4.4237 C   0  0  1  0  0  0  0  0  0  0  0  0
   -2.8625   -3.3102    5.6396 O   0  0  0  0  0  0  0  0  0  0  0  0
  1  2  1  0  0  0  0
  3  2  1  1  0  0  0
  3  5  1  0  0  0  0
  3  4  1  0  0  0  0
  4  9  1  0  0  0  0
  5  7  1  0  0  0  0
  5  6  1  6  0  0  0
  7  9  1  0  0  0  0
  7  8  1  6  0  0  0
  9 40  1  1  0  0  0
 10  6  1  6  0  0  0
 10 11  1  0  0  0  0
 10 18  1  0  0  0  0
 11 13  1  0  0  0  0
 11 12  1  6  0  0  0
 13 15  1  0  0  0  0
 13 14  1  1  0  0  0
 15 17  1  0  0  0  0
 15 16  1  6  0  0  0
 17 19  1  6  0  0  0
 17 18  1  0  0  0  0
 19 20  1  0  0  0  0
 21 29  1  0  0  0  0
 22 23  1  0  0  0  0
 22 31  1  0  0  0  0
 22 38  1  1  0  0  0
 23 25  1  0  0  0  0
 23 24  1  6  0  0  0
 25 27  1  0  0  0  0
 25 26  1  6  0  0  0
 27 30  1  0  0  0  0
 27 28  1  1  0  0  0
 30 21  1  1  0  0  0
 30 31  1  0  0  0  0
 32 34  1  0  0  0  0
 32 41  1  0  0  0  0
 32 33  1  1  0  0  0
 34 35  1  0  0  0  0
 35 37  1  0  0  0  0
 35 36  1  6  0  0  0
 37 39  1  0  0  0  0
 37 38  1  6  0  0  0
 39 41  1  0  0  0  0
 39 40  1  6  0  0  0
 41 42  1  1  0  0  0
M  CHG  6  12   1  20   1  24   1  29   1  33   1  36   1
M  END
>  <CHROM.1>
-64.04233556,-152.03599317,-137.57623101,-87.83568985,164.29008266,-91.92342273
-79.23457552,-55.26659210,176.49637784,95.84766017,-179.80634433,173.05450965
-89.36812439,176.16231202,-178.78166788,66.05672520,160.05256172,-175.03525922
-60.30898206,23.45086631,2.22030661,-44.54544826,-0.82208808,-1.71713439
2.55690491,-0.11231162,0.26476910,2.60038671

>  <Name>
1NEM.B

>  <RI>
0

>  <Rbt.Current_Directory>
/home/itssahil/PROJECTS/Mol_Feturizer/New_Systems/rnas/1nem

>  <Rbt.Executable>
rbdock ($Id: //depot/dev/client3/rdock/2013.1/src/exe/rbdock.cxx#4 $)

>  <Rbt.Library>
libRbt.so (2013.1, Build901 2013/11/27)

>  <Rbt.Parameter_File>
/export/apps/rDock/src/rDock_2013.1_src/data/scripts/dock_solv.prm

>  <Rbt.Receptor>
prm/blind_docking_80.prm

>  <SCORE>
-12.6875

>  <SCORE.INTER>
-40.506

>  <SCORE.INTER.CONST>
1

>  <SCORE.INTER.POLAR>
-6.06266

>  <SCORE.INTER.ROT>
9

>  <SCORE.INTER.SOLV>
42.1785

>  <SCORE.INTER.VDW>
-30.4546

>  <SCORE.INTER.norm>
-0.964428

>  <SCORE.INTRA>
19.7921

>  <SCORE.INTRA.DIHEDRAL>
15.8063

>  <SCORE.INTRA.DIHEDRAL.0>
22.4324

>  <SCORE.INTRA.POLAR>
0.949726

>  <SCORE.INTRA.POLAR.0>
-1.83749

>  <SCORE.INTRA.REPUL>
0.077178

>  <SCORE.INTRA.REPUL.0>
0

>  <SCORE.INTRA.SOLV>
-3.11825

>  <SCORE.INTRA.SOLV.lig_0>
-160.638

>  <SCORE.INTRA.VDW>
9.83311

>  <SCORE.INTRA.VDW.0>
-7.61953

>  <SCORE.INTRA.norm>
0.471241

>  <SCORE.RESTR>
8.02633

>  <SCORE.RESTR.CAVITY>
8.02633

>  <SCORE.RESTR.norm>
0.191103

>  <SCORE.SYSTEM>
0

>  <SCORE.SYSTEM.CONST>
0

>  <SCORE.SYSTEM.DIHEDRAL>
0

>  <SCORE.SYSTEM.SOLV>
0

>  <SCORE.SYSTEM.norm>
0

>  <SCORE.heavy>
42

>  <SCORE.norm>
-0.302084

>  <RMSD>
4.862

$$$$
1NEM.B
 OpenBabel11021811403D
libRbt.so/2013.1/901 2013/11/27
 42 45  0  0  0  0  0  0  0  0999 V2000
    2.0891   -5.1133    1.9030 O   0  0  0  0  0  0  0  0  0  0  0  0
    0.7168   -5.2586    1.5318 C   0  0  0  0  0  0  0  0  0  0  0  0
    0.0329   -3.9249    1.2346 C   0  0  1  0  0  0  0  0  0  0  0  0
   -1.3793   -4.0391    1.3828 O   0  0  0  0  0  0  0  0  0  0  0  0
    0.3917   -2.8004    2.1930 C   0  0  1  0  0  0  0  0  0  0  0  0
    1.7335   -2.4043    1.8996 O   0  0  0  0  0  0  0  0  0  0  0  0
   -0.7009   -1.8152    1.8224 C   0  0  1  0  0  0  0  0  0  0  0  0
   -0.5048   -1.2557    0.5194 O   0  0  0  0  0  0  0  0  0  0  0  0
   -1.8943   -2.7777    1.8098 C   0  0  2  0  0  0  0  0  0  0  0  0
    2.1288   -1.1528    2.3842 C   0  0  2  0  0  0  0  0  0  0  0  0
    2.6058   -0.2840    1.2124 C   0  0  2  0  0  0  0  0  0  0  0  0
    3.6478   -1.0043    0.4341 N   0  3  0  0  0  0  0  0  0  0  0  0
    3.1093    1.0746    1.7104 C   0  0  1  0  0  0  0  0  0  0  0  0
    2.0104    1.8548    2.1624 O   0  0  0  0  0  0  0  0  0  0  0  0
    4.1220    0.9060    2.8473 C   0  0  2  0  0  0  0  0  0  0  0  0
    5.3250    0.3289    2.3556 O   0  0  0  0  0  0  0  0  0  0  0  0
    3.5268    0.0195    3.9376 C   0  0  1  0  0  0  0  0  0  0  0  0
    3.1435   -1.2504    3.3750 O   0  0  0  0  0  0  0  0  0  0  0  0
    4.4865   -0.2462    5.0840 C   0  0  0  0  0  0  0  0  0  0  0  0
    5.5482   -1.2048    4.7046 N   0  3  0  0  0  0  0  0  0  0  0  0
   -5.4022    0.0761    3.0529 C   0  0  0  0  0  0  0  0  0  0  0  0
   -5.1143   -2.4659    0.3730 C   0  0  2  0  0  0  0  0  0  0  0  0
   -4.4915   -1.6401   -0.7500 C   0  0  2  0  0  0  0  0  0  0  0  0
   -3.8621   -2.5310   -1.7538 N   0  3  0  0  0  0  0  0  0  0  0  0
   -3.4398   -0.6947   -0.1850 C   0  0  1  0  0  0  0  0  0  0  0  0
   -2.9243    0.1209   -1.2259 O   0  0  0  0  0  0  0  0  0  0  0  0
   -4.0663    0.1751    0.9027 C   0  0  2  0  0  0  0  0  0  0  0  0
   -3.0747    1.0125    1.4834 O   0  0  0  0  0  0  0  0  0  0  0  0
   -6.3853   -0.7599    3.7792 N   0  3  0  0  0  0  0  0  0  0  0  0
   -4.6802   -0.7185    1.9786 C   0  0  2  0  0  0  0  0  0  0  0  0
   -5.6420   -1.6163    1.3882 O   0  0  0  0  0  0  0  0  0  0  0  0
   -5.7055   -3.6335    4.8287 C   0  0  2  0  0  0  0  0  0  0  0  0
   -6.0192   -4.1720    6.1722 N   0  3  0  0  0  0  0  0  0  0  0  0
   -6.2881   -4.5437    3.7535 C   0  0  0  0  0  0  0  0  0  0  0  0
   -5.9712   -4.0034    2.3661 C   0  0  2  0  0  0  0  0  0  0  0  0
   -6.5538   -4.9128    1.3895 N   0  3  0  0  0  0  0  0  0  0  0  0
   -4.4586   -3.9037    2.1828 C   0  0  1  0  0  0  0  0  0  0  0  0
   -4.1677   -3.3651    0.8783 O   0  0  0  0  0  0  0  0  0  0  0  0
   -3.8383   -3.0005    3.2578 C   0  0  2  0  0  0  0  0  0  0  0  0
   -2.4045   -3.0114    3.1207 O   0  0  0  0  0  0  0  0  0  0  0  0
   -4.1946   -3.4790    4.6630 C   0  0  1  0  0  0  0  0  0  0  0  0
   -3.7062   -2.5476    5.6193 O   0  0  0  0  0  0  0  0  0  0  0  0
  1  2  1  0  0  0  0
  3  2  1  1  0  0  0
  3  5  1  0  0  0  0
  3  4  1  0  0  0  0
  4  9  1  0  0  0  0
  5  7  1  0  0  0  0
  5  6  1  6  0  0  0
  7  9  1  0  0  0  0
  7  8  1  6  0  0  0
  9 40  1  1  0  0  0
 10  6  1  6  0  0  0
 10 11  1  0  0  0  0
 10 18  1  0  0  0  0
 11 13  1  0  0  0  0
 11 12  1  1  0  0  0
 13 15  1  0  0  0  0
 13 14  1  1  0  0  0
 15 17  1  0  0  0  0
 15 16  1  6  0  0  0
 17 19  1  1  0  0  0
 17 18  1  0  0  0  0
 19 20  1  0  0  0  0
 21 29  1  0  0  0  0
 22 23  1  0  0  0  0
 22 31  1  0  0  0  0
 22 38  1  1  0  0  0
 23 25  1  0  0  0  0
 23 24  1  6  0  0  0
 25 27  1  0  0  0  0
 25 26  1  6  0  0  0
 27 30  1  0  0  0  0
 27 28  1  1  0  0  0
 30 21  1  1  0  0  0
 30 31  1  0  0  0  0
 32 34  1  0  0  0  0
 32 41  1  0  0  0  0
 32 33  1  1  0  0  0
 34 35  1  0  0  0  0
 35 37  1  0  0  0  0
 35 36  1  6  0  0  0
 37 39  1  0  0  0  0
 37 38  1  6  0  0  0
 39 41  1  0  0  0  0
 39 40  1  1  0  0  0
 41 42  1  1  0  0  0
M  CHG  6  12   1  20   1  24   1  29   1  33   1  36   1
M  END
>  <CHROM.1>
-64.10543467,-157.41076984,162.14899447,-122.86643155,58.99148905,-108.82705124
-43.17882494,-48.00816999,63.36132679,-74.07449436,74.27943274,158.96566859
11.52462451,161.37364910,31.02294815,59.99958562,64.57001594,-49.74698242
-177.50347430,31.22296491,49.52621933,-57.79453107,-1.45127680,-1.90073527
2.17471186,-0.12219215,0.20669215,2.19422614

>  <Name>
1NEM.B

>  <RI>
0

>  <Rbt.Current_Directory>
/home/itssahil/PROJECTS/Mol_Feturizer/New_Systems/rnas/1nem

>  <Rbt.Executable>
rbdock ($Id: //depot/dev/client3/rdock/2013.1/src/exe/rbdock.cxx#4 $)

>  <Rbt.Library>
libRbt.so (2013.1, Build901 2013/11/27)

>  <Rbt.Parameter_File>
/export/apps/rDock/src/rDock_2013.1_src/data/scripts/dock_solv.prm

>  <Rbt.Receptor>
prm/blind_docking_20.prm

>  <SCORE>
14.2296

>  <SCORE.INTER>
-9.68548

>  <SCORE.INTER.CONST>
1

>  <SCORE.INTER.POLAR>
-5.15753

>  <SCORE.INTER.ROT>
9

>  <SCORE.INTER.SOLV>
42.2591

>  <SCORE.INTER.VDW>
-12.9516

>  <SCORE.INTER.norm>
-0.230607

>  <SCORE.INTRA>
19.817

>  <SCORE.INTRA.DIHEDRAL>
9.98485

>  <SCORE.INTRA.DIHEDRAL.0>
22.4324

>  <SCORE.INTRA.POLAR>
1.41681

>  <SCORE.INTRA.POLAR.0>
-1.83749

>  <SCORE.INTRA.REPUL>
0

>  <SCORE.INTRA.REPUL.0>
0

>  <SCORE.INTRA.SOLV>
3.20441

>  <SCORE.INTRA.SOLV.lig_0>
-160.638

>  <SCORE.INTRA.VDW>
8.40522

>  <SCORE.INTRA.VDW.0>
-7.61953

>  <SCORE.INTRA.norm>
0.471833

>  <SCORE.RESTR>
4.09804

>  <SCORE.RESTR.CAVITY>
4.09804

>  <SCORE.RESTR.norm>
0.0975723

>  <SCORE.SYSTEM>
0

>  <SCORE.SYSTEM.CONST>
0

>  <SCORE.SYSTEM.DIHEDRAL>
0

>  <SCORE.SYSTEM.SOLV>
0

>  <SCORE.SYSTEM.norm>
0

>  <SCORE.heavy>
42

>  <SCORE.norm>
0.338799

>  <RMSD>
4.888

$$$$
1NEM.B
 OpenBabel11021811403D
libRbt.so/2013.1/901 2013/11/27
 42 45  0  0  0  0  0  0  0  0999 V2000
    3.1746   -4.6681    1.9705 O   0  0  0  0  0  0  0  0  0  0  0  0
    1.7928   -4.9683    2.1771 C   0  0  0  0  0  0  0  0  0  0  0  0
    0.8587   -3.8822    1.6456 C   0  0  1  0  0  0  0  0  0  0  0  0
   -0.5030   -4.2775    1.7833 O   0  0  0  0  0  0  0  0  0  0  0  0
    0.9162   -2.5675    2.4071 C   0  0  1  0  0  0  0  0  0  0  0  0
    2.1572   -1.9396    2.0773 O   0  0  0  0  0  0  0  0  0  0  0  0
   -0.3386   -1.9181    1.8541 C   0  0  1  0  0  0  0  0  0  0  0  0
   -0.1935   -1.5459    0.4795 O   0  0  0  0  0  0  0  0  0  0  0  0
   -1.2974   -3.1078    1.9810 C   0  0  2  0  0  0  0  0  0  0  0  0
    2.2392   -0.5647    2.3230 C   0  0  2  0  0  0  0  0  0  0  0  0
    2.6520    0.1562    1.0327 C   0  0  2  0  0  0  0  0  0  0  0  0
    3.8937   -0.4501    0.4842 N   0  3  0  0  0  0  0  0  0  0  0  0
    2.8164    1.6599    1.2767 C   0  0  1  0  0  0  0  0  0  0  0  0
    1.5416    2.2512    1.4906 O   0  0  0  0  0  0  0  0  0  0  0  0
    3.7168    1.9284    2.4864 C   0  0  2  0  0  0  0  0  0  0  0  0
    5.0564    1.5471    2.1994 O   0  0  0  0  0  0  0  0  0  0  0  0
    3.2010    1.1497    3.6932 C   0  0  1  0  0  0  0  0  0  0  0  0
    3.1427   -0.2545    3.3759 O   0  0  0  0  0  0  0  0  0  0  0  0
    4.0685    1.3153    4.9285 C   0  0  0  0  0  0  0  0  0  0  0  0
    3.8904    0.1981    5.8824 N   0  3  0  0  0  0  0  0  0  0  0  0
   -6.1681   -0.5602    3.4505 C   0  0  0  0  0  0  0  0  0  0  0  0
   -4.8002   -2.4430    0.5677 C   0  0  2  0  0  0  0  0  0  0  0  0
   -4.4916   -1.3077   -0.4053 C   0  0  2  0  0  0  0  0  0  0  0  0
   -3.5219   -1.7603   -1.4312 N   0  3  0  0  0  0  0  0  0  0  0  0
   -3.9121   -0.1162    0.3454 C   0  0  1  0  0  0  0  0  0  0  0  0
   -3.7022    0.9589   -0.5572 O   0  0  0  0  0  0  0  0  0  0  0  0
   -4.8748    0.3076    1.4525 C   0  0  2  0  0  0  0  0  0  0  0  0
   -4.3098    1.3753    2.2024 O   0  0  0  0  0  0  0  0  0  0  0  0
   -6.1181   -1.5437    4.5565 N   0  3  0  0  0  0  0  0  0  0  0  0
   -5.1470   -0.8806    2.3729 C   0  0  2  0  0  0  0  0  0  0  0  0
   -5.6607   -1.9914    1.6100 O   0  0  0  0  0  0  0  0  0  0  0  0
   -4.9086   -4.9704    4.5818 C   0  0  2  0  0  0  0  0  0  0  0  0
   -5.0775   -6.0231    5.6098 N   0  3  0  0  0  0  0  0  0  0  0  0
   -5.3935   -5.4801    3.2294 C   0  0  0  0  0  0  0  0  0  0  0  0
   -5.2237   -4.4084    2.1617 C   0  0  2  0  0  0  0  0  0  0  0  0
   -5.7044   -4.9550    0.9007 N   0  3  0  0  0  0  0  0  0  0  0  0
   -3.7533   -4.0104    2.0575 C   0  0  1  0  0  0  0  0  0  0  0  0
   -3.6051   -2.9761    1.0652 O   0  0  0  0  0  0  0  0  0  0  0  0
   -3.2300   -3.5010    3.4077 C   0  0  2  0  0  0  0  0  0  0  0  0
   -1.8186   -3.2339    3.3022 O   0  0  0  0  0  0  0  0  0  0  0  0
   -3.4473   -4.5294    4.5149 C   0  0  1  0  0  0  0  0  0  0  0  0
   -3.0640   -3.9698    5.7640 O   0  0  0  0  0  0  0  0  0  0  0  0
  1  2  1  0  0  0  0
  3  2  1  1  0  0  0
  3  5  1  0  0  0  0
  3  4  1  0  0  0  0
  4  9  1  0  0  0  0
  5  7  1  0  0  0  0
  5  6  1  6  0  0  0
  7  9  1  0  0  0  0
  7  8  1  6  0  0  0
  9 40  1  1  0  0  0
 10  6  1  6  0  0  0
 10 11  1  0  0  0  0
 10 18  1  0  0  0  0
 11 13  1  0  0  0  0
 11 12  1  1  0  0  0
 13 15  1  0  0  0  0
 13 14  1  1  0  0  0
 15 17  1  0  0  0  0
 15 16  1  6  0  0  0
 17 19  1  1  0  0  0
 17 18  1  0  0  0  0
 19 20  1  0  0  0  0
 21 29  1  0  0  0  0
 22 23  1  0  0  0  0
 22 31  1  0  0  0  0
 22 38  1  1  0  0  0
 23 25  1  0  0  0  0
 23 24  1  6  0  0  0
 25 27  1  0  0  0  0
 25 26  1  6  0  0  0
 27 30  1  0  0  0  0
 27 28  1  1  0  0  0
 30 21  1  1  0  0  0
 30 31  1  0  0  0  0
 32 34  1  0  0  0  0
 32 41  1  0  0  0  0
 32 33  1  1  0  0  0
 34 35  1  0  0  0  0
 35 37  1  0  0  0  0
 35 36  1  6  0  0  0
 37 39  1  0  0  0  0
 37 38  1  6  0  0  0
 39 41  1  0  0  0  0
 39 40  1  6  0  0  0
 41 42  1  1  0  0  0
M  CHG  6  12   1  20   1  24   1  29   1  33   1  36   1
M  END
>  <CHROM.1>
39.57893166,175.51006509,160.74727051,-125.20110896,-162.89045467,-109.46948128
-95.97855463,-177.99150245,75.49658271,-157.64786053,172.45437138,-162.62439684
-118.46638503,176.60605217,59.40547611,-60.93877899,141.63515163,-58.55649933
110.03024361,8.45021461,17.37169600,-174.15748545,-1.28454964,-1.79826270
2.29489090,-0.33655731,0.18352761,2.65223888

>  <Name>
1NEM.B

>  <RI>
0

>  <Rbt.Current_Directory>
/home/itssahil/PROJECTS/Mol_Feturizer/New_Systems/rnas/1nem

>  <Rbt.Executable>
rbdock ($Id: //depot/dev/client3/rdock/2013.1/src/exe/rbdock.cxx#4 $)

>  <Rbt.Library>
libRbt.so (2013.1, Build901 2013/11/27)

>  <Rbt.Parameter_File>
/export/apps/rDock/src/rDock_2013.1_src/data/scripts/dock_solv.prm

>  <Rbt.Receptor>
prm/blind_docking_40.prm

>  <SCORE>
-8.49778

>  <SCORE.INTER>
-41.7851

>  <SCORE.INTER.CONST>
1

>  <SCORE.INTER.POLAR>
-5.61705

>  <SCORE.INTER.ROT>
9

>  <SCORE.INTER.SOLV>
41.921

>  <SCORE.INTER.VDW>
-32.7069

>  <SCORE.INTER.norm>
-0.994882

>  <SCORE.INTRA>
28.4452

>  <SCORE.INTRA.DIHEDRAL>
27.9264

>  <SCORE.INTRA.DIHEDRAL.0>
22.4324

>  <SCORE.INTRA.POLAR>
0.378873

>  <SCORE.INTRA.POLAR.0>
-1.83749

>  <SCORE.INTRA.REPUL>
0

>  <SCORE.INTRA.REPUL.0>
0

>  <SCORE.INTRA.SOLV>
-2.68441

>  <SCORE.INTRA.SOLV.lig_0>
-160.638

>  <SCORE.INTRA.VDW>
14.5361

>  <SCORE.INTRA.VDW.0>
-7.61953

>  <SCORE.INTRA.norm>
0.677268

>  <SCORE.RESTR>
4.84203

>  <SCORE.RESTR.CAVITY>
4.84203

>  <SCORE.RESTR.norm>
0.115287

>  <SCORE.SYSTEM>
0

>  <SCORE.SYSTEM.CONST>
0

>  <SCORE.SYSTEM.DIHEDRAL>
0

>  <SCORE.SYSTEM.SOLV>
0

>  <SCORE.SYSTEM.norm>
0

>  <SCORE.heavy>
42

>  <SCORE.norm>
-0.202328

>  <RMSD>
4.940

$$$$
1NEM.B
 OpenBabel11021811403D
libRbt.so/2013.1/901 2013/11/27
 42 45  0  0  0  0  0  0  0  0999 V2000
   -0.3899   -6.4511    1.4106 O   0  0  0  0  0  0  0  0  0  0  0  0
    0.4427   -5.3088    1.2010 C   0  0  0  0  0  0  0  0  0  0  0  0
   -0.3440   -4.0586    0.8100 C   0  0  1  0  0  0  0  0  0  0  0  0
   -1.5508   -4.4120    0.1404 O   0  0  0  0  0  0  0  0  0  0  0  0
   -0.8310   -3.2228    1.9830 C   0  0  1  0  0  0  0  0  0  0  0  0
    0.3111   -2.5705    2.5429 O   0  0  0  0  0  0  0  0  0  0  0  0
   -1.8225   -2.3394    1.2493 C   0  0  1  0  0  0  0  0  0  0  0  0
   -1.1737   -1.4026    0.3829 O   0  0  0  0  0  0  0  0  0  0  0  0
   -2.5349   -3.4170    0.4234 C   0  0  2  0  0  0  0  0  0  0  0  0
    0.9077   -1.5819    1.7530 C   0  0  2  0  0  0  0  0  0  0  0  0
    1.6997   -2.2488    0.6202 C   0  0  2  0  0  0  0  0  0  0  0  0
    2.6461   -3.2496    1.1796 N   0  3  0  0  0  0  0  0  0  0  0  0
    2.4228   -1.1998   -0.2307 C   0  0  1  0  0  0  0  0  0  0  0  0
    1.4737   -0.4669   -0.9939 O   0  0  0  0  0  0  0  0  0  0  0  0
    3.2302   -0.2377    0.6462 C   0  0  2  0  0  0  0  0  0  0  0  0
    4.3292   -0.9159    1.2413 O   0  0  0  0  0  0  0  0  0  0  0  0
    2.3297    0.3466    1.7308 C   0  0  1  0  0  0  0  0  0  0  0  0
    1.7501   -0.7200    2.5070 O   0  0  0  0  0  0  0  0  0  0  0  0
    3.0635    1.2741    2.6834 C   0  0  0  0  0  0  0  0  0  0  0  0
    3.1636    2.6498    2.1473 N   0  3  0  0  0  0  0  0  0  0  0  0
   -7.9063   -5.6740    2.4418 C   0  0  0  0  0  0  0  0  0  0  0  0
   -5.2972   -4.5038    4.7977 C   0  0  2  0  0  0  0  0  0  0  0  0
   -5.0804   -5.7569    5.6425 C   0  0  2  0  0  0  0  0  0  0  0  0
   -3.7749   -5.6852    6.3413 N   0  3  0  0  0  0  0  0  0  0  0  0
   -5.1122   -6.9971    4.7594 C   0  0  1  0  0  0  0  0  0  0  0  0
   -4.9874   -8.1588    5.5653 O   0  0  0  0  0  0  0  0  0  0  0  0
   -6.4252   -7.0364    3.9808 C   0  0  2  0  0  0  0  0  0  0  0  0
   -6.4335   -8.1543    3.1023 O   0  0  0  0  0  0  0  0  0  0  0  0
   -7.7142   -5.6191    0.9745 N   0  3  0  0  0  0  0  0  0  0  0  0
   -6.5785   -5.7475    3.1755 C   0  0  2  0  0  0  0  0  0  0  0  0
   -6.5072   -4.6041    4.0515 O   0  0  0  0  0  0  0  0  0  0  0  0
   -5.5498   -0.9546    1.7279 C   0  0  2  0  0  0  0  0  0  0  0  0
   -5.5485    0.3399    1.0083 N   0  3  0  0  0  0  0  0  0  0  0  0
   -5.1473   -0.7424    3.1829 C   0  0  0  0  0  0  0  0  0  0  0  0
   -5.1421   -2.0660    3.9348 C   0  0  2  0  0  0  0  0  0  0  0  0
   -4.7530   -1.7951    5.3116 N   0  3  0  0  0  0  0  0  0  0  0  0
   -4.1639   -3.0334    3.2727 C   0  0  1  0  0  0  0  0  0  0  0  0
   -4.1858   -4.2925    3.9730 O   0  0  0  0  0  0  0  0  0  0  0  0
   -4.5357   -3.2614    1.8010 C   0  0  2  0  0  0  0  0  0  0  0  0
   -3.5370   -4.0929    1.1799 O   0  0  0  0  0  0  0  0  0  0  0  0
   -4.6146   -1.9437    1.0341 C   0  0  1  0  0  0  0  0  0  0  0  0
   -5.0810   -2.1902   -0.2858 O   0  0  0  0  0  0  0  0  0  0  0  0
  1  2  1  0  0  0  0
  3  2  1  1  0  0  0
  3  5  1  0  0  0  0
  3  4  1  0  0  0  0
  4  9  1  0  0  0  0
  5  7  1  0  0  0  0
  5  6  1  6  0  0  0
  7  9  1  0  0  0  0
  7  8  1  6  0  0  0
  9 40  1  1  0  0  0
 10  6  1  1  0  0  0
 10 11  1  0  0  0  0
 10 18  1  0  0  0  0
 11 13  1  0  0  0  0
 11 12  1  1  0  0  0
 13 15  1  0  0  0  0
 13 14  1  1  0  0  0
 15 17  1  0  0  0  0
 15 16  1  1  0  0  0
 17 19  1  1  0  0  0
 17 18  1  0  0  0  0
 19 20  1  0  0  0  0
 21 29  1  0  0  0  0
 22 23  1  0  0  0  0
 22 31  1  0  0  0  0
 22 38  1  6  0  0  0
 23 25  1  0  0  0  0
 23 24  1  6  0  0  0
 25 27  1  0  0  0  0
 25 26  1  1  0  0  0
 27 30  1  0  0  0  0
 27 28  1  6  0  0  0
 30 21  1  1  0  0  0
 30 31  1  0  0  0  0
 32 34  1  0  0  0  0
 32 41  1  0  0  0  0
 32 33  1  6  0  0  0
 34 35  1  0  0  0  0
 35 37  1  0  0  0  0
 35 36  1  1  0  0  0
 37 39  1  0  0  0  0
 37 38  1  1  0  0  0
 39 41  1  0  0  0  0
 39 40  1  6  0  0  0
 41 42  1  6  0  0  0
M  CHG  6  12   1  20   1  24   1  29   1  33   1  36   1
M  END
>  <CHROM.1>
169.14944547,-27.81373252,68.41909815,-74.88216289,71.83380719,169.27426335
-109.65212367,-46.19266831,-179.44268942,84.02697197,174.97482840,-117.73977074
-56.26249692,-170.79852611,169.44249452,-179.99817910,57.42695207,93.87402974
-58.14395111,17.49167311,-98.25252992,-179.82140952,-2.33329168,-3.14249869
2.23942872,-0.57813021,-0.11099493,2.84089317

>  <Name>
1NEM.B

>  <RI>
0

>  <Rbt.Current_Directory>
/home/itssahil/PROJECTS/Mol_Feturizer/New_Systems/rnas/1nem

>  <Rbt.Executable>
rbdock ($Id: //depot/dev/client3/rdock/2013.1/src/exe/rbdock.cxx#4 $)

>  <Rbt.Library>
libRbt.so (2013.1, Build901 2013/11/27)

>  <Rbt.Parameter_File>
/export/apps/rDock/src/rDock_2013.1_src/data/scripts/dock_solv.prm

>  <Rbt.Receptor>
prm/blind_docking_100.prm

>  <SCORE>
-10.4574

>  <SCORE.INTER>
-39.4036

>  <SCORE.INTER.CONST>
1

>  <SCORE.INTER.POLAR>
-9.98538

>  <SCORE.INTER.ROT>
9

>  <SCORE.INTER.SOLV>
39.6578

>  <SCORE.INTER.VDW>
-15.8037

>  <SCORE.INTER.norm>
-0.938181

>  <SCORE.INTRA>
26.9103

>  <SCORE.INTRA.DIHEDRAL>
9.65094

>  <SCORE.INTRA.DIHEDRAL.0>
22.4324

>  <SCORE.INTRA.POLAR>
1.10619

>  <SCORE.INTRA.POLAR.0>
-1.83749

>  <SCORE.INTRA.REPUL>
0.0479184

>  <SCORE.INTRA.REPUL.0>
0

>  <SCORE.INTRA.SOLV>
-2.85092

>  <SCORE.INTRA.SOLV.lig_0>
-160.638

>  <SCORE.INTRA.VDW>
19.5096

>  <SCORE.INTRA.VDW.0>
-7.61953

>  <SCORE.INTRA.norm>
0.640721

>  <SCORE.RESTR>
2.03588

>  <SCORE.RESTR.CAVITY>
2.03588

>  <SCORE.RESTR.norm>
0.0484733

>  <SCORE.SYSTEM>
0

>  <SCORE.SYSTEM.CONST>
0

>  <SCORE.SYSTEM.DIHEDRAL>
0

>  <SCORE.SYSTEM.SOLV>
0

>  <SCORE.SYSTEM.norm>
0

>  <SCORE.heavy>
42

>  <SCORE.norm>
-0.248987

>  <RMSD>
4.942

$$$$
1NEM.B
 OpenBabel11021811403D
libRbt.so/2013.1/901 2013/11/27
 42 45  0  0  0  0  0  0  0  0999 V2000
    2.0330   -4.9447    3.2950 O   0  0  0  0  0  0  0  0  0  0  0  0
    2.0106   -4.7404    1.8809 C   0  0  0  0  0  0  0  0  0  0  0  0
    1.0684   -3.6159    1.4537 C   0  0  1  0  0  0  0  0  0  0  0  0
   -0.2906   -3.9959    1.6494 O   0  0  0  0  0  0  0  0  0  0  0  0
    1.1921   -2.3398    2.2708 C   0  0  1  0  0  0  0  0  0  0  0  0
    2.4242   -1.7165    1.9010 O   0  0  0  0  0  0  0  0  0  0  0  0
   -0.0793   -1.6453    1.8200 C   0  0  1  0  0  0  0  0  0  0  0  0
   -0.0041   -1.2110    0.4581 O   0  0  0  0  0  0  0  0  0  0  0  0
   -1.0512   -2.8245    1.9455 C   0  0  2  0  0  0  0  0  0  0  0  0
    2.8802   -0.6986    2.7456 C   0  0  2  0  0  0  0  0  0  0  0  0
    2.3688    0.6536    2.2304 C   0  0  2  0  0  0  0  0  0  0  0  0
    2.7340    0.8257    0.7996 N   0  3  0  0  0  0  0  0  0  0  0  0
    2.9014    1.8025    3.0927 C   0  0  1  0  0  0  0  0  0  0  0  0
    2.2741    1.7732    4.3679 O   0  0  0  0  0  0  0  0  0  0  0  0
    4.4204    1.7064    3.2650 C   0  0  2  0  0  0  0  0  0  0  0  0
    5.0749    1.9625    2.0287 O   0  0  0  0  0  0  0  0  0  0  0  0
    4.7924    0.3162    3.7729 C   0  0  1  0  0  0  0  0  0  0  0  0
    4.2971   -0.6825    2.8601 O   0  0  0  0  0  0  0  0  0  0  0  0
    6.2901    0.1137    3.9216 C   0  0  0  0  0  0  0  0  0  0  0  0
    6.6184   -1.2467    4.4026 N   0  3  0  0  0  0  0  0  0  0  0  0
   -5.8722   -0.1879    3.4615 C   0  0  0  0  0  0  0  0  0  0  0  0
   -4.6545   -2.3267    0.6920 C   0  0  2  0  0  0  0  0  0  0  0  0
   -4.4539   -1.2918   -0.4124 C   0  0  2  0  0  0  0  0  0  0  0  0
   -3.5463   -1.8247   -1.4563 N   0  3  0  0  0  0  0  0  0  0  0  0
   -3.8611   -0.0143    0.1669 C   0  0  1  0  0  0  0  0  0  0  0  0
   -3.7520    0.9656   -0.8541 O   0  0  0  0  0  0  0  0  0  0  0  0
   -4.7550    0.4985    1.2939 C   0  0  2  0  0  0  0  0  0  0  0  0
   -4.1727    1.6525    1.8861 O   0  0  0  0  0  0  0  0  0  0  0  0
   -6.1725   -1.3251    4.3614 N   0  3  0  0  0  0  0  0  0  0  0  0
   -4.9213   -0.5935    2.3488 C   0  0  2  0  0  0  0  0  0  0  0  0
   -5.4521   -1.7904    1.7443 O   0  0  0  0  0  0  0  0  0  0  0  0
   -4.4260   -4.9439    4.6585 C   0  0  2  0  0  0  0  0  0  0  0  0
   -4.4870   -6.0353    5.6576 N   0  3  0  0  0  0  0  0  0  0  0  0
   -4.9521   -5.4371    3.3153 C   0  0  0  0  0  0  0  0  0  0  0  0
   -4.8932   -4.3254    2.2770 C   0  0  2  0  0  0  0  0  0  0  0  0
   -5.4085   -4.8580    1.0237 N   0  3  0  0  0  0  0  0  0  0  0  0
   -3.4529   -3.8457    2.1137 C   0  0  1  0  0  0  0  0  0  0  0  0
   -3.4099   -2.7748    1.1506 O   0  0  0  0  0  0  0  0  0  0  0  0
   -2.8887   -3.3507    3.4527 C   0  0  2  0  0  0  0  0  0  0  0  0
   -1.5004   -3.0047    3.2867 O   0  0  0  0  0  0  0  0  0  0  0  0
   -2.9951   -4.4229    4.5342 C   0  0  1  0  0  0  0  0  0  0  0  0
   -2.5783   -3.8822    5.7810 O   0  0  0  0  0  0  0  0  0  0  0  0
  1  2  1  0  0  0  0
  3  2  1  1  0  0  0
  3  5  1  0  0  0  0
  3  4  1  0  0  0  0
  4  9  1  0  0  0  0
  5  7  1  0  0  0  0
  5  6  1  6  0  0  0
  7  9  1  0  0  0  0
  7  8  1  6  0  0  0
  9 40  1  1  0  0  0
 10  6  1  6  0  0  0
 10 11  1  0  0  0  0
 10 18  1  0  0  0  0
 11 13  1  0  0  0  0
 11 12  1  6  0  0  0
 13 15  1  0  0  0  0
 13 14  1  1  0  0  0
 15 17  1  0  0  0  0
 15 16  1  6  0  0  0
 17 19  1  6  0  0  0
 17 18  1  0  0  0  0
 19 20  1  0  0  0  0
 21 29  1  0  0  0  0
 22 23  1  0  0  0  0
 22 31  1  0  0  0  0
 22 38  1  1  0  0  0
 23 25  1  0  0  0  0
 23 24  1  6  0  0  0
 25 27  1  0  0  0  0
 25 26  1  6  0  0  0
 27 30  1  0  0  0  0
 27 28  1  1  0  0  0
 30 21  1  1  0  0  0
 30 31  1  0  0  0  0
 32 34  1  0  0  0  0
 32 41  1  0  0  0  0
 32 33  1  1  0  0  0
 34 35  1  0  0  0  0
 35 37  1  0  0  0  0
 35 36  1  6  0  0  0
 37 39  1  0  0  0  0
 37 38  1  6  0  0  0
 39 41  1  0  0  0  0
 39 40  1  6  0  0  0
 41 42  1  1  0  0  0
M  CHG  6  12   1  20   1  24   1  29   1  33   1  36   1
M  END
>  <CHROM.1>
117.53116057,-69.77918380,-165.79824500,-92.57327173,75.49724862,-105.09797913
45.80597992,65.04419666,176.11936058,-179.43996398,87.96795911,171.65408615
13.11755314,-174.64869133,62.94849069,-42.66110077,165.51882631,72.95351025
125.74794350,6.08947922,16.70290018,97.44367580,-0.94677134,-1.75511958,2.39565232
-0.23541274,0.19914529,2.66306650

>  <Name>
1NEM.B

>  <RI>
0

>  <Rbt.Current_Directory>
/home/itssahil/PROJECTS/Mol_Feturizer/New_Systems/rnas/1nem

>  <Rbt.Executable>
rbdock ($Id: //depot/dev/client3/rdock/2013.1/src/exe/rbdock.cxx#4 $)

>  <Rbt.Library>
libRbt.so (2013.1, Build901 2013/11/27)

>  <Rbt.Parameter_File>
/export/apps/rDock/src/rDock_2013.1_src/data/scripts/dock_solv.prm

>  <Rbt.Receptor>
prm/blind_docking_80.prm

>  <SCORE>
-15.7623

>  <SCORE.INTER>
-55.7277

>  <SCORE.INTER.CONST>
1

>  <SCORE.INTER.POLAR>
-8.17501

>  <SCORE.INTER.ROT>
9

>  <SCORE.INTER.SOLV>
43.0714

>  <SCORE.INTER.VDW>
-33.8589

>  <SCORE.INTER.norm>
-1.32685

>  <SCORE.INTRA>
31.7918

>  <SCORE.INTRA.DIHEDRAL>
27.9843

>  <SCORE.INTRA.DIHEDRAL.0>
22.4324

>  <SCORE.INTRA.POLAR>
1.02536

>  <SCORE.INTRA.POLAR.0>
-1.83749

>  <SCORE.INTRA.REPUL>
0

>  <SCORE.INTRA.REPUL.0>
0

>  <SCORE.INTRA.SOLV>
-2.89929

>  <SCORE.INTRA.SOLV.lig_0>
-160.638

>  <SCORE.INTRA.VDW>
15.7631

>  <SCORE.INTRA.VDW.0>
-7.61953

>  <SCORE.INTRA.norm>
0.756947

>  <SCORE.RESTR>
8.17363

>  <SCORE.RESTR.CAVITY>
8.17363

>  <SCORE.RESTR.norm>
0.19461

>  <SCORE.SYSTEM>
0

>  <SCORE.SYSTEM.CONST>
0

>  <SCORE.SYSTEM.DIHEDRAL>
0

>  <SCORE.SYSTEM.SOLV>
0

>  <SCORE.SYSTEM.norm>
0

>  <SCORE.heavy>
42

>  <SCORE.norm>
-0.375293

>  <RMSD>
4.956

$$$$
1NEM.B
 OpenBabel11021811403D
libRbt.so/2013.1/901 2013/11/27
 42 45  0  0  0  0  0  0  0  0999 V2000
   -0.2220   -6.0295    1.1979 O   0  0  0  0  0  0  0  0  0  0  0  0
   -1.5206   -5.5967    0.7876 C   0  0  0  0  0  0  0  0  0  0  0  0
   -1.5479   -4.1403    0.3262 C   0  0  1  0  0  0  0  0  0  0  0  0
   -2.6245   -3.9193   -0.5802 O   0  0  0  0  0  0  0  0  0  0  0  0
   -1.8124   -3.1297    1.4309 C   0  0  1  0  0  0  0  0  0  0  0  0
   -0.6323   -3.0604    2.2346 O   0  0  0  0  0  0  0  0  0  0  0  0
   -2.1192   -1.9161    0.5736 C   0  0  1  0  0  0  0  0  0  0  0  0
   -0.9561   -1.4210   -0.0981 O   0  0  0  0  0  0  0  0  0  0  0  0
   -3.0719   -2.5714   -0.4333 C   0  0  2  0  0  0  0  0  0  0  0  0
    0.4971   -2.5002    1.6280 C   0  0  2  0  0  0  0  0  0  0  0  0
    1.6335   -3.5316    1.6241 C   0  0  2  0  0  0  0  0  0  0  0  0
    1.8605   -4.0461    3.0004 N   0  3  0  0  0  0  0  0  0  0  0  0
    2.9108   -2.9335    1.0256 C   0  0  1  0  0  0  0  0  0  0  0  0
    2.7419   -2.7498   -0.3738 O   0  0  0  0  0  0  0  0  0  0  0  0
    3.2538   -1.5928    1.6822 C   0  0  2  0  0  0  0  0  0  0  0  0
    3.6488   -1.7914    3.0337 O   0  0  0  0  0  0  0  0  0  0  0  0
    2.0413   -0.6680    1.6246 C   0  0  1  0  0  0  0  0  0  0  0  0
    0.9171   -1.3012    2.2659 O   0  0  0  0  0  0  0  0  0  0  0  0
    2.2756    0.6700    2.3035 C   0  0  0  0  0  0  0  0  0  0  0  0
    3.6884    0.8446    2.7074 N   0  3  0  0  0  0  0  0  0  0  0  0
   -7.9412   -6.1332    3.9293 C   0  0  0  0  0  0  0  0  0  0  0  0
   -6.1394   -3.8922    1.5930 C   0  0  2  0  0  0  0  0  0  0  0  0
   -6.8137   -4.2440    0.2691 C   0  0  2  0  0  0  0  0  0  0  0  0
   -6.5914   -3.1650   -0.7227 N   0  3  0  0  0  0  0  0  0  0  0  0
   -8.3098   -4.4372    0.4773 C   0  0  1  0  0  0  0  0  0  0  0  0
   -8.9123   -4.8393   -0.7433 O   0  0  0  0  0  0  0  0  0  0  0  0
   -8.5436   -5.4960    1.5525 C   0  0  2  0  0  0  0  0  0  0  0  0
   -9.9367   -5.6327    1.8021 O   0  0  0  0  0  0  0  0  0  0  0  0
   -7.0044   -7.2573    3.7017 N   0  3  0  0  0  0  0  0  0  0  0  0
   -7.8282   -5.0835    2.8375 C   0  0  2  0  0  0  0  0  0  0  0  0
   -6.4240   -4.8801    2.5799 O   0  0  0  0  0  0  0  0  0  0  0  0
   -4.5330    0.9857    0.9584 C   0  0  2  0  0  0  0  0  0  0  0  0
   -3.4937    2.0392    0.8988 N   0  3  0  0  0  0  0  0  0  0  0  0
   -5.0060    0.8012    2.3959 C   0  0  0  0  0  0  0  0  0  0  0  0
   -6.0737   -0.2811    2.4729 C   0  0  2  0  0  0  0  0  0  0  0  0
   -6.4821   -0.4064    3.8648 N   0  3  0  0  0  0  0  0  0  0  0  0
   -5.5114   -1.6007    1.9494 C   0  0  1  0  0  0  0  0  0  0  0  0
   -6.5361   -2.6125    1.9992 O   0  0  0  0  0  0  0  0  0  0  0  0
   -5.0161   -1.4465    0.5047 C   0  0  2  0  0  0  0  0  0  0  0  0
   -4.3987   -2.6760    0.0784 O   0  0  0  0  0  0  0  0  0  0  0  0
   -3.9913   -0.3216    0.3826 C   0  0  1  0  0  0  0  0  0  0  0  0
   -3.6548   -0.1329   -0.9855 O   0  0  0  0  0  0  0  0  0  0  0  0
  1  2  1  0  0  0  0
  3  2  1  1  0  0  0
  3  5  1  0  0  0  0
  3  4  1  0  0  0  0
  4  9  1  0  0  0  0
  5  7  1  0  0  0  0
  5  6  1  1  0  0  0
  7  9  1  0  0  0  0
  7  8  1  6  0  0  0
  9 40  1  1  0  0  0
 10  6  1  1  0  0  0
 10 11  1  0  0  0  0
 10 18  1  0  0  0  0
 11 13  1  0  0  0  0
 11 12  1  1  0  0  0
 13 15  1  0  0  0  0
 13 14  1  6  0  0  0
 15 17  1  0  0  0  0
 15 16  1  1  0  0  0
 17 19  1  1  0  0  0
 17 18  1  0  0  0  0
 19 20  1  0  0  0  0
 21 29  1  0  0  0  0
 22 23  1  0  0  0  0
 22 31  1  0  0  0  0
 22 38  1  1  0  0  0
 23 25  1  0  0  0  0
 23 24  1  6  0  0  0
 25 27  1  0  0  0  0
 25 26  1  6  0  0  0
 27 30  1  0  0  0  0
 27 28  1  1  0  0  0
 30 21  1  1  0  0  0
 30 31  1  0  0  0  0
 32 34  1  0  0  0  0
 32 41  1  0  0  0  0
 32 33  1  1  0  0  0
 34 35  1  0  0  0  0
 35 37  1  0  0  0  0
 35 36  1  1  0  0  0
 37 39  1  0  0  0  0
 37 38  1  6  0  0  0
 39 41  1  0  0  0  0
 39 40  1  1  0  0  0
 41 42  1  6  0  0  0
M  CHG  6  12   1  20   1  24   1  29   1  33   1  36   1
M  END
>  <CHROM.1>
-64.32844252,154.67754522,68.01554714,-120.63802395,-165.16364284,171.19427931
108.70057202,-176.11586834,63.28779327,7.75351484,-52.40392240,77.99571970
103.24864311,-110.73490134,63.29447804,177.30052766,-41.60452442,-70.73547269
178.05833836,-177.67425032,-126.12008374,-66.68361498,-3.02686870,-2.67598113
1.37865701,-0.25897446,0.03294457,3.05287898

>  <Name>
1NEM.B

>  <RI>
0

>  <Rbt.Current_Directory>
/home/itssahil/PROJECTS/Mol_Feturizer/New_Systems/rnas/1nem

>  <Rbt.Executable>
rbdock ($Id: //depot/dev/client3/rdock/2013.1/src/exe/rbdock.cxx#4 $)

>  <Rbt.Library>
libRbt.so (2013.1, Build901 2013/11/27)

>  <Rbt.Parameter_File>
/export/apps/rDock/src/rDock_2013.1_src/data/scripts/dock_solv.prm

>  <Rbt.Receptor>
prm/blind_docking_80.prm

>  <SCORE>
8.15978

>  <SCORE.INTER>
-33.3023

>  <SCORE.INTER.CONST>
1

>  <SCORE.INTER.POLAR>
-9.6309

>  <SCORE.INTER.ROT>
9

>  <SCORE.INTER.SOLV>
50.892

>  <SCORE.INTER.VDW>
-16.6625

>  <SCORE.INTER.norm>
-0.792912

>  <SCORE.INTRA>
38.7788

>  <SCORE.INTRA.DIHEDRAL>
17.8088

>  <SCORE.INTRA.DIHEDRAL.0>
22.4324

>  <SCORE.INTRA.POLAR>
0.722139

>  <SCORE.INTRA.POLAR.0>
-1.83749

>  <SCORE.INTRA.REPUL>
0.0895501

>  <SCORE.INTRA.REPUL.0>
0

>  <SCORE.INTRA.SOLV>
2.94025

>  <SCORE.INTRA.SOLV.lig_0>
-160.638

>  <SCORE.INTRA.VDW>
25.5013

>  <SCORE.INTRA.VDW.0>
-7.61953

>  <SCORE.INTRA.norm>
0.923305

>  <SCORE.RESTR>
2.68324

>  <SCORE.RESTR.CAVITY>
2.68324

>  <SCORE.RESTR.norm>
0.0638866

>  <SCORE.SYSTEM>
0

>  <SCORE.SYSTEM.CONST>
0

>  <SCORE.SYSTEM.DIHEDRAL>
0

>  <SCORE.SYSTEM.SOLV>
0

>  <SCORE.SYSTEM.norm>
0

>  <SCORE.heavy>
42

>  <SCORE.norm>
0.19428

>  <RMSD>
4.959

$$$$
1NEM.B
 OpenBabel11021811403D
libRbt.so/2013.1/901 2013/11/27
 42 45  0  0  0  0  0  0  0  0999 V2000
   -1.7435   -6.4796    1.9023 O   0  0  0  0  0  0  0  0  0  0  0  0
   -0.6725   -5.7854    1.2596 C   0  0  0  0  0  0  0  0  0  0  0  0
   -1.1156   -4.4795    0.6015 C   0  0  1  0  0  0  0  0  0  0  0  0
   -2.2588   -4.6929   -0.2214 O   0  0  0  0  0  0  0  0  0  0  0  0
   -1.5831   -3.4067    1.5721 C   0  0  1  0  0  0  0  0  0  0  0  0
   -0.4241   -2.9067    2.2429 O   0  0  0  0  0  0  0  0  0  0  0  0
   -2.2508   -2.4681    0.5846 C   0  0  1  0  0  0  0  0  0  0  0  0
   -1.3016   -1.8050   -0.2571 O   0  0  0  0  0  0  0  0  0  0  0  0
   -3.0441   -3.5005   -0.2251 C   0  0  2  0  0  0  0  0  0  0  0  0
    0.5596   -2.3308    1.4319 C   0  0  2  0  0  0  0  0  0  0  0  0
    1.8055   -3.2270    1.4337 C   0  0  2  0  0  0  0  0  0  0  0  0
    2.2358   -3.4999    2.8303 N   0  3  0  0  0  0  0  0  0  0  0  0
    2.9315   -2.5972    0.6073 C   0  0  1  0  0  0  0  0  0  0  0  0
    2.5961   -2.6468   -0.7731 O   0  0  0  0  0  0  0  0  0  0  0  0
    3.1772   -1.1440    1.0245 C   0  0  2  0  0  0  0  0  0  0  0  0
    3.7327   -1.0928    2.3325 O   0  0  0  0  0  0  0  0  0  0  0  0
    1.8626   -0.3698    0.9864 C   0  0  1  0  0  0  0  0  0  0  0  0
    0.8965   -1.0116    1.8411 O   0  0  0  0  0  0  0  0  0  0  0  0
    2.0037    1.0729    1.4391 C   0  0  0  0  0  0  0  0  0  0  0  0
    2.6337    1.1737    2.7743 N   0  3  0  0  0  0  0  0  0  0  0  0
   -8.3491   -3.5144    1.3720 C   0  0  0  0  0  0  0  0  0  0  0  0
   -5.7924   -4.1588    3.9749 C   0  0  2  0  0  0  0  0  0  0  0  0
   -6.1170   -5.6013    4.3553 C   0  0  2  0  0  0  0  0  0  0  0  0
   -4.9570   -6.2265    5.0343 N   0  3  0  0  0  0  0  0  0  0  0  0
   -6.4667   -6.4062    3.1107 C   0  0  1  0  0  0  0  0  0  0  0  0
   -6.8414   -7.7230    3.4850 O   0  0  0  0  0  0  0  0  0  0  0  0
   -7.6134   -5.7250    2.3671 C   0  0  2  0  0  0  0  0  0  0  0  0
   -7.8999   -6.4322    1.1675 O   0  0  0  0  0  0  0  0  0  0  0  0
   -8.4416   -2.1314    1.8933 N   0  3  0  0  0  0  0  0  0  0  0  0
   -7.2220   -4.2862    2.0358 C   0  0  2  0  0  0  0  0  0  0  0  0
   -6.8676   -3.5785    3.2413 O   0  0  0  0  0  0  0  0  0  0  0  0
   -5.1752   -0.3406    1.4124 C   0  0  2  0  0  0  0  0  0  0  0  0
   -4.8821    0.9593    0.7661 N   0  3  0  0  0  0  0  0  0  0  0  0
   -4.5486   -0.3849    2.8015 C   0  0  0  0  0  0  0  0  0  0  0  0
   -4.8401   -1.7173    3.4774 C   0  0  2  0  0  0  0  0  0  0  0  0
   -4.2187   -1.6948    4.7941 N   0  3  0  0  0  0  0  0  0  0  0  0
   -4.2825   -2.8596    2.6315 C   0  0  1  0  0  0  0  0  0  0  0  0
   -4.5871   -4.1181    3.2637 O   0  0  0  0  0  0  0  0  0  0  0  0
   -4.8868   -2.8376    1.2207 C   0  0  2  0  0  0  0  0  0  0  0  0
   -4.2644   -3.8598    0.4192 O   0  0  0  0  0  0  0  0  0  0  0  0
   -4.6687   -1.4884    0.5405 C   0  0  1  0  0  0  0  0  0  0  0  0
   -5.3490   -1.4707   -0.7074 O   0  0  0  0  0  0  0  0  0  0  0  0
  1  2  1  0  0  0  0
  3  2  1  1  0  0  0
  3  5  1  0  0  0  0
  3  4  1  0  0  0  0
  4  9  1  0  0  0  0
  5  7  1  0  0  0  0
  5  6  1  6  0  0  0
  7  9  1  0  0  0  0
  7  8  1  6  0  0  0
  9 40  1  1  0  0  0
 10  6  1  1  0  0  0
 10 11  1  0  0  0  0
 10 18  1  0  0  0  0
 11 13  1  0  0  0  0
 11 12  1  1  0  0  0
 13 15  1  0  0  0  0
 13 14  1  6  0  0  0
 15 17  1  0  0  0  0
 15 16  1  1  0  0  0
 17 19  1  1  0  0  0
 17 18  1  0  0  0  0
 19 20  1  0  0  0  0
 21 29  1  0  0  0  0
 22 23  1  0  0  0  0
 22 31  1  0  0  0  0
 22 38  1  6  0  0  0
 23 25  1  0  0  0  0
 23 24  1  6  0  0  0
 25 27  1  0  0  0  0
 25 26  1  1  0  0  0
 27 30  1  0  0  0  0
 27 28  1  6  0  0  0
 30 21  1  1  0  0  0
 30 31  1  0  0  0  0
 32 34  1  0  0  0  0
 32 41  1  0  0  0  0
 32 33  1  6  0  0  0
 34 35  1  0  0  0  0
 35 37  1  0  0  0  0
 35 36  1  1  0  0  0
 37 39  1  0  0  0  0
 37 38  1  1  0  0  0
 39 41  1  0  0  0  0
 39 40  1  6  0  0  0
 41 42  1  6  0  0  0
M  CHG  6  12   1  20   1  24   1  29   1  33   1  36   1
M  END
>  <CHROM.1>
-54.72605996,-50.04751671,60.08177380,-111.37917531,171.25202032,145.54840376
-84.05696380,170.74813989,63.01834663,-53.92357666,56.54432092,138.82066894
87.10234699,169.06461929,56.11257580,-62.11601528,-52.07664961,-73.89871025
-73.04370930,32.55177399,-85.62021438,-55.32234645,-2.79929143,-3.01871235
1.82513015,-2.78856029,0.06418934,-0.19474199

>  <Name>
1NEM.B

>  <RI>
0

>  <Rbt.Current_Directory>
/home/itssahil/PROJECTS/Mol_Feturizer/New_Systems/rnas/1nem

>  <Rbt.Executable>
rbdock ($Id: //depot/dev/client3/rdock/2013.1/src/exe/rbdock.cxx#4 $)

>  <Rbt.Library>
libRbt.so (2013.1, Build901 2013/11/27)

>  <Rbt.Parameter_File>
/export/apps/rDock/src/rDock_2013.1_src/data/scripts/dock_solv.prm

>  <Rbt.Receptor>
prm/blind_docking_40.prm

>  <SCORE>
1.69099

>  <SCORE.INTER>
-19.3292

>  <SCORE.INTER.CONST>
1

>  <SCORE.INTER.POLAR>
-8.04352

>  <SCORE.INTER.ROT>
9

>  <SCORE.INTER.SOLV>
49.6824

>  <SCORE.INTER.VDW>
-12.2352

>  <SCORE.INTER.norm>
-0.460219

>  <SCORE.INTRA>
20.6361

>  <SCORE.INTRA.DIHEDRAL>
5.7566

>  <SCORE.INTRA.DIHEDRAL.0>
22.4324

>  <SCORE.INTRA.POLAR>
0.490313

>  <SCORE.INTRA.POLAR.0>
-1.83749

>  <SCORE.INTRA.REPUL>
0.151317

>  <SCORE.INTRA.REPUL.0>
0

>  <SCORE.INTRA.SOLV>
1.80415

>  <SCORE.INTRA.SOLV.lig_0>
-160.638

>  <SCORE.INTRA.VDW>
14.4321

>  <SCORE.INTRA.VDW.0>
-7.61953

>  <SCORE.INTRA.norm>
0.491337

>  <SCORE.RESTR>
0.38404

>  <SCORE.RESTR.CAVITY>
0.38404

>  <SCORE.RESTR.norm>
0.00914382

>  <SCORE.SYSTEM>
0

>  <SCORE.SYSTEM.CONST>
0

>  <SCORE.SYSTEM.DIHEDRAL>
0

>  <SCORE.SYSTEM.SOLV>
0

>  <SCORE.SYSTEM.norm>
0

>  <SCORE.heavy>
42

>  <SCORE.norm>
0.0402616

>  <RMSD>
4.967

$$$$
1NEM.B
 OpenBabel11021811403D
libRbt.so/2013.1/901 2013/11/27
 42 45  0  0  0  0  0  0  0  0999 V2000
   -1.4023   -6.1129    1.6820 O   0  0  0  0  0  0  0  0  0  0  0  0
   -0.3509   -5.3609    1.0729 C   0  0  0  0  0  0  0  0  0  0  0  0
   -0.7491   -3.9187    0.7623 C   0  0  1  0  0  0  0  0  0  0  0  0
   -2.0102   -3.8758    0.1010 O   0  0  0  0  0  0  0  0  0  0  0  0
   -0.9701   -3.0440    1.9861 C   0  0  1  0  0  0  0  0  0  0  0  0
    0.3139   -2.7765    2.5544 O   0  0  0  0  0  0  0  0  0  0  0  0
   -1.6714   -1.8756    1.3190 C   0  0  1  0  0  0  0  0  0  0  0  0
   -0.7863   -1.1172    0.4879 O   0  0  0  0  0  0  0  0  0  0  0  0
   -2.6668   -2.6583    0.4546 C   0  0  2  0  0  0  0  0  0  0  0  0
    1.0913   -1.8144    1.9007 C   0  0  2  0  0  0  0  0  0  0  0  0
    1.9356   -2.4974    0.8163 C   0  0  2  0  0  0  0  0  0  0  0  0
    2.7085   -3.6229    1.4048 N   0  3  0  0  0  0  0  0  0  0  0  0
    2.8509   -1.4853    0.1196 C   0  0  1  0  0  0  0  0  0  0  0  0
    2.0715   -0.6142   -0.6892 O   0  0  0  0  0  0  0  0  0  0  0  0
    3.6460   -0.6650    1.1401 C   0  0  2  0  0  0  0  0  0  0  0  0
    4.5978   -1.4885    1.8018 O   0  0  0  0  0  0  0  0  0  0  0  0
    2.6915   -0.0498    2.1596 C   0  0  1  0  0  0  0  0  0  0  0  0
    1.9249   -1.0903    2.7963 O   0  0  0  0  0  0  0  0  0  0  0  0
    3.4020    0.7398    3.2449 C   0  0  0  0  0  0  0  0  0  0  0  0
    4.1777   -0.1384    4.1488 N   0  3  0  0  0  0  0  0  0  0  0  0
   -5.2846   -5.3759    3.8701 C   0  0  0  0  0  0  0  0  0  0  0  0
   -6.1454   -5.1221    0.2755 C   0  0  2  0  0  0  0  0  0  0  0  0
   -7.4707   -5.8792    0.2363 C   0  0  2  0  0  0  0  0  0  0  0  0
   -8.2303   -5.5212   -0.9853 N   0  3  0  0  0  0  0  0  0  0  0  0
   -8.3042   -5.5420    1.4654 C   0  0  1  0  0  0  0  0  0  0  0  0
   -9.4978   -6.3100    1.4564 O   0  0  0  0  0  0  0  0  0  0  0  0
   -7.4974   -5.8397    2.7273 C   0  0  2  0  0  0  0  0  0  0  0  0
   -8.2425   -5.4628    3.8780 O   0  0  0  0  0  0  0  0  0  0  0  0
   -5.5402   -4.4599    5.0053 N   0  3  0  0  0  0  0  0  0  0  0  0
   -6.1835   -5.0619    2.6869 C   0  0  2  0  0  0  0  0  0  0  0  0
   -5.4494   -5.3901    1.4898 O   0  0  0  0  0  0  0  0  0  0  0  0
   -6.0008   -0.2923    2.5258 C   0  0  2  0  0  0  0  0  0  0  0  0
   -5.8641    0.5627    3.7273 N   0  3  0  0  0  0  0  0  0  0  0  0
   -7.2842   -1.1106    2.6118 C   0  0  0  0  0  0  0  0  0  0  0  0
   -7.4368   -1.9967    1.3835 C   0  0  2  0  0  0  0  0  0  0  0  0
   -8.6765   -2.7470    1.5261 N   0  3  0  0  0  0  0  0  0  0  0  0
   -6.2400   -2.9384    1.2729 C   0  0  1  0  0  0  0  0  0  0  0  0
   -6.3781   -3.7537    0.0929 O   0  0  0  0  0  0  0  0  0  0  0  0
   -4.9283   -2.1449    1.1943 C   0  0  2  0  0  0  0  0  0  0  0  0
   -3.8162   -3.0603    1.1965 O   0  0  0  0  0  0  0  0  0  0  0  0
   -4.7775   -1.1961    2.3808 C   0  0  1  0  0  0  0  0  0  0  0  0
   -3.6161   -0.3960    2.2037 O   0  0  0  0  0  0  0  0  0  0  0  0
  1  2  1  0  0  0  0
  3  2  1  1  0  0  0
  3  5  1  0  0  0  0
  3  4  1  0  0  0  0
  4  9  1  0  0  0  0
  5  7  1  0  0  0  0
  5  6  1  6  0  0  0
  7  9  1  0  0  0  0
  7  8  1  6  0  0  0
  9 40  1  1  0  0  0
 10  6  1  1  0  0  0
 10 11  1  0  0  0  0
 10 18  1  0  0  0  0
 11 13  1  0  0  0  0
 11 12  1  1  0  0  0
 13 15  1  0  0  0  0
 13 14  1  1  0  0  0
 15 17  1  0  0  0  0
 15 16  1  1  0  0  0
 17 19  1  1  0  0  0
 17 18  1  0  0  0  0
 19 20  1  0  0  0  0
 21 29  1  0  0  0  0
 22 23  1  0  0  0  0
 22 31  1  0  0  0  0
 22 38  1  1  0  0  0
 23 25  1  0  0  0  0
 23 24  1  6  0  0  0
 25 27  1  0  0  0  0
 25 26  1  1  0  0  0
 27 30  1  0  0  0  0
 27 28  1  1  0  0  0
 30 21  1  1  0  0  0
 30 31  1  0  0  0  0
 32 34  1  0  0  0  0
 32 41  1  0  0  0  0
 32 33  1  1  0  0  0
 34 35  1  0  0  0  0
 35 37  1  0  0  0  0
 35 36  1  1  0  0  0
 37 39  1  0  0  0  0
 37 38  1  6  0  0  0
 39 41  1  0  0  0  0
 39 40  1  1  0  0  0
 41 42  1  6  0  0  0
M  CHG  6  12   1  20   1  24   1  29   1  33   1  36   1
M  END
>  <CHROM.1>
-63.27755489,-47.99700430,77.00976305,-88.93083768,77.07909520,-154.52834536
118.33215390,43.64190113,-69.41166076,-68.94597552,54.02443106,-90.37348714
134.52043017,106.38835304,7.54414301,-64.97321241,-171.13479300,-146.67356639
57.79592077,-132.98546508,147.62194379,-47.67626535,-2.89960419,-2.92439510
1.72556112,-0.28065092,-0.09902598,-2.80542091

>  <Name>
1NEM.B

>  <RI>
0

>  <Rbt.Current_Directory>
/home/itssahil/PROJECTS/Mol_Feturizer/New_Systems/rnas/1nem

>  <Rbt.Executable>
rbdock ($Id: //depot/dev/client3/rdock/2013.1/src/exe/rbdock.cxx#4 $)

>  <Rbt.Library>
libRbt.so (2013.1, Build901 2013/11/27)

>  <Rbt.Parameter_File>
/export/apps/rDock/src/rDock_2013.1_src/data/scripts/dock_solv.prm

>  <Rbt.Receptor>
prm/blind_docking_20.prm

>  <SCORE>
26.6775

>  <SCORE.INTER>
-8.5472

>  <SCORE.INTER.CONST>
1

>  <SCORE.INTER.POLAR>
-6.33825

>  <SCORE.INTER.ROT>
9

>  <SCORE.INTER.SOLV>
47.6917

>  <SCORE.INTER.VDW>
-10.0679

>  <SCORE.INTER.norm>
-0.203505

>  <SCORE.INTRA>
32.7545

>  <SCORE.INTRA.DIHEDRAL>
22.4578

>  <SCORE.INTRA.DIHEDRAL.0>
22.4324

>  <SCORE.INTRA.POLAR>
1.09551

>  <SCORE.INTRA.POLAR.0>
-1.83749

>  <SCORE.INTRA.REPUL>
0

>  <SCORE.INTRA.REPUL.0>
0

>  <SCORE.INTRA.SOLV>
6.91812

>  <SCORE.INTRA.SOLV.lig_0>
-160.638

>  <SCORE.INTRA.VDW>
14.3419

>  <SCORE.INTRA.VDW.0>
-7.61953

>  <SCORE.INTRA.norm>
0.77987

>  <SCORE.RESTR>
2.47015

>  <SCORE.RESTR.CAVITY>
2.47015

>  <SCORE.RESTR.norm>
0.058813

>  <SCORE.SYSTEM>
0

>  <SCORE.SYSTEM.CONST>
0

>  <SCORE.SYSTEM.DIHEDRAL>
0

>  <SCORE.SYSTEM.SOLV>
0

>  <SCORE.SYSTEM.norm>
0

>  <SCORE.heavy>
42

>  <SCORE.norm>
0.635178

>  <RMSD>
4.969

$$$$
1NEM.B
 OpenBabel11021811403D
libRbt.so/2013.1/901 2013/11/27
 42 45  0  0  0  0  0  0  0  0999 V2000
    2.3239   -5.4949    2.4998 O   0  0  0  0  0  0  0  0  0  0  0  0
    2.1942   -4.1067    2.8134 C   0  0  0  0  0  0  0  0  0  0  0  0
    1.6141   -3.2851    1.6631 C   0  0  1  0  0  0  0  0  0  0  0  0
    0.2155   -3.5214    1.5307 O   0  0  0  0  0  0  0  0  0  0  0  0
    1.6941   -1.7791    1.8557 C   0  0  1  0  0  0  0  0  0  0  0  0
    3.0638   -1.4027    1.6964 O   0  0  0  0  0  0  0  0  0  0  0  0
    0.7418   -1.3484    0.7559 C   0  0  1  0  0  0  0  0  0  0  0  0
    1.2853   -1.5751   -0.5489 O   0  0  0  0  0  0  0  0  0  0  0  0
   -0.4000   -2.3340    1.0310 C   0  0  2  0  0  0  0  0  0  0  0  0
    3.3964   -0.1004    2.0848 C   0  0  2  0  0  0  0  0  0  0  0  0
    4.0437    0.6310    0.9009 C   0  0  2  0  0  0  0  0  0  0  0  0
    5.1801   -0.1660    0.3683 N   0  3  0  0  0  0  0  0  0  0  0  0
    4.4824    2.0421    1.3056 C   0  0  1  0  0  0  0  0  0  0  0  0
    3.3370    2.8604    1.5025 O   0  0  0  0  0  0  0  0  0  0  0  0
    5.3205    2.0141    2.5875 C   0  0  2  0  0  0  0  0  0  0  0  0
    6.5765    1.3938    2.3431 O   0  0  0  0  0  0  0  0  0  0  0  0
    4.5678    1.2547    3.6764 C   0  0  1  0  0  0  0  0  0  0  0  0
    4.2581   -0.0747    3.2153 O   0  0  0  0  0  0  0  0  0  0  0  0
    5.3513    1.1310    4.9713 C   0  0  0  0  0  0  0  0  0  0  0  0
    4.5284    0.5643    6.0629 N   0  3  0  0  0  0  0  0  0  0  0  0
    0.0333    1.8599   -1.1143 C   0  0  0  0  0  0  0  0  0  0  0  0
   -2.4966    0.0331    0.8832 C   0  0  2  0  0  0  0  0  0  0  0  0
   -3.5534    1.1171    1.0815 C   0  0  2  0  0  0  0  0  0  0  0  0
   -4.8533    0.5056    1.4471 N   0  3  0  0  0  0  0  0  0  0  0  0
   -3.7193    1.9283   -0.1965 C   0  0  1  0  0  0  0  0  0  0  0  0
   -4.6464    2.9801    0.0242 O   0  0  0  0  0  0  0  0  0  0  0  0
   -2.3674    2.4995   -0.6184 C   0  0  2  0  0  0  0  0  0  0  0  0
   -2.5008    3.2005   -1.8481 O   0  0  0  0  0  0  0  0  0  0  0  0
    0.0594    2.5760   -2.4102 N   0  3  0  0  0  0  0  0  0  0  0  0
   -1.3620    1.3611   -0.7810 C   0  0  2  0  0  0  0  0  0  0  0  0
   -1.2674    0.6044    0.4430 O   0  0  0  0  0  0  0  0  0  0  0  0
   -4.2159   -4.1823    2.4354 C   0  0  2  0  0  0  0  0  0  0  0  0
   -4.3263   -5.5513    2.9893 N   0  3  0  0  0  0  0  0  0  0  0  0
   -4.6093   -4.1828    0.9625 C   0  0  0  0  0  0  0  0  0  0  0  0
   -4.4983   -2.7812    0.3788 C   0  0  2  0  0  0  0  0  0  0  0  0
   -4.8872   -2.8497   -1.0227 N   0  3  0  0  0  0  0  0  0  0  0  0
   -3.0657   -2.2730    0.5222 C   0  0  1  0  0  0  0  0  0  0  0  0
   -2.9756   -0.9357   -0.0068 O   0  0  0  0  0  0  0  0  0  0  0  0
   -2.6341   -2.2693    1.9953 C   0  0  2  0  0  0  0  0  0  0  0  0
   -1.2487   -1.8857    2.0855 O   0  0  0  0  0  0  0  0  0  0  0  0
   -2.7974   -3.6488    2.6286 C   0  0  1  0  0  0  0  0  0  0  0  0
   -2.5062   -3.5705    4.0177 O   0  0  0  0  0  0  0  0  0  0  0  0
  1  2  1  0  0  0  0
  3  2  1  1  0  0  0
  3  5  1  0  0  0  0
  3  4  1  0  0  0  0
  4  9  1  0  0  0  0
  5  7  1  0  0  0  0
  5  6  1  6  0  0  0
  7  9  1  0  0  0  0
  7  8  1  6  0  0  0
  9 40  1  1  0  0  0
 10  6  1  6  0  0  0
 10 11  1  0  0  0  0
 10 18  1  0  0  0  0
 11 13  1  0  0  0  0
 11 12  1  1  0  0  0
 13 15  1  0  0  0  0
 13 14  1  1  0  0  0
 15 17  1  0  0  0  0
 15 16  1  6  0  0  0
 17 19  1  1  0  0  0
 17 18  1  0  0  0  0
 19 20  1  0  0  0  0
 21 29  1  0  0  0  0
 22 23  1  0  0  0  0
 22 31  1  0  0  0  0
 22 38  1  6  0  0  0
 23 25  1  0  0  0  0
 23 24  1  6  0  0  0
 25 27  1  0  0  0  0
 25 26  1  1  0  0  0
 27 30  1  0  0  0  0
 27 28  1  6  0  0  0
 30 21  1  1  0  0  0
 30 31  1  0  0  0  0
 32 34  1  0  0  0  0
 32 41  1  0  0  0  0
 32 33  1  6  0  0  0
 34 35  1  0  0  0  0
 35 37  1  0  0  0  0
 35 36  1  6  0  0  0
 37 39  1  0  0  0  0
 37 38  1  1  0  0  0
 39 41  1  0  0  0  0
 39 40  1  6  0  0  0
 41 42  1  1  0  0  0
M  CHG  6  12   1  20   1  24   1  29   1  33   1  36   1
M  END
>  <CHROM.1>
-82.89317392,74.44429505,-168.18494089,-123.69705555,61.91394206,-96.65703631
-90.99762528,-66.32394050,167.85895590,171.86495058,-69.48610490,-62.53194254
43.79285418,-119.84164780,176.93500484,-147.17325685,-48.36592751,104.11686106
-69.82610648,123.33438853,-35.41295889,-63.15658175,-0.00729226,-0.68399736
1.33070211,-0.14753067,0.29406864,2.70034475

>  <Name>
1NEM.B

>  <RI>
0

>  <Rbt.Current_Directory>
/home/itssahil/PROJECTS/Mol_Feturizer/New_Systems/rnas/1nem

>  <Rbt.Executable>
rbdock ($Id: //depot/dev/client3/rdock/2013.1/src/exe/rbdock.cxx#4 $)

>  <Rbt.Library>
libRbt.so (2013.1, Build901 2013/11/27)

>  <Rbt.Parameter_File>
/export/apps/rDock/src/rDock_2013.1_src/data/scripts/dock_solv.prm

>  <Rbt.Receptor>
prm/pocket_docking_3.prm

>  <SCORE>
-34.5022

>  <SCORE.INTER>
-52.9714

>  <SCORE.INTER.CONST>
1

>  <SCORE.INTER.POLAR>
-7.298

>  <SCORE.INTER.ROT>
9

>  <SCORE.INTER.SOLV>
39.0798

>  <SCORE.INTER.VDW>
-33.6142

>  <SCORE.INTER.norm>
-1.26122

>  <SCORE.INTRA>
18.3952

>  <SCORE.INTRA.DIHEDRAL>
22.7722

>  <SCORE.INTRA.DIHEDRAL.0>
22.4324

>  <SCORE.INTRA.POLAR>
0.154951

>  <SCORE.INTRA.POLAR.0>
-1.83749

>  <SCORE.INTRA.REPUL>
0

>  <SCORE.INTRA.REPUL.0>
0

>  <SCORE.INTRA.SOLV>
-5.71045

>  <SCORE.INTRA.SOLV.lig_0>
-160.638

>  <SCORE.INTRA.VDW>
9.33749

>  <SCORE.INTRA.VDW.0>
-7.61953

>  <SCORE.INTRA.norm>
0.437981

>  <SCORE.RESTR>
0.0739745

>  <SCORE.RESTR.CAVITY>
0.0739745

>  <SCORE.RESTR.norm>
0.0017613

>  <SCORE.SYSTEM>
0

>  <SCORE.SYSTEM.CONST>
0

>  <SCORE.SYSTEM.DIHEDRAL>
0

>  <SCORE.SYSTEM.SOLV>
0

>  <SCORE.SYSTEM.norm>
0

>  <SCORE.heavy>
42

>  <SCORE.norm>
-0.821482

>  <RMSD>
4.979

$$$$
1NEM.B
 OpenBabel11021811403D
libRbt.so/2013.1/901 2013/11/27
 42 45  0  0  0  0  0  0  0  0999 V2000
    2.4504   -4.8982    1.5892 O   0  0  0  0  0  0  0  0  0  0  0  0
    1.0511   -5.1766    1.6707 C   0  0  0  0  0  0  0  0  0  0  0  0
    0.1801   -3.9876    1.2677 C   0  0  1  0  0  0  0  0  0  0  0  0
   -1.1972   -4.2727    1.4941 O   0  0  0  0  0  0  0  0  0  0  0  0
    0.4112   -2.7261    2.0843 C   0  0  1  0  0  0  0  0  0  0  0  0
    1.6750   -2.1889    1.6873 O   0  0  0  0  0  0  0  0  0  0  0  0
   -0.8187   -1.9432    1.6645 C   0  0  1  0  0  0  0  0  0  0  0  0
   -0.7447   -1.5102    0.3021 O   0  0  0  0  0  0  0  0  0  0  0  0
   -1.8673   -3.0522    1.8101 C   0  0  2  0  0  0  0  0  0  0  0  0
    1.9816   -0.9107    2.1664 C   0  0  2  0  0  0  0  0  0  0  0  0
    2.6231   -0.0886    1.0404 C   0  0  2  0  0  0  0  0  0  0  0  0
    3.7772   -0.8271    0.4632 N   0  3  0  0  0  0  0  0  0  0  0  0
    3.0338    1.2989    1.5441 C   0  0  1  0  0  0  0  0  0  0  0  0
    1.8725    2.0816    1.7877 O   0  0  0  0  0  0  0  0  0  0  0  0
    3.8639    1.1979    2.8275 C   0  0  2  0  0  0  0  0  0  0  0  0
    5.1324    0.6179    2.5509 O   0  0  0  0  0  0  0  0  0  0  0  0
    3.1179    0.3526    3.8560 C   0  0  1  0  0  0  0  0  0  0  0  0
    2.8352   -0.9474    3.3027 O   0  0  0  0  0  0  0  0  0  0  0  0
    3.8951    0.1541    5.1454 C   0  0  0  0  0  0  0  0  0  0  0  0
    3.9529    1.3935    5.9520 N   0  3  0  0  0  0  0  0  0  0  0  0
   -5.6643   -0.2176    3.6225 C   0  0  0  0  0  0  0  0  0  0  0  0
   -5.3438   -2.4845    0.7095 C   0  0  2  0  0  0  0  0  0  0  0  0
   -5.0683   -1.4855   -0.4117 C   0  0  2  0  0  0  0  0  0  0  0  0
   -4.4534   -2.1731   -1.5721 N   0  3  0  0  0  0  0  0  0  0  0  0
   -4.1315   -0.3901    0.0800 C   0  0  1  0  0  0  0  0  0  0  0  0
   -3.9452    0.5729   -0.9459 O   0  0  0  0  0  0  0  0  0  0  0  0
   -4.7264    0.2722    1.3206 C   0  0  2  0  0  0  0  0  0  0  0  0
   -3.8256    1.2491    1.8265 O   0  0  0  0  0  0  0  0  0  0  0  0
   -6.1758   -1.2895    4.5070 N   0  3  0  0  0  0  0  0  0  0  0  0
   -4.9884   -0.7885    2.3881 C   0  0  2  0  0  0  0  0  0  0  0  0
   -5.8507   -1.8182    1.8628 O   0  0  0  0  0  0  0  0  0  0  0  0
   -5.3101   -4.8055    4.7619 C   0  0  2  0  0  0  0  0  0  0  0  0
   -5.4233   -5.7369    5.9078 N   0  3  0  0  0  0  0  0  0  0  0  0
   -5.8472   -5.4670    3.4977 C   0  0  0  0  0  0  0  0  0  0  0  0
   -5.7351   -4.5211    2.3102 C   0  0  2  0  0  0  0  0  0  0  0  0
   -6.2636   -5.2090    1.1408 N   0  3  0  0  0  0  0  0  0  0  0  0
   -4.2749   -4.1287    2.0975 C   0  0  1  0  0  0  0  0  0  0  0  0
   -4.1808   -3.2117    0.9900 O   0  0  0  0  0  0  0  0  0  0  0  0
   -3.6997   -3.4676    3.3577 C   0  0  2  0  0  0  0  0  0  0  0  0
   -2.2971   -3.2055    3.1611 O   0  0  0  0  0  0  0  0  0  0  0  0
   -3.8580   -4.3661    4.5817 C   0  0  1  0  0  0  0  0  0  0  0  0
   -3.4273   -3.6673    5.7422 O   0  0  0  0  0  0  0  0  0  0  0  0
  1  2  1  0  0  0  0
  3  2  1  1  0  0  0
  3  5  1  0  0  0  0
  3  4  1  0  0  0  0
  4  9  1  0  0  0  0
  5  7  1  0  0  0  0
  5  6  1  6  0  0  0
  7  9  1  0  0  0  0
  7  8  1  6  0  0  0
  9 40  1  1  0  0  0
 10  6  1  6  0  0  0
 10 11  1  0  0  0  0
 10 18  1  0  0  0  0
 11 13  1  0  0  0  0
 11 12  1  1  0  0  0
 13 15  1  0  0  0  0
 13 14  1  1  0  0  0
 15 17  1  0  0  0  0
 15 16  1  6  0  0  0
 17 19  1  1  0  0  0
 17 18  1  0  0  0  0
 19 20  1  0  0  0  0
 21 29  1  0  0  0  0
 22 23  1  0  0  0  0
 22 31  1  0  0  0  0
 22 38  1  1  0  0  0
 23 25  1  0  0  0  0
 23 24  1  6  0  0  0
 25 27  1  0  0  0  0
 25 26  1  6  0  0  0
 27 30  1  0  0  0  0
 27 28  1  1  0  0  0
 30 21  1  1  0  0  0
 30 31  1  0  0  0  0
 32 34  1  0  0  0  0
 32 41  1  0  0  0  0
 32 33  1  1  0  0  0
 34 35  1  0  0  0  0
 35 37  1  0  0  0  0
 35 36  1  6  0  0  0
 37 39  1  0  0  0  0
 37 38  1  6  0  0  0
 39 41  1  0  0  0  0
 39 40  1  6  0  0  0
 41 42  1  1  0  0  0
M  CHG  6  12   1  20   1  24   1  29   1  33   1  36   1
M  END
>  <CHROM.1>
61.73110593,-174.17731717,170.18358884,-137.95888328,-57.40892410,-104.51264625
86.70405377,-56.67068876,67.03069130,72.03564226,73.23732732,167.44408849
31.77288380,175.79665735,79.69143607,39.43083876,155.80637475,-64.14981622
-159.27688796,24.20469760,25.28979523,-55.56401153,-1.57583639,-1.93039391
2.26564609,-0.27229673,0.22548780,2.51655795

>  <Name>
1NEM.B

>  <RI>
0

>  <Rbt.Current_Directory>
/home/itssahil/PROJECTS/Mol_Feturizer/New_Systems/rnas/1nem

>  <Rbt.Executable>
rbdock ($Id: //depot/dev/client3/rdock/2013.1/src/exe/rbdock.cxx#4 $)

>  <Rbt.Library>
libRbt.so (2013.1, Build901 2013/11/27)

>  <Rbt.Parameter_File>
/export/apps/rDock/src/rDock_2013.1_src/data/scripts/dock_solv.prm

>  <Rbt.Receptor>
prm/blind_docking_100.prm

>  <SCORE>
2.91245

>  <SCORE.INTER>
-18.2904

>  <SCORE.INTER.CONST>
1

>  <SCORE.INTER.POLAR>
-3.76303

>  <SCORE.INTER.ROT>
9

>  <SCORE.INTER.SOLV>
38.0124

>  <SCORE.INTER.VDW>
-21.921

>  <SCORE.INTER.norm>
-0.435486

>  <SCORE.INTRA>
18.9077

>  <SCORE.INTRA.DIHEDRAL>
11.2367

>  <SCORE.INTRA.DIHEDRAL.0>
22.4324

>  <SCORE.INTRA.POLAR>
1.56083

>  <SCORE.INTRA.POLAR.0>
-1.83749

>  <SCORE.INTRA.REPUL>
0.0328247

>  <SCORE.INTRA.REPUL.0>
0

>  <SCORE.INTRA.SOLV>
-3.45591

>  <SCORE.INTRA.SOLV.lig_0>
-160.638

>  <SCORE.INTRA.VDW>
9.54635

>  <SCORE.INTRA.VDW.0>
-7.61953

>  <SCORE.INTRA.norm>
0.450183

>  <SCORE.RESTR>
2.29518

>  <SCORE.RESTR.CAVITY>
2.29518

>  <SCORE.RESTR.norm>
0.0546472

>  <SCORE.SYSTEM>
0

>  <SCORE.SYSTEM.CONST>
0

>  <SCORE.SYSTEM.DIHEDRAL>
0

>  <SCORE.SYSTEM.SOLV>
0

>  <SCORE.SYSTEM.norm>
0

>  <SCORE.heavy>
42

>  <SCORE.norm>
0.0693439

>  <RMSD>
5.034

$$$$
1NEM.B
 OpenBabel11021811403D
libRbt.so/2013.1/901 2013/11/27
 42 45  0  0  0  0  0  0  0  0999 V2000
   -0.0798   -5.2630    1.4849 O   0  0  0  0  0  0  0  0  0  0  0  0
   -1.3129   -5.1552    0.7708 C   0  0  0  0  0  0  0  0  0  0  0  0
   -1.5747   -3.7472    0.2382 C   0  0  1  0  0  0  0  0  0  0  0  0
   -2.6870   -3.7444   -0.6520 O   0  0  0  0  0  0  0  0  0  0  0  0
   -1.9763   -2.7328    1.2971 C   0  0  1  0  0  0  0  0  0  0  0  0
   -0.8089   -2.4387    2.0678 O   0  0  0  0  0  0  0  0  0  0  0  0
   -2.4826   -1.6288    0.3880 C   0  0  1  0  0  0  0  0  0  0  0  0
   -1.4221   -0.9953   -0.3353 O   0  0  0  0  0  0  0  0  0  0  0  0
   -3.3371   -2.4764   -0.5618 C   0  0  2  0  0  0  0  0  0  0  0  0
    0.3177   -2.0233    1.3498 C   0  0  2  0  0  0  0  0  0  0  0  0
    1.4106   -3.0953    1.4582 C   0  0  2  0  0  0  0  0  0  0  0  0
    1.6701   -3.4168    2.8864 N   0  3  0  0  0  0  0  0  0  0  0  0
    2.6867   -2.6479    0.7378 C   0  0  1  0  0  0  0  0  0  0  0  0
    2.4710   -2.6593   -0.6671 O   0  0  0  0  0  0  0  0  0  0  0  0
    3.1088   -1.2439    1.1816 C   0  0  2  0  0  0  0  0  0  0  0  0
    3.5479   -1.2645    2.5340 O   0  0  0  0  0  0  0  0  0  0  0  0
    1.9333   -0.2827    1.0303 C   0  0  1  0  0  0  0  0  0  0  0  0
    0.8103   -0.7655    1.7931 O   0  0  0  0  0  0  0  0  0  0  0  0
    2.2476    1.1268    1.5001 C   0  0  0  0  0  0  0  0  0  0  0  0
    2.7730    1.1437    2.8834 N   0  3  0  0  0  0  0  0  0  0  0  0
   -6.2637   -6.9321    4.3541 C   0  0  0  0  0  0  0  0  0  0  0  0
   -5.9201   -4.4559    1.6196 C   0  0  2  0  0  0  0  0  0  0  0  0
   -6.9433   -4.9821    0.6161 C   0  0  2  0  0  0  0  0  0  0  0  0
   -7.3168   -3.9154   -0.3431 N   0  3  0  0  0  0  0  0  0  0  0  0
   -8.1908   -5.4658    1.3433 C   0  0  1  0  0  0  0  0  0  0  0  0
   -9.1011   -6.0232    0.4079 O   0  0  0  0  0  0  0  0  0  0  0  0
   -7.8015   -6.5122    2.3852 C   0  0  2  0  0  0  0  0  0  0  0  0
   -8.9514   -6.9184    3.1160 O   0  0  0  0  0  0  0  0  0  0  0  0
   -7.3457   -7.3757    5.2626 N   0  3  0  0  0  0  0  0  0  0  0  0
   -6.7671   -5.9196    3.3402 C   0  0  2  0  0  0  0  0  0  0  0  0
   -5.6232   -5.4462    2.6006 O   0  0  0  0  0  0  0  0  0  0  0  0
   -4.8568    0.6450    1.5868 C   0  0  2  0  0  0  0  0  0  0  0  0
   -3.9203    1.7923    1.5742 N   0  3  0  0  0  0  0  0  0  0  0  0
   -5.0568    0.1514    3.0152 C   0  0  0  0  0  0  0  0  0  0  0  0
   -6.0162   -1.0302    3.0434 C   0  0  2  0  0  0  0  0  0  0  0  0
   -6.1649   -1.4510    4.4293 N   0  3  0  0  0  0  0  0  0  0  0  0
   -5.4634   -2.1660    2.1857 C   0  0  1  0  0  0  0  0  0  0  0  0
   -6.3903   -3.2692    2.1948 O   0  0  0  0  0  0  0  0  0  0  0  0
   -5.2407   -1.6985    0.7407 C   0  0  2  0  0  0  0  0  0  0  0  0
   -4.6229   -2.7585   -0.0138 O   0  0  0  0  0  0  0  0  0  0  0  0
   -4.3342   -0.4713    0.6841 C   0  0  1  0  0  0  0  0  0  0  0  0
   -4.2565   -0.0003   -0.6547 O   0  0  0  0  0  0  0  0  0  0  0  0
  1  2  1  0  0  0  0
  3  2  1  1  0  0  0
  3  5  1  0  0  0  0
  3  4  1  0  0  0  0
  4  9  1  0  0  0  0
  5  7  1  0  0  0  0
  5  6  1  6  0  0  0
  7  9  1  0  0  0  0
  7  8  1  6  0  0  0
  9 40  1  1  0  0  0
 10  6  1  1  0  0  0
 10 11  1  0  0  0  0
 10 18  1  0  0  0  0
 11 13  1  0  0  0  0
 11 12  1  1  0  0  0
 13 15  1  0  0  0  0
 13 14  1  6  0  0  0
 15 17  1  0  0  0  0
 15 16  1  1  0  0  0
 17 19  1  1  0  0  0
 17 18  1  0  0  0  0
 19 20  1  0  0  0  0
 21 29  1  0  0  0  0
 22 23  1  0  0  0  0
 22 31  1  0  0  0  0
 22 38  1  1  0  0  0
 23 25  1  0  0  0  0
 23 24  1  6  0  0  0
 25 27  1  0  0  0  0
 25 26  1  6  0  0  0
 27 30  1  0  0  0  0
 27 28  1  1  0  0  0
 30 21  1  1  0  0  0
 30 31  1  0  0  0  0
 32 34  1  0  0  0  0
 32 41  1  0  0  0  0
 32 33  1  1  0  0  0
 34 35  1  0  0  0  0
 35 37  1  0  0  0  0
 35 36  1  1  0  0  0
 37 39  1  0  0  0  0
 37 38  1  6  0  0  0
 39 41  1  0  0  0  0
 39 40  1  6  0  0  0
 41 42  1  6  0  0  0
M  CHG  6  12   1  20   1  24   1  29   1  33   1  36   1
M  END
>  <CHROM.1>
168.04688561,170.00688442,54.00806357,-112.94827749,54.16581311,152.35893831
166.29578477,68.91162990,69.38207428,-53.57194817,-63.50987969,-64.62535051
-89.04188575,-129.95872926,29.33786690,67.75854330,68.33776726,56.24431345
156.92437579,-170.54105469,-118.69885436,-84.99783360,-3.06661454,-2.80811354
1.56248979,-0.42239299,-0.02101770,2.96184687

>  <Name>
1NEM.B

>  <RI>
0

>  <Rbt.Current_Directory>
/home/itssahil/PROJECTS/Mol_Feturizer/New_Systems/rnas/1nem

>  <Rbt.Executable>
rbdock ($Id: //depot/dev/client3/rdock/2013.1/src/exe/rbdock.cxx#4 $)

>  <Rbt.Library>
libRbt.so (2013.1, Build901 2013/11/27)

>  <Rbt.Parameter_File>
/export/apps/rDock/src/rDock_2013.1_src/data/scripts/dock_solv.prm

>  <Rbt.Receptor>
prm/blind_docking_40.prm

>  <SCORE>
-6.06176

>  <SCORE.INTER>
-38.4518

>  <SCORE.INTER.CONST>
1

>  <SCORE.INTER.POLAR>
-6.43244

>  <SCORE.INTER.ROT>
9

>  <SCORE.INTER.SOLV>
41.3344

>  <SCORE.INTER.VDW>
-27.5712

>  <SCORE.INTER.norm>
-0.915519

>  <SCORE.INTRA>
30.9809

>  <SCORE.INTRA.DIHEDRAL>
13.6912

>  <SCORE.INTRA.DIHEDRAL.0>
22.4324

>  <SCORE.INTRA.POLAR>
-1.38741

>  <SCORE.INTRA.POLAR.0>
-1.83749

>  <SCORE.INTRA.REPUL>
0

>  <SCORE.INTRA.REPUL.0>
0

>  <SCORE.INTRA.SOLV>
2.8183

>  <SCORE.INTRA.SOLV.lig_0>
-160.638

>  <SCORE.INTRA.VDW>
27.4433

>  <SCORE.INTRA.VDW.0>
-7.61953

>  <SCORE.INTRA.norm>
0.737641

>  <SCORE.RESTR>
1.40914

>  <SCORE.RESTR.CAVITY>
1.40914

>  <SCORE.RESTR.norm>
0.0335509

>  <SCORE.SYSTEM>
0

>  <SCORE.SYSTEM.CONST>
0

>  <SCORE.SYSTEM.DIHEDRAL>
0

>  <SCORE.SYSTEM.SOLV>
0

>  <SCORE.SYSTEM.norm>
0

>  <SCORE.heavy>
42

>  <SCORE.norm>
-0.144328

>  <RMSD>
5.048

$$$$
1NEM.B
 OpenBabel11021811403D
libRbt.so/2013.1/901 2013/11/27
 42 45  0  0  0  0  0  0  0  0999 V2000
    6.8678    0.8657    1.1190 O   0  0  0  0  0  0  0  0  0  0  0  0
    5.6682    0.1159    0.9169 C   0  0  0  0  0  0  0  0  0  0  0  0
    4.8756    0.5736   -0.3067 C   0  0  1  0  0  0  0  0  0  0  0  0
    3.7655   -0.2886   -0.5389 O   0  0  0  0  0  0  0  0  0  0  0  0
    4.2278    1.9420   -0.1674 C   0  0  1  0  0  0  0  0  0  0  0  0
    5.2727    2.9152   -0.2334 O   0  0  0  0  0  0  0  0  0  0  0  0
    3.2850    1.8800   -1.3545 C   0  0  1  0  0  0  0  0  0  0  0  0
    3.9835    1.9363   -2.6028 O   0  0  0  0  0  0  0  0  0  0  0  0
    2.7143    0.4746   -1.1314 C   0  0  2  0  0  0  0  0  0  0  0  0
    6.2428    2.7149   -1.2213 C   0  0  2  0  0  0  0  0  0  0  0  0
    7.6340    2.9603   -0.6215 C   0  0  2  0  0  0  0  0  0  0  0  0
    7.6803    4.2956    0.0305 N   0  3  0  0  0  0  0  0  0  0  0  0
    8.7221    2.8143   -1.6902 C   0  0  1  0  0  0  0  0  0  0  0  0
    8.8511    1.4469   -2.0568 O   0  0  0  0  0  0  0  0  0  0  0  0
    8.3940    3.6502   -2.9312 C   0  0  2  0  0  0  0  0  0  0  0  0
    8.4861    5.0371   -2.6310 O   0  0  0  0  0  0  0  0  0  0  0  0
    6.9872    3.3152   -3.4184 C   0  0  1  0  0  0  0  0  0  0  0  0
    6.0390    3.5441   -2.3580 O   0  0  0  0  0  0  0  0  0  0  0  0
    6.5565    4.1402   -4.6184 C   0  0  0  0  0  0  0  0  0  0  0  0
    6.9745    3.5189   -5.8947 N   0  3  0  0  0  0  0  0  0  0  0  0
   -2.8731   -3.5489    3.1918 C   0  0  0  0  0  0  0  0  0  0  0  0
    0.2250   -1.9986    1.8783 C   0  0  2  0  0  0  0  0  0  0  0  0
    1.1764   -3.1927    1.8833 C   0  0  2  0  0  0  0  0  0  0  0  0
    2.3240   -2.9384    0.9800 N   0  3  0  0  0  0  0  0  0  0  0  0
    0.4449   -4.4484    1.4280 C   0  0  1  0  0  0  0  0  0  0  0  0
    1.3178   -5.5644    1.5112 O   0  0  0  0  0  0  0  0  0  0  0  0
   -0.7813   -4.6735    2.3099 C   0  0  2  0  0  0  0  0  0  0  0  0
   -1.5082   -5.8048    1.8481 O   0  0  0  0  0  0  0  0  0  0  0  0
   -2.4879   -4.0855    4.5172 N   0  3  0  0  0  0  0  0  0  0  0  0
   -1.6740   -3.4349    2.2666 C   0  0  2  0  0  0  0  0  0  0  0  0
   -0.9266   -2.2704    2.6726 O   0  0  0  0  0  0  0  0  0  0  0  0
   -1.6467    1.7671   -1.4104 C   0  0  2  0  0  0  0  0  0  0  0  0
   -2.1275    3.1493   -1.6375 N   0  3  0  0  0  0  0  0  0  0  0  0
   -2.5082    1.0825   -0.3553 C   0  0  0  0  0  0  0  0  0  0  0  0
   -2.0237   -0.3396   -0.1097 C   0  0  2  0  0  0  0  0  0  0  0  0
   -2.8848   -0.9356    0.9019 N   0  3  0  0  0  0  0  0  0  0  0  0
   -0.5700   -0.3176    0.3569 C   0  0  1  0  0  0  0  0  0  0  0  0
   -0.1106   -1.6682    0.5599 O   0  0  0  0  0  0  0  0  0  0  0  0
    0.3244    0.3752   -0.6805 C   0  0  2  0  0  0  0  0  0  0  0  0
    1.6658    0.4721   -0.1651 O   0  0  0  0  0  0  0  0  0  0  0  0
   -0.1756    1.7822   -0.9984 C   0  0  1  0  0  0  0  0  0  0  0  0
    0.6047    2.3368   -2.0491 O   0  0  0  0  0  0  0  0  0  0  0  0
  1  2  1  0  0  0  0
  3  2  1  1  0  0  0
  3  5  1  0  0  0  0
  3  4  1  0  0  0  0
  4  9  1  0  0  0  0
  5  7  1  0  0  0  0
  5  6  1  6  0  0  0
  7  9  1  0  0  0  0
  7  8  1  6  0  0  0
  9 40  1  1  0  0  0
 10  6  1  1  0  0  0
 10 11  1  0  0  0  0
 10 18  1  0  0  0  0
 11 13  1  0  0  0  0
 11 12  1  6  0  0  0
 13 15  1  0  0  0  0
 13 14  1  6  0  0  0
 15 17  1  0  0  0  0
 15 16  1  1  0  0  0
 17 19  1  6  0  0  0
 17 18  1  0  0  0  0
 19 20  1  0  0  0  0
 21 29  1  0  0  0  0
 22 23  1  0  0  0  0
 22 31  1  0  0  0  0
 22 38  1  6  0  0  0
 23 25  1  0  0  0  0
 23 24  1  6  0  0  0
 25 27  1  0  0  0  0
 25 26  1  1  0  0  0
 27 30  1  0  0  0  0
 27 28  1  6  0  0  0
 30 21  1  1  0  0  0
 30 31  1  0  0  0  0
 32 34  1  0  0  0  0
 32 41  1  0  0  0  0
 32 33  1  1  0  0  0
 34 35  1  0  0  0  0
 35 37  1  0  0  0  0
 35 36  1  1  0  0  0
 37 39  1  0  0  0  0
 37 38  1  6  0  0  0
 39 41  1  0  0  0  0
 39 40  1  1  0  0  0
 41 42  1  6  0  0  0
M  CHG  6  12   1  20   1  24   1  29   1  33   1  36   1
M  END
>  <CHROM.1>
-177.11003996,174.17233242,43.59484076,-135.85661669,81.00727006,-142.11141916
74.92350846,-168.80896674,-85.52815968,87.30230325,-61.68011561,44.58473843
149.57040362,-157.85341765,7.78552371,84.03134675,-56.01075757,163.26160531
152.31351998,-115.71433998,151.08964327,-52.34921954,2.61937109,0.32062345
-0.30888961,-0.71783479,0.01126554,2.54243714

>  <Name>
1NEM.B

>  <RI>
0

>  <Rbt.Current_Directory>
/home/itssahil/PROJECTS/Mol_Feturizer/New_Systems/rnas/1nem

>  <Rbt.Executable>
rbdock ($Id: //depot/dev/client3/rdock/2013.1/src/exe/rbdock.cxx#4 $)

>  <Rbt.Library>
libRbt.so (2013.1, Build901 2013/11/27)

>  <Rbt.Parameter_File>
/export/apps/rDock/src/rDock_2013.1_src/data/scripts/dock_solv.prm

>  <Rbt.Receptor>
prm/pocket_docking_8.prm

>  <SCORE>
-20.0007

>  <SCORE.INTER>
-43.7225

>  <SCORE.INTER.CONST>
1

>  <SCORE.INTER.POLAR>
-6.87605

>  <SCORE.INTER.ROT>
9

>  <SCORE.INTER.SOLV>
27.5043

>  <SCORE.INTER.VDW>
-24.9963

>  <SCORE.INTER.norm>
-1.04101

>  <SCORE.INTRA>
23.7219

>  <SCORE.INTRA.DIHEDRAL>
22.4497

>  <SCORE.INTRA.DIHEDRAL.0>
22.4324

>  <SCORE.INTRA.POLAR>
1.74565

>  <SCORE.INTRA.POLAR.0>
-1.83749

>  <SCORE.INTRA.REPUL>
0

>  <SCORE.INTRA.REPUL.0>
0

>  <SCORE.INTRA.SOLV>
0.0609525

>  <SCORE.INTRA.SOLV.lig_0>
-160.638

>  <SCORE.INTRA.VDW>
6.53135

>  <SCORE.INTRA.VDW.0>
-7.61953

>  <SCORE.INTRA.norm>
0.564806

>  <SCORE.RESTR>
0

>  <SCORE.RESTR.CAVITY>
0

>  <SCORE.RESTR.norm>
0

>  <SCORE.SYSTEM>
0

>  <SCORE.SYSTEM.CONST>
0

>  <SCORE.SYSTEM.DIHEDRAL>
0

>  <SCORE.SYSTEM.SOLV>
0

>  <SCORE.SYSTEM.norm>
0

>  <SCORE.heavy>
42

>  <SCORE.norm>
-0.476206

>  <RMSD>
5.067

$$$$
1NEM.B
 OpenBabel11021811403D
libRbt.so/2013.1/901 2013/11/27
 42 45  0  0  0  0  0  0  0  0999 V2000
    5.0815   -0.3339    0.3053 O   0  0  0  0  0  0  0  0  0  0  0  0
    4.1388    0.7290    0.1513 C   0  0  0  0  0  0  0  0  0  0  0  0
    3.1604    0.4988   -0.9996 C   0  0  1  0  0  0  0  0  0  0  0  0
    2.1599   -0.4451   -0.6289 O   0  0  0  0  0  0  0  0  0  0  0  0
    2.3510    1.7224   -1.3986 C   0  0  1  0  0  0  0  0  0  0  0  0
    3.2392    2.6186   -2.0704 O   0  0  0  0  0  0  0  0  0  0  0  0
    1.3000    1.0424   -2.2558 C   0  0  1  0  0  0  0  0  0  0  0  0
    1.8416    0.5506   -3.4862 O   0  0  0  0  0  0  0  0  0  0  0  0
    0.9551   -0.1267   -1.3258 C   0  0  2  0  0  0  0  0  0  0  0  0
    2.6422    3.6774   -2.7631 C   0  0  2  0  0  0  0  0  0  0  0  0
    3.6739    4.7955   -2.9652 C   0  0  2  0  0  0  0  0  0  0  0  0
    4.2805    5.1721   -1.6611 N   0  3  0  0  0  0  0  0  0  0  0  0
    3.0400    6.0026   -3.6642 C   0  0  1  0  0  0  0  0  0  0  0  0
    2.7620    5.6779   -5.0199 O   0  0  0  0  0  0  0  0  0  0  0  0
    1.7474    6.4316   -2.9631 C   0  0  2  0  0  0  0  0  0  0  0  0
    2.0377    6.9755   -1.6816 O   0  0  0  0  0  0  0  0  0  0  0  0
    0.8178    5.2298   -2.8203 C   0  0  1  0  0  0  0  0  0  0  0  0
    1.4899    4.1794   -2.0987 O   0  0  0  0  0  0  0  0  0  0  0  0
   -0.4708    5.5533   -2.0848 C   0  0  0  0  0  0  0  0  0  0  0  0
   -1.4292    6.2830   -2.9444 N   0  3  0  0  0  0  0  0  0  0  0  0
   -3.3870   -3.8889    3.9321 C   0  0  0  0  0  0  0  0  0  0  0  0
   -0.9820   -2.1063    1.7490 C   0  0  2  0  0  0  0  0  0  0  0  0
    0.0215   -3.2170    1.4486 C   0  0  2  0  0  0  0  0  0  0  0  0
    0.8113   -2.8818    0.2397 N   0  3  0  0  0  0  0  0  0  0  0  0
   -0.7065   -4.5359    1.2256 C   0  0  1  0  0  0  0  0  0  0  0  0
    0.2401   -5.5741    1.0244 O   0  0  0  0  0  0  0  0  0  0  0  0
   -1.5798   -4.8489    2.4385 C   0  0  2  0  0  0  0  0  0  0  0  0
   -2.3160   -6.0435    2.2093 O   0  0  0  0  0  0  0  0  0  0  0  0
   -2.5442   -4.0342    5.1411 N   0  3  0  0  0  0  0  0  0  0  0  0
   -2.5433   -3.6895    2.6851 C   0  0  2  0  0  0  0  0  0  0  0  0
   -1.8076   -2.4609    2.8553 O   0  0  0  0  0  0  0  0  0  0  0  0
   -3.3508    1.6853   -1.1602 C   0  0  2  0  0  0  0  0  0  0  0  0
   -3.8013    3.0867   -1.3226 N   0  3  0  0  0  0  0  0  0  0  0  0
   -4.1117    1.0225   -0.0175 C   0  0  0  0  0  0  0  0  0  0  0  0
   -3.6570   -0.4191    0.1626 C   0  0  2  0  0  0  0  0  0  0  0  0
   -4.4192   -0.9930    1.2626 N   0  3  0  0  0  0  0  0  0  0  0  0
   -2.1598   -0.4561    0.4599 C   0  0  1  0  0  0  0  0  0  0  0  0
   -1.7322   -1.8248    0.6010 O   0  0  0  0  0  0  0  0  0  0  0  0
   -1.3639    0.2136   -0.6689 C   0  0  2  0  0  0  0  0  0  0  0  0
    0.0304    0.2551   -0.3098 O   0  0  0  0  0  0  0  0  0  0  0  0
   -1.8428    1.6414   -0.9191 C   0  0  1  0  0  0  0  0  0  0  0  0
   -1.1669    2.1773   -2.0489 O   0  0  0  0  0  0  0  0  0  0  0  0
  1  2  1  0  0  0  0
  3  2  1  1  0  0  0
  3  5  1  0  0  0  0
  3  4  1  0  0  0  0
  4  9  1  0  0  0  0
  5  7  1  0  0  0  0
  5  6  1  6  0  0  0
  7  9  1  0  0  0  0
  7  8  1  6  0  0  0
  9 40  1  1  0  0  0
 10  6  1  1  0  0  0
 10 11  1  0  0  0  0
 10 18  1  0  0  0  0
 11 13  1  0  0  0  0
 11 12  1  1  0  0  0
 13 15  1  0  0  0  0
 13 14  1  6  0  0  0
 15 17  1  0  0  0  0
 15 16  1  1  0  0  0
 17 19  1  1  0  0  0
 17 18  1  0  0  0  0
 19 20  1  0  0  0  0
 21 29  1  0  0  0  0
 22 23  1  0  0  0  0
 22 31  1  0  0  0  0
 22 38  1  6  0  0  0
 23 25  1  0  0  0  0
 23 24  1  6  0  0  0
 25 27  1  0  0  0  0
 25 26  1  1  0  0  0
 27 30  1  0  0  0  0
 27 28  1  6  0  0  0
 30 21  1  1  0  0  0
 30 31  1  0  0  0  0
 32 34  1  0  0  0  0
 32 41  1  0  0  0  0
 32 33  1  1  0  0  0
 34 35  1  0  0  0  0
 35 37  1  0  0  0  0
 35 36  1  1  0  0  0
 37 39  1  0  0  0  0
 37 38  1  6  0  0  0
 39 41  1  0  0  0  0
 39 40  1  1  0  0  0
 41 42  1  6  0  0  0
M  CHG  6  12   1  20   1  24   1  29   1  33   1  36   1
M  END
>  <CHROM.1>
-69.78204392,76.84094889,167.09705552,158.99696451,-168.70586590,-160.68208568
-173.33312351,-54.15165698,176.12918940,76.74782412,65.88476454,59.01032851
19.92095821,-148.14028076,-166.88211349,76.02711056,176.69567636,-40.20341720
-48.46981123,-129.95666312,134.86440407,67.13674543,0.06762705,0.69845204
-0.50093269,-1.18641346,-0.16276913,2.68269458

>  <Name>
1NEM.B

>  <RI>
0

>  <Rbt.Current_Directory>
/home/itssahil/PROJECTS/Mol_Feturizer/New_Systems/rnas/1nem

>  <Rbt.Executable>
rbdock ($Id: //depot/dev/client3/rdock/2013.1/src/exe/rbdock.cxx#4 $)

>  <Rbt.Library>
libRbt.so (2013.1, Build901 2013/11/27)

>  <Rbt.Parameter_File>
/export/apps/rDock/src/rDock_2013.1_src/data/scripts/dock_solv.prm

>  <Rbt.Receptor>
prm/pocket_docking_7.prm

>  <SCORE>
-47.2349

>  <SCORE.INTER>
-55.5474

>  <SCORE.INTER.CONST>
1

>  <SCORE.INTER.POLAR>
-8.60274

>  <SCORE.INTER.ROT>
9

>  <SCORE.INTER.SOLV>
40.9312

>  <SCORE.INTER.VDW>
-31.5996

>  <SCORE.INTER.norm>
-1.32256

>  <SCORE.INTRA>
8.18247

>  <SCORE.INTRA.DIHEDRAL>
8.81476

>  <SCORE.INTRA.DIHEDRAL.0>
22.4324

>  <SCORE.INTRA.POLAR>
0.771395

>  <SCORE.INTRA.POLAR.0>
-1.83749

>  <SCORE.INTRA.REPUL>
0

>  <SCORE.INTRA.REPUL.0>
0

>  <SCORE.INTRA.SOLV>
-0.152166

>  <SCORE.INTRA.SOLV.lig_0>
-160.638

>  <SCORE.INTRA.VDW>
1.22843

>  <SCORE.INTRA.VDW.0>
-7.61953

>  <SCORE.INTRA.norm>
0.194821

>  <SCORE.RESTR>
0.1301

>  <SCORE.RESTR.CAVITY>
0.1301

>  <SCORE.RESTR.norm>
0.00309762

>  <SCORE.SYSTEM>
0

>  <SCORE.SYSTEM.CONST>
0

>  <SCORE.SYSTEM.DIHEDRAL>
0

>  <SCORE.SYSTEM.SOLV>
0

>  <SCORE.SYSTEM.norm>
0

>  <SCORE.heavy>
42

>  <SCORE.norm>
-1.12464

>  <RMSD>
5.078

$$$$
1NEM.B
 OpenBabel11021811403D
libRbt.so/2013.1/901 2013/11/27
 42 45  0  0  0  0  0  0  0  0999 V2000
   -1.8457   -0.7730    1.0453 O   0  0  0  0  0  0  0  0  0  0  0  0
   -1.8975   -1.4547    2.3001 C   0  0  0  0  0  0  0  0  0  0  0  0
   -1.9747   -2.9737    2.1531 C   0  0  1  0  0  0  0  0  0  0  0  0
   -3.3122   -3.3866    1.8883 O   0  0  0  0  0  0  0  0  0  0  0  0
   -1.1985   -3.5372    0.9735 C   0  0  1  0  0  0  0  0  0  0  0  0
    0.1911   -3.4400    1.2942 O   0  0  0  0  0  0  0  0  0  0  0  0
   -1.7903   -4.9339    0.9457 C   0  0  1  0  0  0  0  0  0  0  0  0
   -1.3695   -5.7215    2.0645 O   0  0  0  0  0  0  0  0  0  0  0  0
   -3.2723   -4.5667    1.0857 C   0  0  2  0  0  0  0  0  0  0  0  0
    0.6998   -2.1467    1.4549 C   0  0  2  0  0  0  0  0  0  0  0  0
    1.2291   -1.6398    0.1065 C   0  0  2  0  0  0  0  0  0  0  0  0
    2.1926   -2.6180   -0.4638 N   0  3  0  0  0  0  0  0  0  0  0  0
    1.8549   -0.2492    0.2541 C   0  0  1  0  0  0  0  0  0  0  0  0
    0.8343    0.7110    0.4932 O   0  0  0  0  0  0  0  0  0  0  0  0
    2.8686   -0.2181    1.4021 C   0  0  2  0  0  0  0  0  0  0  0  0
    4.0096   -1.0011    1.0747 O   0  0  0  0  0  0  0  0  0  0  0  0
    2.2186   -0.7520    2.6754 C   0  0  1  0  0  0  0  0  0  0  0  0
    1.7192   -2.0835    2.4438 O   0  0  0  0  0  0  0  0  0  0  0  0
    3.1716   -0.8078    3.8564 C   0  0  0  0  0  0  0  0  0  0  0  0
    4.1710   -1.8892    3.7092 N   0  3  0  0  0  0  0  0  0  0  0  0
   -4.4483   -3.6762    4.8375 C   0  0  0  0  0  0  0  0  0  0  0  0
   -5.9700   -5.3692    1.9143 C   0  0  2  0  0  0  0  0  0  0  0  0
   -7.1642   -6.0631    2.5651 C   0  0  2  0  0  0  0  0  0  0  0  0
   -8.1735   -6.4177    1.5389 N   0  3  0  0  0  0  0  0  0  0  0  0
   -7.8005   -5.1487    3.6034 C   0  0  1  0  0  0  0  0  0  0  0  0
   -8.8596   -5.8329    4.2551 O   0  0  0  0  0  0  0  0  0  0  0  0
   -6.7463   -4.7205    4.6218 C   0  0  2  0  0  0  0  0  0  0  0  0
   -7.3161   -3.8115    5.5549 O   0  0  0  0  0  0  0  0  0  0  0  0
   -3.8132   -4.8760    5.4292 N   0  3  0  0  0  0  0  0  0  0  0  0
   -5.5803   -4.0511    3.8969 C   0  0  2  0  0  0  0  0  0  0  0  0
   -5.0363   -4.9433    2.9031 O   0  0  0  0  0  0  0  0  0  0  0  0
   -4.8068   -0.5436   -0.0152 C   0  0  2  0  0  0  0  0  0  0  0  0
   -3.9751    0.6818   -0.0012 N   0  3  0  0  0  0  0  0  0  0  0  0
   -5.6262   -0.6319    1.2673 C   0  0  0  0  0  0  0  0  0  0  0  0
   -6.4851   -1.8887    1.2677 C   0  0  2  0  0  0  0  0  0  0  0  0
   -7.2401   -1.9125    2.5125 N   0  3  0  0  0  0  0  0  0  0  0  0
   -5.5951   -3.1235    1.1470 C   0  0  1  0  0  0  0  0  0  0  0  0
   -6.4170   -4.3068    1.1197 O   0  0  0  0  0  0  0  0  0  0  0  0
   -4.7478   -3.0611   -0.1314 C   0  0  2  0  0  0  0  0  0  0  0  0
   -3.8471   -4.1848   -0.1620 O   0  0  0  0  0  0  0  0  0  0  0  0
   -3.9237   -1.7775   -0.1932 C   0  0  1  0  0  0  0  0  0  0  0  0
   -3.2537   -1.7037   -1.4446 O   0  0  0  0  0  0  0  0  0  0  0  0
  1  2  1  0  0  0  0
  3  2  1  6  0  0  0
  3  5  1  0  0  0  0
  3  4  1  0  0  0  0
  4  9  1  0  0  0  0
  5  7  1  0  0  0  0
  5  6  1  1  0  0  0
  7  9  1  0  0  0  0
  7  8  1  1  0  0  0
  9 40  1  6  0  0  0
 10  6  1  6  0  0  0
 10 11  1  0  0  0  0
 10 18  1  0  0  0  0
 11 13  1  0  0  0  0
 11 12  1  1  0  0  0
 13 15  1  0  0  0  0
 13 14  1  1  0  0  0
 15 17  1  0  0  0  0
 15 16  1  6  0  0  0
 17 19  1  1  0  0  0
 17 18  1  0  0  0  0
 19 20  1  0  0  0  0
 21 29  1  0  0  0  0
 22 23  1  0  0  0  0
 22 31  1  0  0  0  0
 22 38  1  1  0  0  0
 23 25  1  0  0  0  0
 23 24  1  6  0  0  0
 25 27  1  0  0  0  0
 25 26  1  1  0  0  0
 27 30  1  0  0  0  0
 27 28  1  1  0  0  0
 30 21  1  1  0  0  0
 30 31  1  0  0  0  0
 32 34  1  0  0  0  0
 32 41  1  0  0  0  0
 32 33  1  1  0  0  0
 34 35  1  0  0  0  0
 35 37  1  0  0  0  0
 35 36  1  1  0  0  0
 37 39  1  0  0  0  0
 37 38  1  6  0  0  0
 39 41  1  0  0  0  0
 39 40  1  1  0  0  0
 41 42  1  6  0  0  0
M  CHG  6  12   1  20   1  24   1  29   1  33   1  36   1
M  END
>  <CHROM.1>
-101.26546657,-81.35878266,-63.84730428,-91.00866506,-58.78707257,-24.37625733
173.86690757,-175.36795742,150.46268107,-72.08360206,-91.72524554,65.37198167
-58.58053274,141.61817543,72.58617135,-169.70201055,-42.54838007,-157.66502931
62.64239219,-135.94006093,-38.34496360,168.20149444,-2.79339387,-2.87859966
1.85233666,0.33828383,-0.16710853,-0.85451436

>  <Name>
1NEM.B

>  <RI>
0

>  <Rbt.Current_Directory>
/home/itssahil/PROJECTS/Mol_Feturizer/New_Systems/rnas/1nem

>  <Rbt.Executable>
rbdock ($Id: //depot/dev/client3/rdock/2013.1/src/exe/rbdock.cxx#4 $)

>  <Rbt.Library>
libRbt.so (2013.1, Build901 2013/11/27)

>  <Rbt.Parameter_File>
/export/apps/rDock/src/rDock_2013.1_src/data/scripts/dock_solv.prm

>  <Rbt.Receptor>
prm/blind_docking_60.prm

>  <SCORE>
-2.42923

>  <SCORE.INTER>
-28.9147

>  <SCORE.INTER.CONST>
1

>  <SCORE.INTER.POLAR>
-6.04068

>  <SCORE.INTER.ROT>
9

>  <SCORE.INTER.SOLV>
42.2409

>  <SCORE.INTER.VDW>
-22.8211

>  <SCORE.INTER.norm>
-0.688445

>  <SCORE.INTRA>
20.9254

>  <SCORE.INTRA.DIHEDRAL>
17.4899

>  <SCORE.INTRA.DIHEDRAL.0>
22.4324

>  <SCORE.INTRA.POLAR>
-1.05691

>  <SCORE.INTRA.POLAR.0>
-1.83749

>  <SCORE.INTRA.REPUL>
0

>  <SCORE.INTRA.REPUL.0>
0

>  <SCORE.INTRA.SOLV>
7.69474

>  <SCORE.INTRA.SOLV.lig_0>
-160.638

>  <SCORE.INTRA.VDW>
11.9266

>  <SCORE.INTRA.VDW.0>
-7.61953

>  <SCORE.INTRA.norm>
0.498224

>  <SCORE.RESTR>
5.56005

>  <SCORE.RESTR.CAVITY>
5.56005

>  <SCORE.RESTR.norm>
0.132382

>  <SCORE.SYSTEM>
0

>  <SCORE.SYSTEM.CONST>
0

>  <SCORE.SYSTEM.DIHEDRAL>
0

>  <SCORE.SYSTEM.SOLV>
0

>  <SCORE.SYSTEM.norm>
0

>  <SCORE.heavy>
42

>  <SCORE.norm>
-0.0578389

>  <RMSD>
5.094

$$$$
1NEM.B
 OpenBabel11021811403D
libRbt.so/2013.1/901 2013/11/27
 42 45  0  0  0  0  0  0  0  0999 V2000
    2.3312   -5.5189    1.7812 O   0  0  0  0  0  0  0  0  0  0  0  0
    1.4411   -4.6607    2.4977 C   0  0  0  0  0  0  0  0  0  0  0  0
    0.4425   -3.9431    1.5908 C   0  0  1  0  0  0  0  0  0  0  0  0
   -0.8817   -4.4102    1.8308 O   0  0  0  0  0  0  0  0  0  0  0  0
    0.3302   -2.4459    1.8303 C   0  0  1  0  0  0  0  0  0  0  0  0
    1.5242   -1.8441    1.3248 O   0  0  0  0  0  0  0  0  0  0  0  0
   -0.9446   -2.1763    1.0531 C   0  0  1  0  0  0  0  0  0  0  0  0
   -0.7530   -2.3027   -0.3599 O   0  0  0  0  0  0  0  0  0  0  0  0
   -1.7931   -3.3408    1.5774 C   0  0  2  0  0  0  0  0  0  0  0  0
    2.0710   -0.8125    2.0956 C   0  0  2  0  0  0  0  0  0  0  0  0
    2.7912    0.1809    1.1738 C   0  0  2  0  0  0  0  0  0  0  0  0
    3.7702   -0.5369    0.3155 N   0  3  0  0  0  0  0  0  0  0  0  0
    3.4605    1.2932    1.9875 C   0  0  1  0  0  0  0  0  0  0  0  0
    2.4660    2.1467    2.5381 O   0  0  0  0  0  0  0  0  0  0  0  0
    4.3208    0.7129    3.1142 C   0  0  2  0  0  0  0  0  0  0  0  0
    5.4544    0.0443    2.5757 O   0  0  0  0  0  0  0  0  0  0  0  0
    3.4893   -0.2594    3.9461 C   0  0  1  0  0  0  0  0  0  0  0  0
    2.9587   -1.2946    3.0960 O   0  0  0  0  0  0  0  0  0  0  0  0
    4.2809   -0.9256    5.0576 C   0  0  0  0  0  0  0  0  0  0  0  0
    4.8357    0.0624    6.0094 N   0  3  0  0  0  0  0  0  0  0  0  0
   -6.3382   -2.7636    4.9978 C   0  0  0  0  0  0  0  0  0  0  0  0
   -5.8633   -2.0578    1.3917 C   0  0  2  0  0  0  0  0  0  0  0  0
   -5.7040   -0.5394    1.4078 C   0  0  2  0  0  0  0  0  0  0  0  0
   -5.0499   -0.0789    0.1597 N   0  3  0  0  0  0  0  0  0  0  0  0
   -4.8644   -0.1125    2.6044 C   0  0  1  0  0  0  0  0  0  0  0  0
   -4.7888    1.3041    2.6517 O   0  0  0  0  0  0  0  0  0  0  0  0
   -5.4946   -0.6482    3.8880 C   0  0  2  0  0  0  0  0  0  0  0  0
   -4.6796   -0.3128    5.0037 O   0  0  0  0  0  0  0  0  0  0  0  0
   -7.2698   -3.8453    4.6040 N   0  3  0  0  0  0  0  0  0  0  0  0
   -5.6357   -2.1660    3.7910 C   0  0  2  0  0  0  0  0  0  0  0  0
   -6.4080   -2.5189    2.6253 O   0  0  0  0  0  0  0  0  0  0  0  0
   -4.7682   -5.6845    4.0801 C   0  0  2  0  0  0  0  0  0  0  0  0
   -4.5245   -6.9654    4.7825 N   0  3  0  0  0  0  0  0  0  0  0  0
   -5.4462   -5.9460    2.7399 C   0  0  0  0  0  0  0  0  0  0  0  0
   -5.7010   -4.6373    2.0052 C   0  0  2  0  0  0  0  0  0  0  0  0
   -6.3484   -4.9549    0.7402 N   0  3  0  0  0  0  0  0  0  0  0  0
   -4.3795   -3.9086    1.7728 C   0  0  1  0  0  0  0  0  0  0  0  0
   -4.6323   -2.6584    1.1024 O   0  0  0  0  0  0  0  0  0  0  0  0
   -3.6653   -3.6384    3.1043 C   0  0  2  0  0  0  0  0  0  0  0  0
   -2.3785   -3.0461    2.8437 O   0  0  0  0  0  0  0  0  0  0  0  0
   -3.4546   -4.9263    3.8966 C   0  0  1  0  0  0  0  0  0  0  0  0
   -2.9055   -4.6153    5.1703 O   0  0  0  0  0  0  0  0  0  0  0  0
  1  2  1  0  0  0  0
  3  2  1  1  0  0  0
  3  5  1  0  0  0  0
  3  4  1  0  0  0  0
  4  9  1  0  0  0  0
  5  7  1  0  0  0  0
  5  6  1  6  0  0  0
  7  9  1  0  0  0  0
  7  8  1  6  0  0  0
  9 40  1  1  0  0  0
 10  6  1  6  0  0  0
 10 11  1  0  0  0  0
 10 18  1  0  0  0  0
 11 13  1  0  0  0  0
 11 12  1  1  0  0  0
 13 15  1  0  0  0  0
 13 14  1  1  0  0  0
 15 17  1  0  0  0  0
 15 16  1  6  0  0  0
 17 19  1  1  0  0  0
 17 18  1  0  0  0  0
 19 20  1  0  0  0  0
 21 29  1  0  0  0  0
 22 23  1  0  0  0  0
 22 31  1  0  0  0  0
 22 38  1  1  0  0  0
 23 25  1  0  0  0  0
 23 24  1  6  0  0  0
 25 27  1  0  0  0  0
 25 26  1  1  0  0  0
 27 30  1  0  0  0  0
 27 28  1  1  0  0  0
 30 21  1  1  0  0  0
 30 31  1  0  0  0  0
 32 34  1  0  0  0  0
 32 41  1  0  0  0  0
 32 33  1  6  0  0  0
 34 35  1  0  0  0  0
 35 37  1  0  0  0  0
 35 36  1  6  0  0  0
 37 39  1  0  0  0  0
 37 38  1  1  0  0  0
 39 41  1  0  0  0  0
 39 40  1  6  0  0  0
 41 42  1  1  0  0  0
M  CHG  6  12   1  20   1  24   1  29   1  33   1  36   1
M  END
>  <CHROM.1>
-168.34238408,112.41009441,-139.64580393,-149.69729299,56.36039842,-97.65817152
73.05276688,-170.49017059,55.51838277,59.99660555,68.80154309,140.20707441
-161.39149045,144.81741555,-46.01886998,72.49878078,-73.05226550,-164.87672318
78.07346965,30.80214287,-25.73327669,-179.65819879,-1.60577936,-2.25303418
2.63204490,-0.30844677,0.00814145,3.03464530

>  <Name>
1NEM.B

>  <RI>
0

>  <Rbt.Current_Directory>
/home/itssahil/PROJECTS/Mol_Feturizer/New_Systems/rnas/1nem

>  <Rbt.Executable>
rbdock ($Id: //depot/dev/client3/rdock/2013.1/src/exe/rbdock.cxx#4 $)

>  <Rbt.Library>
libRbt.so (2013.1, Build901 2013/11/27)

>  <Rbt.Parameter_File>
/export/apps/rDock/src/rDock_2013.1_src/data/scripts/dock_solv.prm

>  <Rbt.Receptor>
prm/blind_docking_60.prm

>  <SCORE>
59.7826

>  <SCORE.INTER>
20.0417

>  <SCORE.INTER.CONST>
1

>  <SCORE.INTER.POLAR>
-3.53523

>  <SCORE.INTER.ROT>
9

>  <SCORE.INTER.SOLV>
38.1601

>  <SCORE.INTER.VDW>
2.82521

>  <SCORE.INTER.norm>
0.477184

>  <SCORE.INTRA>
34.2488

>  <SCORE.INTRA.DIHEDRAL>
19.2212

>  <SCORE.INTRA.DIHEDRAL.0>
22.4324

>  <SCORE.INTRA.POLAR>
1.57526

>  <SCORE.INTRA.POLAR.0>
-1.83749

>  <SCORE.INTRA.REPUL>
0

>  <SCORE.INTRA.REPUL.0>
0

>  <SCORE.INTRA.SOLV>
-2.49534

>  <SCORE.INTRA.SOLV.lig_0>
-160.638

>  <SCORE.INTRA.VDW>
20.53

>  <SCORE.INTRA.VDW.0>
-7.61953

>  <SCORE.INTRA.norm>
0.815448

>  <SCORE.RESTR>
5.49206

>  <SCORE.RESTR.CAVITY>
5.49206

>  <SCORE.RESTR.norm>
0.130763

>  <SCORE.SYSTEM>
0

>  <SCORE.SYSTEM.CONST>
0

>  <SCORE.SYSTEM.DIHEDRAL>
0

>  <SCORE.SYSTEM.SOLV>
0

>  <SCORE.SYSTEM.norm>
0

>  <SCORE.heavy>
42

>  <SCORE.norm>
1.4234

>  <RMSD>
5.099

$$$$
1NEM.B
 OpenBabel11021811403D
libRbt.so/2013.1/901 2013/11/27
 42 45  0  0  0  0  0  0  0  0999 V2000
    4.9815    1.1564   -1.0597 O   0  0  0  0  0  0  0  0  0  0  0  0
    4.8799    2.2586   -0.1558 C   0  0  0  0  0  0  0  0  0  0  0  0
    3.9349    1.9878    1.0139 C   0  0  1  0  0  0  0  0  0  0  0  0
    2.6375    1.6360    0.5421 O   0  0  0  0  0  0  0  0  0  0  0  0
    4.3219    0.8000    1.8805 C   0  0  1  0  0  0  0  0  0  0  0  0
    5.4707    1.1844    2.6393 O   0  0  0  0  0  0  0  0  0  0  0  0
    3.0256    0.6365    2.6515 C   0  0  1  0  0  0  0  0  0  0  0  0
    2.8099    1.7053    3.5790 O   0  0  0  0  0  0  0  0  0  0  0  0
    2.0390    0.7441    1.4828 C   0  0  2  0  0  0  0  0  0  0  0  0
    5.6949    0.4750    3.8242 C   0  0  2  0  0  0  0  0  0  0  0  0
    5.5834    1.4342    5.0171 C   0  0  2  0  0  0  0  0  0  0  0  0
    6.4786    2.6041    4.8166 N   0  3  0  0  0  0  0  0  0  0  0  0
    5.8872    0.7075    6.3313 C   0  0  1  0  0  0  0  0  0  0  0  0
    4.8272   -0.1886    6.6377 O   0  0  0  0  0  0  0  0  0  0  0  0
    7.2057   -0.0671    6.2428 C   0  0  2  0  0  0  0  0  0  0  0  0
    8.3034    0.8334    6.1649 O   0  0  0  0  0  0  0  0  0  0  0  0
    7.1873   -0.9730    5.0148 C   0  0  1  0  0  0  0  0  0  0  0  0
    6.9550   -0.1831    3.8324 O   0  0  0  0  0  0  0  0  0  0  0  0
    8.4820   -1.7417    4.8180 C   0  0  0  0  0  0  0  0  0  0  0  0
    9.3768   -1.0767    3.8449 N   0  3  0  0  0  0  0  0  0  0  0  0
   -5.1826   -0.1163    0.9211 C   0  0  0  0  0  0  0  0  0  0  0  0
   -1.7967   -0.3355   -0.5673 C   0  0  2  0  0  0  0  0  0  0  0  0
   -1.6338    1.0721   -1.1359 C   0  0  2  0  0  0  0  0  0  0  0  0
   -0.2001    1.3685   -1.3691 N   0  3  0  0  0  0  0  0  0  0  0  0
   -2.2103    2.0983   -0.1697 C   0  0  1  0  0  0  0  0  0  0  0  0
   -2.1231    3.3937   -0.7433 O   0  0  0  0  0  0  0  0  0  0  0  0
   -3.6672    1.7542    0.1318 C   0  0  2  0  0  0  0  0  0  0  0  0
   -4.1924    2.6675    1.0866 O   0  0  0  0  0  0  0  0  0  0  0  0
   -5.4426   -0.3548    2.3593 N   0  3  0  0  0  0  0  0  0  0  0  0
   -3.7513    0.3310    0.6800 C   0  0  2  0  0  0  0  0  0  0  0  0
   -3.1625   -0.5961   -0.2547 O   0  0  0  0  0  0  0  0  0  0  0  0
    1.0262   -3.9238    2.0715 C   0  0  2  0  0  0  0  0  0  0  0  0
    1.8155   -5.1760    2.1177 N   0  3  0  0  0  0  0  0  0  0  0  0
   -0.2142   -4.1213    1.2075 C   0  0  0  0  0  0  0  0  0  0  0  0
   -1.0348   -2.8405    1.1490 C   0  0  2  0  0  0  0  0  0  0  0  0
   -2.2002   -3.0952    0.3141 N   0  3  0  0  0  0  0  0  0  0  0  0
   -0.1876   -1.7092    0.5712 C   0  0  1  0  0  0  0  0  0  0  0  0
   -0.9622   -0.4944    0.5455 O   0  0  0  0  0  0  0  0  0  0  0  0
    1.0766   -1.4907    1.4138 C   0  0  2  0  0  0  0  0  0  0  0  0
    1.9022   -0.4918    0.7850 O   0  0  0  0  0  0  0  0  0  0  0  0
    1.8884   -2.7768    1.5470 C   0  0  1  0  0  0  0  0  0  0  0  0
    2.9783   -2.5601    2.4333 O   0  0  0  0  0  0  0  0  0  0  0  0
  1  2  1  0  0  0  0
  3  2  1  6  0  0  0
  3  5  1  0  0  0  0
  3  4  1  0  0  0  0
  4  9  1  0  0  0  0
  5  7  1  0  0  0  0
  5  6  1  1  0  0  0
  7  9  1  0  0  0  0
  7  8  1  1  0  0  0
  9 40  1  6  0  0  0
 10  6  1  6  0  0  0
 10 11  1  0  0  0  0
 10 18  1  0  0  0  0
 11 13  1  0  0  0  0
 11 12  1  6  0  0  0
 13 15  1  0  0  0  0
 13 14  1  6  0  0  0
 15 17  1  0  0  0  0
 15 16  1  6  0  0  0
 17 19  1  6  0  0  0
 17 18  1  0  0  0  0
 19 20  1  0  0  0  0
 21 29  1  0  0  0  0
 22 23  1  0  0  0  0
 22 31  1  0  0  0  0
 22 38  1  1  0  0  0
 23 25  1  0  0  0  0
 23 24  1  1  0  0  0
 25 27  1  0  0  0  0
 25 26  1  6  0  0  0
 27 30  1  0  0  0  0
 27 28  1  1  0  0  0
 30 21  1  6  0  0  0
 30 31  1  0  0  0  0
 32 34  1  0  0  0  0
 32 41  1  0  0  0  0
 32 33  1  6  0  0  0
 34 35  1  0  0  0  0
 35 37  1  0  0  0  0
 35 36  1  6  0  0  0
 37 39  1  0  0  0  0
 37 38  1  1  0  0  0
 39 41  1  0  0  0  0
 39 40  1  6  0  0  0
 41 42  1  1  0  0  0
M  CHG  6  12   1  20   1  24   1  29   1  33   1  36   1
M  END
>  <CHROM.1>
72.35913546,-56.61902395,156.97863143,-116.40184384,178.99405589,-167.73665202
-82.29100877,-52.29626754,178.09343691,-97.26627062,-75.97423715,-115.32988132
-158.38193319,-133.16870797,85.65334521,-168.72966578,-174.38488091,56.70354618
54.29018304,-83.99192798,112.55261996,93.50165869,1.98757377,-0.06578799
2.01058397,-0.08126921,-0.40003204,-0.22971657

>  <Name>
1NEM.B

>  <RI>
0

>  <Rbt.Current_Directory>
/home/itssahil/PROJECTS/Mol_Feturizer/New_Systems/rnas/1nem

>  <Rbt.Executable>
rbdock ($Id: //depot/dev/client3/rdock/2013.1/src/exe/rbdock.cxx#4 $)

>  <Rbt.Library>
libRbt.so (2013.1, Build901 2013/11/27)

>  <Rbt.Parameter_File>
/export/apps/rDock/src/rDock_2013.1_src/data/scripts/dock_solv.prm

>  <Rbt.Receptor>
prm/pocket_docking_5.prm

>  <SCORE>
-36.769

>  <SCORE.INTER>
-48.9117

>  <SCORE.INTER.CONST>
1

>  <SCORE.INTER.POLAR>
-7.28907

>  <SCORE.INTER.ROT>
9

>  <SCORE.INTER.SOLV>
30.4202

>  <SCORE.INTER.VDW>
-28.051

>  <SCORE.INTER.norm>
-1.16457

>  <SCORE.INTRA>
12.1427

>  <SCORE.INTRA.DIHEDRAL>
23.2663

>  <SCORE.INTRA.DIHEDRAL.0>
22.4324

>  <SCORE.INTRA.POLAR>
-0.291443

>  <SCORE.INTRA.POLAR.0>
-1.83749

>  <SCORE.INTRA.REPUL>
0

>  <SCORE.INTRA.REPUL.0>
0

>  <SCORE.INTRA.SOLV>
-1.17324

>  <SCORE.INTRA.SOLV.lig_0>
-160.638

>  <SCORE.INTRA.VDW>
2.08709

>  <SCORE.INTRA.VDW.0>
-7.61953

>  <SCORE.INTRA.norm>
0.289112

>  <SCORE.RESTR>
0

>  <SCORE.RESTR.CAVITY>
0

>  <SCORE.RESTR.norm>
0

>  <SCORE.SYSTEM>
0

>  <SCORE.SYSTEM.CONST>
0

>  <SCORE.SYSTEM.DIHEDRAL>
0

>  <SCORE.SYSTEM.SOLV>
0

>  <SCORE.SYSTEM.norm>
0

>  <SCORE.heavy>
42

>  <SCORE.norm>
-0.875453

>  <RMSD>
5.116

$$$$
1NEM.B
 OpenBabel11021811403D
libRbt.so/2013.1/901 2013/11/27
 42 45  0  0  0  0  0  0  0  0999 V2000
    0.3165    1.3992   -2.5171 O   0  0  0  0  0  0  0  0  0  0  0  0
   -0.4547    0.3343   -1.9575 C   0  0  0  0  0  0  0  0  0  0  0  0
   -1.6149    0.8258   -1.0931 C   0  0  1  0  0  0  0  0  0  0  0  0
   -2.5672   -0.2140   -0.8897 O   0  0  0  0  0  0  0  0  0  0  0  0
   -1.2276    1.2223    0.3227 C   0  0  1  0  0  0  0  0  0  0  0  0
   -0.5088    2.4549    0.2370 O   0  0  0  0  0  0  0  0  0  0  0  0
   -2.6129    1.2883    0.9378 C   0  0  1  0  0  0  0  0  0  0  0  0
   -3.3702    2.3991    0.4460 O   0  0  0  0  0  0  0  0  0  0  0  0
   -3.1809   -0.0243    0.3854 C   0  0  2  0  0  0  0  0  0  0  0  0
    0.8732    2.3803    0.4411 C   0  0  2  0  0  0  0  0  0  0  0  0
    1.5224    3.6975   -0.0049 C   0  0  2  0  0  0  0  0  0  0  0  0
    1.1186    4.0190   -1.3991 N   0  3  0  0  0  0  0  0  0  0  0  0
    3.0461    3.6317    0.1421 C   0  0  1  0  0  0  0  0  0  0  0  0
    3.3938    3.6417    1.5204 O   0  0  0  0  0  0  0  0  0  0  0  0
    3.6117    2.3723   -0.5215 C   0  0  2  0  0  0  0  0  0  0  0  0
    3.4739    2.4541   -1.9344 O   0  0  0  0  0  0  0  0  0  0  0  0
    2.8772    1.1418    0.0030 C   0  0  1  0  0  0  0  0  0  0  0  0
    1.4636    1.2805   -0.2392 O   0  0  0  0  0  0  0  0  0  0  0  0
    3.3387   -0.1523   -0.6438 C   0  0  0  0  0  0  0  0  0  0  0  0
    3.0591   -1.3275    0.2111 N   0  3  0  0  0  0  0  0  0  0  0  0
   -5.3161   -4.2605    1.0499 C   0  0  0  0  0  0  0  0  0  0  0  0
   -2.3932   -4.0481    3.3167 C   0  0  2  0  0  0  0  0  0  0  0  0
   -1.2733   -4.5320    2.3987 C   0  0  2  0  0  0  0  0  0  0  0  0
    0.0439   -4.1023    2.9257 N   0  3  0  0  0  0  0  0  0  0  0  0
   -1.4637   -3.9687    0.9968 C   0  0  1  0  0  0  0  0  0  0  0  0
   -0.4620   -4.4872    0.1353 O   0  0  0  0  0  0  0  0  0  0  0  0
   -2.8495   -4.3462    0.4782 C   0  0  2  0  0  0  0  0  0  0  0  0
   -3.0617   -3.7657   -0.8022 O   0  0  0  0  0  0  0  0  0  0  0  0
   -6.0061   -4.9800    2.1450 N   0  3  0  0  0  0  0  0  0  0  0  0
   -3.9124   -3.8443    1.4537 C   0  0  2  0  0  0  0  0  0  0  0  0
   -3.6679   -4.3776    2.7711 O   0  0  0  0  0  0  0  0  0  0  0  0
   -6.2556   -1.6884    2.5027 C   0  0  2  0  0  0  0  0  0  0  0  0
   -7.4998   -0.9057    2.3217 N   0  3  0  0  0  0  0  0  0  0  0  0
   -5.8701   -1.7205    3.9774 C   0  0  0  0  0  0  0  0  0  0  0  0
   -4.5907   -2.5204    4.1784 C   0  0  2  0  0  0  0  0  0  0  0  0
   -4.2795   -2.5139    5.6008 N   0  3  0  0  0  0  0  0  0  0  0  0
   -3.4567   -1.8943    3.3700 C   0  0  1  0  0  0  0  0  0  0  0  0
   -2.2569   -2.6733    3.5433 O   0  0  0  0  0  0  0  0  0  0  0  0
   -3.8176   -1.8377    1.8791 C   0  0  2  0  0  0  0  0  0  0  0  0
   -2.7753   -1.1493    1.1619 O   0  0  0  0  0  0  0  0  0  0  0  0
   -5.1333   -1.0979    1.6507 C   0  0  1  0  0  0  0  0  0  0  0  0
   -5.4899   -1.1775    0.2770 O   0  0  0  0  0  0  0  0  0  0  0  0
  1  2  1  0  0  0  0
  3  2  1  6  0  0  0
  3  5  1  0  0  0  0
  3  4  1  0  0  0  0
  4  9  1  0  0  0  0
  5  7  1  0  0  0  0
  5  6  1  6  0  0  0
  7  9  1  0  0  0  0
  7  8  1  6  0  0  0
  9 40  1  1  0  0  0
 10  6  1  6  0  0  0
 10 11  1  0  0  0  0
 10 18  1  0  0  0  0
 11 13  1  0  0  0  0
 11 12  1  6  0  0  0
 13 15  1  0  0  0  0
 13 14  1  1  0  0  0
 15 17  1  0  0  0  0
 15 16  1  6  0  0  0
 17 19  1  6  0  0  0
 17 18  1  0  0  0  0
 19 20  1  0  0  0  0
 21 29  1  0  0  0  0
 22 23  1  0  0  0  0
 22 31  1  0  0  0  0
 22 38  1  6  0  0  0
 23 25  1  0  0  0  0
 23 24  1  1  0  0  0
 25 27  1  0  0  0  0
 25 26  1  6  0  0  0
 27 30  1  0  0  0  0
 27 28  1  6  0  0  0
 30 21  1  6  0  0  0
 30 31  1  0  0  0  0
 32 34  1  0  0  0  0
 32 41  1  0  0  0  0
 32 33  1  1  0  0  0
 34 35  1  0  0  0  0
 35 37  1  0  0  0  0
 35 36  1  1  0  0  0
 37 39  1  0  0  0  0
 37 38  1  6  0  0  0
 39 41  1  0  0  0  0
 39 40  1  6  0  0  0
 41 42  1  6  0  0  0
M  CHG  6  12   1  20   1  24   1  29   1  33   1  36   1
M  END
>  <CHROM.1>
-175.96043503,162.78869240,-106.42762732,166.79325225,-56.77144326,-131.82370585
-171.42329390,-55.78512003,179.41667632,156.63050415,-89.73098916,125.27109591
125.91666764,131.64528685,-112.28531723,-165.40048550,41.26154159,154.26440544
-67.73303267,51.25673530,-124.42507386,-43.42920543,-1.63464440,-0.78624760
0.94815454,0.72294275,0.21107055,-0.27500155

>  <Name>
1NEM.B

>  <RI>
0

>  <Rbt.Current_Directory>
/home/itssahil/PROJECTS/Mol_Feturizer/New_Systems/rnas/1nem

>  <Rbt.Executable>
rbdock ($Id: //depot/dev/client3/rdock/2013.1/src/exe/rbdock.cxx#4 $)

>  <Rbt.Library>
libRbt.so (2013.1, Build901 2013/11/27)

>  <Rbt.Parameter_File>
/export/apps/rDock/src/rDock_2013.1_src/data/scripts/dock_solv.prm

>  <Rbt.Receptor>
prm/pocket_docking_6.prm

>  <SCORE>
2.34943

>  <SCORE.INTER>
-43.0714

>  <SCORE.INTER.CONST>
1

>  <SCORE.INTER.POLAR>
-6.1772

>  <SCORE.INTER.ROT>
9

>  <SCORE.INTER.SOLV>
39.3432

>  <SCORE.INTER.VDW>
-30.838

>  <SCORE.INTER.norm>
-1.02551

>  <SCORE.INTRA>
45.4208

>  <SCORE.INTRA.DIHEDRAL>
27.8592

>  <SCORE.INTRA.DIHEDRAL.0>
22.4324

>  <SCORE.INTRA.POLAR>
0.379379

>  <SCORE.INTRA.POLAR.0>
-1.83749

>  <SCORE.INTRA.REPUL>
0

>  <SCORE.INTRA.REPUL.0>
0

>  <SCORE.INTRA.SOLV>
0.514514

>  <SCORE.INTRA.SOLV.lig_0>
-160.638

>  <SCORE.INTRA.VDW>
29.9441

>  <SCORE.INTRA.VDW.0>
-7.61953

>  <SCORE.INTRA.norm>
1.08145

>  <SCORE.RESTR>
0

>  <SCORE.RESTR.CAVITY>
0

>  <SCORE.RESTR.norm>
0

>  <SCORE.SYSTEM>
0

>  <SCORE.SYSTEM.CONST>
0

>  <SCORE.SYSTEM.DIHEDRAL>
0

>  <SCORE.SYSTEM.SOLV>
0

>  <SCORE.SYSTEM.norm>
0

>  <SCORE.heavy>
42

>  <SCORE.norm>
0.0559389

>  <RMSD>
5.140

$$$$
1NEM.B
 OpenBabel11021811403D
libRbt.so/2013.1/901 2013/11/27
 42 45  0  0  0  0  0  0  0  0999 V2000
   -0.6192    2.5632   -4.1015 O   0  0  0  0  0  0  0  0  0  0  0  0
    0.3665    1.8327   -3.3687 C   0  0  0  0  0  0  0  0  0  0  0  0
    0.1314    1.8594   -1.8591 C   0  0  1  0  0  0  0  0  0  0  0  0
   -0.7966    0.8487   -1.4760 O   0  0  0  0  0  0  0  0  0  0  0  0
    1.3582    1.5388   -1.0202 C   0  0  1  0  0  0  0  0  0  0  0  0
    2.2356    2.6642   -1.1036 O   0  0  0  0  0  0  0  0  0  0  0  0
    0.6781    1.3088    0.3164 C   0  0  1  0  0  0  0  0  0  0  0  0
    0.1640    2.5215    0.8769 O   0  0  0  0  0  0  0  0  0  0  0  0
   -0.4747    0.4143   -0.1546 C   0  0  2  0  0  0  0  0  0  0  0  0
    3.2717    2.7114   -0.1647 C   0  0  2  0  0  0  0  0  0  0  0  0
    4.0627    4.0136   -0.3490 C   0  0  2  0  0  0  0  0  0  0  0  0
    4.5015    4.1484   -1.7631 N   0  3  0  0  0  0  0  0  0  0  0  0
    5.2483    4.0733    0.6197 C   0  0  1  0  0  0  0  0  0  0  0  0
    4.7725    4.2614    1.9459 O   0  0  0  0  0  0  0  0  0  0  0  0
    6.0839    2.7914    0.5505 C   0  0  2  0  0  0  0  0  0  0  0  0
    6.7537    2.7054   -0.7010 O   0  0  0  0  0  0  0  0  0  0  0  0
    5.1786    1.5777    0.7410 C   0  0  1  0  0  0  0  0  0  0  0  0
    4.1376    1.5876   -0.2551 O   0  0  0  0  0  0  0  0  0  0  0  0
    5.9182    0.2558    0.6329 C   0  0  0  0  0  0  0  0  0  0  0  0
    7.0760    0.1939    1.5524 N   0  3  0  0  0  0  0  0  0  0  0  0
   -5.3136   -2.2791    4.2616 C   0  0  0  0  0  0  0  0  0  0  0  0
   -3.5677   -2.3683    0.9950 C   0  0  2  0  0  0  0  0  0  0  0  0
   -4.4430   -1.4296    0.1680 C   0  0  2  0  0  0  0  0  0  0  0  0
   -3.6985   -0.9470   -1.0195 N   0  3  0  0  0  0  0  0  0  0  0  0
   -4.8759   -0.2374    1.0107 C   0  0  1  0  0  0  0  0  0  0  0  0
   -5.7510    0.5865    0.2557 O   0  0  0  0  0  0  0  0  0  0  0  0
   -5.5786   -0.7320    2.2730 C   0  0  2  0  0  0  0  0  0  0  0  0
   -5.9246    0.3726    3.0986 O   0  0  0  0  0  0  0  0  0  0  0  0
   -4.3380   -2.5042    5.3527 N   0  3  0  0  0  0  0  0  0  0  0  0
   -4.6502   -1.6746    3.0364 C   0  0  2  0  0  0  0  0  0  0  0  0
   -4.2424   -2.7655    2.1858 O   0  0  0  0  0  0  0  0  0  0  0  0
    1.4636   -3.4853    2.0224 C   0  0  2  0  0  0  0  0  0  0  0  0
    2.6641   -4.3398    1.8738 N   0  3  0  0  0  0  0  0  0  0  0  0
    0.2205   -4.3549    2.1728 C   0  0  0  0  0  0  0  0  0  0  0  0
   -1.0225   -3.4894    2.3244 C   0  0  2  0  0  0  0  0  0  0  0  0
   -2.1689   -4.3760    2.4647 N   0  3  0  0  0  0  0  0  0  0  0  0
   -1.1775   -2.5880    1.1018 C   0  0  1  0  0  0  0  0  0  0  0  0
   -2.3399   -1.7524    1.2658 O   0  0  0  0  0  0  0  0  0  0  0  0
    0.0639   -1.7046    0.9156 C   0  0  2  0  0  0  0  0  0  0  0  0
   -0.0693   -0.9449   -0.3008 O   0  0  0  0  0  0  0  0  0  0  0  0
    1.3372   -2.5421    0.8272 C   0  0  1  0  0  0  0  0  0  0  0  0
    2.4683   -1.6824    0.7808 O   0  0  0  0  0  0  0  0  0  0  0  0
  1  2  1  0  0  0  0
  3  2  1  6  0  0  0
  3  5  1  0  0  0  0
  3  4  1  0  0  0  0
  4  9  1  0  0  0  0
  5  7  1  0  0  0  0
  5  6  1  1  0  0  0
  7  9  1  0  0  0  0
  7  8  1  6  0  0  0
  9 40  1  6  0  0  0
 10  6  1  6  0  0  0
 10 11  1  0  0  0  0
 10 18  1  0  0  0  0
 11 13  1  0  0  0  0
 11 12  1  6  0  0  0
 13 15  1  0  0  0  0
 13 14  1  1  0  0  0
 15 17  1  0  0  0  0
 15 16  1  6  0  0  0
 17 19  1  6  0  0  0
 17 18  1  0  0  0  0
 19 20  1  0  0  0  0
 21 29  1  0  0  0  0
 22 23  1  0  0  0  0
 22 31  1  0  0  0  0
 22 38  1  1  0  0  0
 23 25  1  0  0  0  0
 23 24  1  6  0  0  0
 25 27  1  0  0  0  0
 25 26  1  6  0  0  0
 27 30  1  0  0  0  0
 27 28  1  1  0  0  0
 30 21  1  1  0  0  0
 30 31  1  0  0  0  0
 32 34  1  0  0  0  0
 32 41  1  0  0  0  0
 32 33  1  6  0  0  0
 34 35  1  0  0  0  0
 35 37  1  0  0  0  0
 35 36  1  6  0  0  0
 37 39  1  0  0  0  0
 37 38  1  1  0  0  0
 39 41  1  0  0  0  0
 39 40  1  6  0  0  0
 41 42  1  1  0  0  0
M  CHG  6  12   1  20   1  24   1  29   1  33   1  36   1
M  END
>  <CHROM.1>
-61.78646792,84.19071166,165.55874323,-176.93375325,-70.21406753,-168.34218198
-53.09624136,67.58900529,-92.76815405,54.04845120,-65.96332364,-147.14967358
-56.03550407,-136.09101680,-69.09305787,68.35393157,-49.06696474,-61.02745550
53.49635338,-79.22748275,100.87668811,-70.88125018,0.22743162,-0.01776098
0.66365533,0.50092831,-0.05619302,-0.58717949

>  <Name>
1NEM.B

>  <RI>
0

>  <Rbt.Current_Directory>
/home/itssahil/PROJECTS/Mol_Feturizer/New_Systems/rnas/1nem

>  <Rbt.Executable>
rbdock ($Id: //depot/dev/client3/rdock/2013.1/src/exe/rbdock.cxx#4 $)

>  <Rbt.Library>
libRbt.so (2013.1, Build901 2013/11/27)

>  <Rbt.Parameter_File>
/export/apps/rDock/src/rDock_2013.1_src/data/scripts/dock_solv.prm

>  <Rbt.Receptor>
prm/pocket_docking_6.prm

>  <SCORE>
-38.5421

>  <SCORE.INTER>
-45.4938

>  <SCORE.INTER.CONST>
1

>  <SCORE.INTER.POLAR>
-6.87741

>  <SCORE.INTER.ROT>
9

>  <SCORE.INTER.SOLV>
37.1994

>  <SCORE.INTER.VDW>
-29.4043

>  <SCORE.INTER.norm>
-1.08318

>  <SCORE.INTRA>
6.95169

>  <SCORE.INTRA.DIHEDRAL>
5.1835

>  <SCORE.INTRA.DIHEDRAL.0>
22.4324

>  <SCORE.INTRA.POLAR>
0.657133

>  <SCORE.INTRA.POLAR.0>
-1.83749

>  <SCORE.INTRA.REPUL>
0.00924327

>  <SCORE.INTRA.REPUL.0>
0

>  <SCORE.INTRA.SOLV>
-3.25053

>  <SCORE.INTRA.SOLV.lig_0>
-160.638

>  <SCORE.INTRA.VDW>
3.70474

>  <SCORE.INTRA.VDW.0>
-7.61953

>  <SCORE.INTRA.norm>
0.165517

>  <SCORE.RESTR>
0

>  <SCORE.RESTR.CAVITY>
0

>  <SCORE.RESTR.norm>
0

>  <SCORE.SYSTEM>
0

>  <SCORE.SYSTEM.CONST>
0

>  <SCORE.SYSTEM.DIHEDRAL>
0

>  <SCORE.SYSTEM.SOLV>
0

>  <SCORE.SYSTEM.norm>
0

>  <SCORE.heavy>
42

>  <SCORE.norm>
-0.917668

>  <RMSD>
5.185

$$$$
1NEM.B
 OpenBabel11021811403D
libRbt.so/2013.1/901 2013/11/27
 42 45  0  0  0  0  0  0  0  0999 V2000
    3.5762    1.6504   -3.0477 O   0  0  0  0  0  0  0  0  0  0  0  0
    3.6217    2.8621   -2.2916 C   0  0  0  0  0  0  0  0  0  0  0  0
    2.7962    2.7974   -1.0074 C   0  0  1  0  0  0  0  0  0  0  0  0
    1.5850    2.0792   -1.2231 O   0  0  0  0  0  0  0  0  0  0  0  0
    3.4533    2.0340    0.1314 C   0  0  1  0  0  0  0  0  0  0  0  0
    4.5228    2.8442    0.6245 O   0  0  0  0  0  0  0  0  0  0  0  0
    2.2479    1.8788    1.0396 C   0  0  1  0  0  0  0  0  0  0  0  0
    1.8470    3.1231    1.6228 O   0  0  0  0  0  0  0  0  0  0  0  0
    1.2197    1.4295   -0.0053 C   0  0  2  0  0  0  0  0  0  0  0  0
    5.6464    2.1613    1.1025 C   0  0  2  0  0  0  0  0  0  0  0  0
    5.5919    2.1078    2.6353 C   0  0  2  0  0  0  0  0  0  0  0  0
    5.4177    3.4769    3.1879 N   0  3  0  0  0  0  0  0  0  0  0  0
    6.8402    1.4234    3.2018 C   0  0  1  0  0  0  0  0  0  0  0  0
    6.7984    0.0335    2.9065 O   0  0  0  0  0  0  0  0  0  0  0  0
    8.1182    2.0343    2.6190 C   0  0  2  0  0  0  0  0  0  0  0  0
    8.2919    3.3631    3.0947 O   0  0  0  0  0  0  0  0  0  0  0  0
    8.0391    2.0330    1.0950 C   0  0  1  0  0  0  0  0  0  0  0  0
    6.8650    2.7515    0.6694 O   0  0  0  0  0  0  0  0  0  0  0  0
    9.2462    2.6728    0.4319 C   0  0  0  0  0  0  0  0  0  0  0  0
    9.2097    2.5269   -1.0403 N   0  3  0  0  0  0  0  0  0  0  0  0
   -4.8738   -0.7304    2.9987 C   0  0  0  0  0  0  0  0  0  0  0  0
   -2.6516   -0.6309    0.0357 C   0  0  2  0  0  0  0  0  0  0  0  0
   -3.1917    0.5954   -0.6959 C   0  0  2  0  0  0  0  0  0  0  0  0
   -2.1843    1.1049   -1.6567 N   0  3  0  0  0  0  0  0  0  0  0  0
   -3.5365    1.6925    0.3024 C   0  0  1  0  0  0  0  0  0  0  0  0
   -4.1093    2.7961   -0.3820 O   0  0  0  0  0  0  0  0  0  0  0  0
   -4.5181    1.1501    1.3388 C   0  0  2  0  0  0  0  0  0  0  0  0
   -4.7916    2.1475    2.3145 O   0  0  0  0  0  0  0  0  0  0  0  0
   -5.8594    0.2430    3.5220 N   0  3  0  0  0  0  0  0  0  0  0  0
   -3.9165   -0.0804    2.0149 C   0  0  2  0  0  0  0  0  0  0  0  0
   -3.5764   -1.0732    1.0257 O   0  0  0  0  0  0  0  0  0  0  0  0
    1.6193   -3.0385    1.8737 C   0  0  2  0  0  0  0  0  0  0  0  0
    2.6032   -4.1454    1.8590 N   0  3  0  0  0  0  0  0  0  0  0  0
    0.2211   -3.5806    1.5988 C   0  0  0  0  0  0  0  0  0  0  0  0
   -0.8012   -2.4527    1.6086 C   0  0  2  0  0  0  0  0  0  0  0  0
   -2.1094   -3.0343    1.3428 N   0  3  0  0  0  0  0  0  0  0  0  0
   -0.4395   -1.4173    0.5463 C   0  0  1  0  0  0  0  0  0  0  0  0
   -1.3955   -0.3398    0.5812 O   0  0  0  0  0  0  0  0  0  0  0  0
    0.9692   -0.8578    0.7887 C   0  0  2  0  0  0  0  0  0  0  0  0
    1.3193    0.0351   -0.2859 O   0  0  0  0  0  0  0  0  0  0  0  0
    2.0100   -1.9730    0.8509 C   0  0  1  0  0  0  0  0  0  0  0  0
    3.2738   -1.4234    1.1992 O   0  0  0  0  0  0  0  0  0  0  0  0
  1  2  1  0  0  0  0
  3  2  1  6  0  0  0
  3  5  1  0  0  0  0
  3  4  1  0  0  0  0
  4  9  1  0  0  0  0
  5  7  1  0  0  0  0
  5  6  1  1  0  0  0
  7  9  1  0  0  0  0
  7  8  1  6  0  0  0
  9 40  1  6  0  0  0
 10  6  1  1  0  0  0
 10 11  1  0  0  0  0
 10 18  1  0  0  0  0
 11 13  1  0  0  0  0
 11 12  1  1  0  0  0
 13 15  1  0  0  0  0
 13 14  1  6  0  0  0
 15 17  1  0  0  0  0
 15 16  1  1  0  0  0
 17 19  1  6  0  0  0
 17 18  1  0  0  0  0
 19 20  1  0  0  0  0
 21 29  1  0  0  0  0
 22 23  1  0  0  0  0
 22 31  1  0  0  0  0
 22 38  1  1  0  0  0
 23 25  1  0  0  0  0
 23 24  1  6  0  0  0
 25 27  1  0  0  0  0
 25 26  1  6  0  0  0
 27 30  1  0  0  0  0
 27 28  1  1  0  0  0
 30 21  1  1  0  0  0
 30 31  1  0  0  0  0
 32 34  1  0  0  0  0
 32 41  1  0  0  0  0
 32 33  1  6  0  0  0
 34 35  1  0  0  0  0
 35 37  1  0  0  0  0
 35 36  1  6  0  0  0
 37 39  1  0  0  0  0
 37 38  1  1  0  0  0
 39 41  1  0  0  0  0
 39 40  1  6  0  0  0
 41 42  1  1  0  0  0
M  CHG  6  12   1  20   1  24   1  29   1  33   1  36   1
M  END
>  <CHROM.1>
-152.38899311,-38.55301952,-146.81280863,-100.37144671,67.87495142,-178.68974411
173.29060535,176.26749402,64.20007463,173.86100720,-16.21699601,-25.42074684
-21.09905905,-143.00441089,51.98695260,63.02351625,72.86056716,171.44792250
164.32298394,-74.61289782,102.06868790,66.19260676,1.64720942,0.74413410
0.91223147,0.19903773,-0.08304374,-0.39506693

>  <Name>
1NEM.B

>  <RI>
0

>  <Rbt.Current_Directory>
/home/itssahil/PROJECTS/Mol_Feturizer/New_Systems/rnas/1nem

>  <Rbt.Executable>
rbdock ($Id: //depot/dev/client3/rdock/2013.1/src/exe/rbdock.cxx#4 $)

>  <Rbt.Library>
libRbt.so (2013.1, Build901 2013/11/27)

>  <Rbt.Parameter_File>
/export/apps/rDock/src/rDock_2013.1_src/data/scripts/dock_solv.prm

>  <Rbt.Receptor>
prm/pocket_docking_6.prm

>  <SCORE>
-34.6009

>  <SCORE.INTER>
-48.4896

>  <SCORE.INTER.CONST>
1

>  <SCORE.INTER.POLAR>
-8.07054

>  <SCORE.INTER.ROT>
9

>  <SCORE.INTER.SOLV>
36.4554

>  <SCORE.INTER.VDW>
-27.1764

>  <SCORE.INTER.norm>
-1.15451

>  <SCORE.INTRA>
13.8887

>  <SCORE.INTRA.DIHEDRAL>
15.4728

>  <SCORE.INTRA.DIHEDRAL.0>
22.4324

>  <SCORE.INTRA.POLAR>
-0.199761

>  <SCORE.INTRA.POLAR.0>
-1.83749

>  <SCORE.INTRA.REPUL>
0.200768

>  <SCORE.INTRA.REPUL.0>
0

>  <SCORE.INTRA.SOLV>
-0.514617

>  <SCORE.INTRA.SOLV.lig_0>
-160.638

>  <SCORE.INTRA.VDW>
6.08493

>  <SCORE.INTRA.VDW.0>
-7.61953

>  <SCORE.INTRA.norm>
0.330683

>  <SCORE.RESTR>
0

>  <SCORE.RESTR.CAVITY>
0

>  <SCORE.RESTR.norm>
0

>  <SCORE.SYSTEM>
0

>  <SCORE.SYSTEM.CONST>
0

>  <SCORE.SYSTEM.DIHEDRAL>
0

>  <SCORE.SYSTEM.SOLV>
0

>  <SCORE.SYSTEM.norm>
0

>  <SCORE.heavy>
42

>  <SCORE.norm>
-0.823831

>  <RMSD>
5.221

$$$$
1NEM.B
 OpenBabel11021811403D
libRbt.so/2013.1/901 2013/11/27
 42 45  0  0  0  0  0  0  0  0999 V2000
   -1.1704    3.3933   -4.9026 O   0  0  0  0  0  0  0  0  0  0  0  0
   -0.7006    2.2989   -4.1128 C   0  0  0  0  0  0  0  0  0  0  0  0
   -1.0182    2.4541   -2.6263 C   0  0  1  0  0  0  0  0  0  0  0  0
   -1.9106    1.4318   -2.1926 O   0  0  0  0  0  0  0  0  0  0  0  0
    0.1767    2.2858   -1.7013 C   0  0  1  0  0  0  0  0  0  0  0  0
    0.9963    3.4473   -1.8506 O   0  0  0  0  0  0  0  0  0  0  0  0
   -0.5617    2.1436   -0.3835 C   0  0  1  0  0  0  0  0  0  0  0  0
   -1.1691    3.3719    0.0308 O   0  0  0  0  0  0  0  0  0  0  0  0
   -1.6381    1.1433   -0.8211 C   0  0  2  0  0  0  0  0  0  0  0  0
    2.2931    3.3598   -1.3329 C   0  0  2  0  0  0  0  0  0  0  0  0
    3.2266    2.7764   -2.4023 C   0  0  2  0  0  0  0  0  0  0  0  0
    2.6765    1.4940   -2.9152 N   0  3  0  0  0  0  0  0  0  0  0  0
    4.6459    2.6036   -1.8517 C   0  0  1  0  0  0  0  0  0  0  0  0
    5.2469    3.8791   -1.6714 O   0  0  0  0  0  0  0  0  0  0  0  0
    4.6338    1.8483   -0.5192 C   0  0  2  0  0  0  0  0  0  0  0  0
    4.2496    0.4943   -0.7223 O   0  0  0  0  0  0  0  0  0  0  0  0
    3.6647    2.5254    0.4459 C   0  0  1  0  0  0  0  0  0  0  0  0
    2.3517    2.5815   -0.1447 O   0  0  0  0  0  0  0  0  0  0  0  0
    3.5485    1.8085    1.7795 C   0  0  0  0  0  0  0  0  0  0  0  0
    2.7363    2.5755    2.7500 N   0  3  0  0  0  0  0  0  0  0  0  0
   -3.8647   -3.7298    4.7260 C   0  0  0  0  0  0  0  0  0  0  0  0
   -3.4357   -2.5002    1.2574 C   0  0  2  0  0  0  0  0  0  0  0  0
   -4.8040   -1.8756    0.9955 C   0  0  2  0  0  0  0  0  0  0  0  0
   -4.7250   -0.9234   -0.1380 N   0  3  0  0  0  0  0  0  0  0  0  0
   -5.2923   -1.1418    2.2373 C   0  0  1  0  0  0  0  0  0  0  0  0
   -6.5969   -0.6325    2.0072 O   0  0  0  0  0  0  0  0  0  0  0  0
   -5.3048   -2.1008    3.4256 C   0  0  2  0  0  0  0  0  0  0  0  0
   -5.6933   -1.4063    4.6038 O   0  0  0  0  0  0  0  0  0  0  0  0
   -4.3435   -5.0511    4.2592 N   0  3  0  0  0  0  0  0  0  0  0  0
   -3.9106   -2.6957    3.6146 C   0  0  2  0  0  0  0  0  0  0  0  0
   -3.4812   -3.3478    2.4022 O   0  0  0  0  0  0  0  0  0  0  0  0
    1.7687   -1.5078    1.1713 C   0  0  2  0  0  0  0  0  0  0  0  0
    3.1452   -1.8637    0.7567 N   0  3  0  0  0  0  0  0  0  0  0  0
    1.0601   -2.7350    1.7334 C   0  0  0  0  0  0  0  0  0  0  0  0
   -0.3579   -2.3842    2.1620 C   0  0  2  0  0  0  0  0  0  0  0  0
   -0.9764   -3.5927    2.6885 N   0  3  0  0  0  0  0  0  0  0  0  0
   -1.1418   -1.8475    0.9667 C   0  0  1  0  0  0  0  0  0  0  0  0
   -2.4735   -1.4916    1.3868 O   0  0  0  0  0  0  0  0  0  0  0  0
   -0.4484   -0.6150    0.3698 C   0  0  2  0  0  0  0  0  0  0  0  0
   -1.1537   -0.1978   -0.8147 O   0  0  0  0  0  0  0  0  0  0  0  0
    0.9992   -0.9173   -0.0091 C   0  0  1  0  0  0  0  0  0  0  0  0
    1.6365    0.2782   -0.4393 O   0  0  0  0  0  0  0  0  0  0  0  0
  1  2  1  0  0  0  0
  3  2  1  6  0  0  0
  3  5  1  0  0  0  0
  3  4  1  0  0  0  0
  4  9  1  0  0  0  0
  5  7  1  0  0  0  0
  5  6  1  1  0  0  0
  7  9  1  0  0  0  0
  7  8  1  6  0  0  0
  9 40  1  6  0  0  0
 10  6  1  6  0  0  0
 10 11  1  0  0  0  0
 10 18  1  0  0  0  0
 11 13  1  0  0  0  0
 11 12  1  1  0  0  0
 13 15  1  0  0  0  0
 13 14  1  1  0  0  0
 15 17  1  0  0  0  0
 15 16  1  6  0  0  0
 17 19  1  1  0  0  0
 17 18  1  0  0  0  0
 19 20  1  0  0  0  0
 21 29  1  0  0  0  0
 22 23  1  0  0  0  0
 22 31  1  0  0  0  0
 22 38  1  1  0  0  0
 23 25  1  0  0  0  0
 23 24  1  6  0  0  0
 25 27  1  0  0  0  0
 25 26  1  6  0  0  0
 27 30  1  0  0  0  0
 27 28  1  1  0  0  0
 30 21  1  1  0  0  0
 30 31  1  0  0  0  0
 32 34  1  0  0  0  0
 32 41  1  0  0  0  0
 32 33  1  6  0  0  0
 34 35  1  0  0  0  0
 35 37  1  0  0  0  0
 35 36  1  6  0  0  0
 37 39  1  0  0  0  0
 37 38  1  1  0  0  0
 39 41  1  0  0  0  0
 39 40  1  6  0  0  0
 41 42  1  1  0  0  0
M  CHG  6  12   1  20   1  24   1  29   1  33   1  36   1
M  END
>  <CHROM.1>
-174.67003397,115.70997133,-165.48518971,87.75871089,-54.86209936,162.77592215
73.91474983,-58.45210212,60.02250661,172.91241973,177.02814517,81.47758896
15.63626669,-149.76016333,159.44006744,-29.76285741,52.96909849,-55.75256752
-52.85478385,-91.93204262,122.68621998,45.55294421,-0.41696917,0.13772664
0.33308723,0.74671869,-0.09269734,-0.80722976

>  <Name>
1NEM.B

>  <RI>
0

>  <Rbt.Current_Directory>
/home/itssahil/PROJECTS/Mol_Feturizer/New_Systems/rnas/1nem

>  <Rbt.Executable>
rbdock ($Id: //depot/dev/client3/rdock/2013.1/src/exe/rbdock.cxx#4 $)

>  <Rbt.Library>
libRbt.so (2013.1, Build901 2013/11/27)

>  <Rbt.Parameter_File>
/export/apps/rDock/src/rDock_2013.1_src/data/scripts/dock_solv.prm

>  <Rbt.Receptor>
prm/pocket_docking_5.prm

>  <SCORE>
-31.7952

>  <SCORE.INTER>
-41.5741

>  <SCORE.INTER.CONST>
1

>  <SCORE.INTER.POLAR>
-6.55979

>  <SCORE.INTER.ROT>
9

>  <SCORE.INTER.SOLV>
27.0007

>  <SCORE.INTER.VDW>
-24.4503

>  <SCORE.INTER.norm>
-0.98986

>  <SCORE.INTRA>
9.77889

>  <SCORE.INTRA.DIHEDRAL>
15.2559

>  <SCORE.INTRA.DIHEDRAL.0>
22.4324

>  <SCORE.INTRA.POLAR>
-2.38655

>  <SCORE.INTRA.POLAR.0>
-1.83749

>  <SCORE.INTRA.REPUL>
0.21954

>  <SCORE.INTRA.REPUL.0>
0

>  <SCORE.INTRA.SOLV>
8.21431

>  <SCORE.INTRA.SOLV.lig_0>
-160.638

>  <SCORE.INTRA.VDW>
5.06037

>  <SCORE.INTRA.VDW.0>
-7.61953

>  <SCORE.INTRA.norm>
0.232831

>  <SCORE.RESTR>
0

>  <SCORE.RESTR.CAVITY>
0

>  <SCORE.RESTR.norm>
0

>  <SCORE.SYSTEM>
0

>  <SCORE.SYSTEM.CONST>
0

>  <SCORE.SYSTEM.DIHEDRAL>
0

>  <SCORE.SYSTEM.SOLV>
0

>  <SCORE.SYSTEM.norm>
0

>  <SCORE.heavy>
42

>  <SCORE.norm>
-0.757029

>  <RMSD>
5.241

$$$$
1NEM.B
 OpenBabel11021811403D
libRbt.so/2013.1/901 2013/11/27
 42 45  0  0  0  0  0  0  0  0999 V2000
    0.7053    2.3499   -4.3010 O   0  0  0  0  0  0  0  0  0  0  0  0
    0.1454    1.3074   -3.4998 C   0  0  0  0  0  0  0  0  0  0  0  0
    0.1956    1.6107   -2.0030 C   0  0  1  0  0  0  0  0  0  0  0  0
   -0.6166    0.6936   -1.2759 O   0  0  0  0  0  0  0  0  0  0  0  0
    1.5657    1.4396   -1.3666 C   0  0  1  0  0  0  0  0  0  0  0  0
    2.3810    2.5245   -1.8156 O   0  0  0  0  0  0  0  0  0  0  0  0
    1.1535    1.4622    0.0934 C   0  0  1  0  0  0  0  0  0  0  0  0
    0.7201    2.7605    0.5125 O   0  0  0  0  0  0  0  0  0  0  0  0
   -0.0419    0.5052    0.0175 C   0  0  2  0  0  0  0  0  0  0  0  0
    3.4014    2.9311   -0.9491 C   0  0  2  0  0  0  0  0  0  0  0  0
    4.4335    3.7530   -1.7331 C   0  0  2  0  0  0  0  0  0  0  0  0
    4.8974    2.9896   -2.9215 N   0  3  0  0  0  0  0  0  0  0  0  0
    5.6027    4.1628   -0.8317 C   0  0  1  0  0  0  0  0  0  0  0  0
    5.1663    5.1429    0.1007 O   0  0  0  0  0  0  0  0  0  0  0  0
    6.1708    2.9552   -0.0798 C   0  0  2  0  0  0  0  0  0  0  0  0
    6.8172    2.0691   -0.9850 O   0  0  0  0  0  0  0  0  0  0  0  0
    5.0440    2.2265    0.6469 C   0  0  1  0  0  0  0  0  0  0  0  0
    4.0304    1.8343   -0.2990 O   0  0  0  0  0  0  0  0  0  0  0  0
    5.5103    0.9798    1.3779 C   0  0  0  0  0  0  0  0  0  0  0  0
    5.4520   -0.2209    0.5148 N   0  3  0  0  0  0  0  0  0  0  0  0
   -5.4986   -2.5671    3.6799 C   0  0  0  0  0  0  0  0  0  0  0  0
   -3.0824   -2.5170    0.8715 C   0  0  2  0  0  0  0  0  0  0  0  0
   -3.8399   -1.6760   -0.1531 C   0  0  2  0  0  0  0  0  0  0  0  0
   -2.9028   -1.1345   -1.1661 N   0  3  0  0  0  0  0  0  0  0  0  0
   -4.5550   -0.5236    0.5394 C   0  0  1  0  0  0  0  0  0  0  0  0
   -5.3173    0.2039   -0.4114 O   0  0  0  0  0  0  0  0  0  0  0  0
   -5.4667   -1.0723    1.6347 C   0  0  2  0  0  0  0  0  0  0  0  0
   -6.0854    0.0012    2.3321 O   0  0  0  0  0  0  0  0  0  0  0  0
   -6.3868   -1.5845    4.3420 N   0  3  0  0  0  0  0  0  0  0  0  0
   -4.6433   -1.9127    2.6089 C   0  0  2  0  0  0  0  0  0  0  0  0
   -3.9604   -2.9667    1.9001 O   0  0  0  0  0  0  0  0  0  0  0  0
    1.8126   -2.9885    2.7987 C   0  0  2  0  0  0  0  0  0  0  0  0
    3.1033   -3.7082    2.8957 N   0  3  0  0  0  0  0  0  0  0  0  0
    0.6565   -3.9790    2.8777 C   0  0  0  0  0  0  0  0  0  0  0  0
   -0.6777   -3.2530    2.7769 C   0  0  2  0  0  0  0  0  0  0  0  0
   -1.7355   -4.2502    2.8602 N   0  3  0  0  0  0  0  0  0  0  0  0
   -0.7524   -2.4888    1.4572 C   0  0  1  0  0  0  0  0  0  0  0  0
   -2.0058   -1.7819    1.3822 O   0  0  0  0  0  0  0  0  0  0  0  0
    0.4056   -1.4880    1.3412 C   0  0  2  0  0  0  0  0  0  0  0  0
    0.3661   -0.8608    0.0451 O   0  0  0  0  0  0  0  0  0  0  0  0
    1.7580   -2.1771    1.5052 C   0  0  1  0  0  0  0  0  0  0  0  0
    2.7902   -1.2000    1.5154 O   0  0  0  0  0  0  0  0  0  0  0  0
  1  2  1  0  0  0  0
  3  2  1  6  0  0  0
  3  5  1  0  0  0  0
  3  4  1  0  0  0  0
  4  9  1  0  0  0  0
  5  7  1  0  0  0  0
  5  6  1  1  0  0  0
  7  9  1  0  0  0  0
  7  8  1  6  0  0  0
  9 40  1  6  0  0  0
 10  6  1  6  0  0  0
 10 11  1  0  0  0  0
 10 18  1  0  0  0  0
 11 13  1  0  0  0  0
 11 12  1  6  0  0  0
 13 15  1  0  0  0  0
 13 14  1  1  0  0  0
 15 17  1  0  0  0  0
 15 16  1  6  0  0  0
 17 19  1  6  0  0  0
 17 18  1  0  0  0  0
 19 20  1  0  0  0  0
 21 29  1  0  0  0  0
 22 23  1  0  0  0  0
 22 31  1  0  0  0  0
 22 38  1  1  0  0  0
 23 25  1  0  0  0  0
 23 24  1  6  0  0  0
 25 27  1  0  0  0  0
 25 26  1  6  0  0  0
 27 30  1  0  0  0  0
 27 28  1  1  0  0  0
 30 21  1  1  0  0  0
 30 31  1  0  0  0  0
 32 34  1  0  0  0  0
 32 41  1  0  0  0  0
 32 33  1  6  0  0  0
 34 35  1  0  0  0  0
 35 37  1  0  0  0  0
 35 36  1  6  0  0  0
 37 39  1  0  0  0  0
 37 38  1  1  0  0  0
 39 41  1  0  0  0  0
 39 40  1  6  0  0  0
 41 42  1  1  0  0  0
M  CHG  6  12   1  20   1  24   1  29   1  33   1  36   1
M  END
>  <CHROM.1>
47.59859507,167.62663458,151.47160825,161.85188194,-179.92960765,-152.59045385
156.96741879,52.65122578,174.52363767,-89.43139236,-120.73713847,-50.72333304
165.92326174,-134.12401227,167.50931525,-2.40120551,-59.77713323,153.35307476
-60.29727061,-86.41370127,108.15402571,176.51593066,0.40185415,0.00006296
0.43527814,0.53909321,-0.08198247,-0.70421373

>  <Name>
1NEM.B

>  <RI>
0

>  <Rbt.Current_Directory>
/home/itssahil/PROJECTS/Mol_Feturizer/New_Systems/rnas/1nem

>  <Rbt.Executable>
rbdock ($Id: //depot/dev/client3/rdock/2013.1/src/exe/rbdock.cxx#4 $)

>  <Rbt.Library>
libRbt.so (2013.1, Build901 2013/11/27)

>  <Rbt.Parameter_File>
/export/apps/rDock/src/rDock_2013.1_src/data/scripts/dock_solv.prm

>  <Rbt.Receptor>
prm/pocket_docking_5.prm

>  <SCORE>
-29.305

>  <SCORE.INTER>
-36.0335

>  <SCORE.INTER.CONST>
1

>  <SCORE.INTER.POLAR>
-5.74606

>  <SCORE.INTER.ROT>
9

>  <SCORE.INTER.SOLV>
41.5721

>  <SCORE.INTER.VDW>
-28.3261

>  <SCORE.INTER.norm>
-0.85794

>  <SCORE.INTRA>
6.72048

>  <SCORE.INTRA.DIHEDRAL>
20.5648

>  <SCORE.INTRA.DIHEDRAL.0>
22.4324

>  <SCORE.INTRA.POLAR>
-3.20198

>  <SCORE.INTRA.POLAR.0>
-1.83749

>  <SCORE.INTRA.REPUL>
0.0623396

>  <SCORE.INTRA.REPUL.0>
0

>  <SCORE.INTRA.SOLV>
5.98276

>  <SCORE.INTRA.SOLV.lig_0>
-160.638

>  <SCORE.INTRA.VDW>
4.02176

>  <SCORE.INTRA.VDW.0>
-7.61953

>  <SCORE.INTRA.norm>
0.160011

>  <SCORE.RESTR>
0.0079845

>  <SCORE.RESTR.CAVITY>
0.0079845

>  <SCORE.RESTR.norm>
0.000190107

>  <SCORE.SYSTEM>
0

>  <SCORE.SYSTEM.CONST>
0

>  <SCORE.SYSTEM.DIHEDRAL>
0

>  <SCORE.SYSTEM.SOLV>
0

>  <SCORE.SYSTEM.norm>
0

>  <SCORE.heavy>
42

>  <SCORE.norm>
-0.697739

>  <RMSD>
5.243

$$$$
1NEM.B
 OpenBabel11021811403D
libRbt.so/2013.1/901 2013/11/27
 42 45  0  0  0  0  0  0  0  0999 V2000
    0.5937    2.6757   -3.8722 O   0  0  0  0  0  0  0  0  0  0  0  0
   -0.2206    1.6245   -3.3488 C   0  0  0  0  0  0  0  0  0  0  0  0
   -0.3589    1.6755   -1.8279 C   0  0  1  0  0  0  0  0  0  0  0  0
   -1.0688    0.5372   -1.3484 O   0  0  0  0  0  0  0  0  0  0  0  0
    0.9566    1.6082   -1.0686 C   0  0  1  0  0  0  0  0  0  0  0  0
    1.6160    2.8635   -1.2494 O   0  0  0  0  0  0  0  0  0  0  0  0
    0.4149    1.3223    0.3194 C   0  0  1  0  0  0  0  0  0  0  0  0
   -0.2666    2.4511    0.8767 O   0  0  0  0  0  0  0  0  0  0  0  0
   -0.5912    0.2226   -0.0402 C   0  0  2  0  0  0  0  0  0  0  0  0
    2.6935    3.1246   -0.3961 C   0  0  2  0  0  0  0  0  0  0  0  0
    3.4921    4.3171   -0.9397 C   0  0  2  0  0  0  0  0  0  0  0  0
    3.8689    4.0754   -2.3573 N   0  3  0  0  0  0  0  0  0  0  0  0
    4.7204    4.5943   -0.0668 C   0  0  1  0  0  0  0  0  0  0  0  0
    4.3068    5.1264    1.1847 O   0  0  0  0  0  0  0  0  0  0  0  0
    5.5356    3.3177    0.1618 C   0  0  2  0  0  0  0  0  0  0  0  0
    6.1477    2.8987   -1.0514 O   0  0  0  0  0  0  0  0  0  0  0  0
    4.6243    2.2150    0.6932 C   0  0  1  0  0  0  0  0  0  0  0  0
    3.5401    1.9946   -0.2298 O   0  0  0  0  0  0  0  0  0  0  0  0
    5.3413    0.8922    0.8983 C   0  0  0  0  0  0  0  0  0  0  0  0
    4.5839   -0.0142    1.7897 N   0  3  0  0  0  0  0  0  0  0  0  0
   -5.1921   -1.9350    4.4577 C   0  0  0  0  0  0  0  0  0  0  0  0
   -3.5156   -2.4123    1.1883 C   0  0  2  0  0  0  0  0  0  0  0  0
   -4.3769   -1.5329    0.2850 C   0  0  2  0  0  0  0  0  0  0  0  0
   -3.6413   -1.1980   -0.9576 N   0  3  0  0  0  0  0  0  0  0  0  0
   -4.7548   -0.2478    1.0094 C   0  0  1  0  0  0  0  0  0  0  0  0
   -5.6181    0.5247    0.1893 O   0  0  0  0  0  0  0  0  0  0  0  0
   -5.4474   -0.5885    2.3270 C   0  0  2  0  0  0  0  0  0  0  0  0
   -5.7414    0.6048    3.0417 O   0  0  0  0  0  0  0  0  0  0  0  0
   -6.4630   -2.6494    4.1980 N   0  3  0  0  0  0  0  0  0  0  0  0
   -4.5344   -1.4800    3.1665 C   0  0  2  0  0  0  0  0  0  0  0  0
   -4.1786   -2.6643    2.4244 O   0  0  0  0  0  0  0  0  0  0  0  0
    1.4801   -3.6823    2.1066 C   0  0  2  0  0  0  0  0  0  0  0  0
    2.6529   -4.5721    1.9445 N   0  3  0  0  0  0  0  0  0  0  0  0
    0.2093   -4.5140    2.2383 C   0  0  0  0  0  0  0  0  0  0  0  0
   -1.0056   -3.6118    2.4035 C   0  0  2  0  0  0  0  0  0  0  0  0
   -2.1803   -4.4634    2.5249 N   0  3  0  0  0  0  0  0  0  0  0  0
   -1.1284   -2.6834    1.1975 C   0  0  1  0  0  0  0  0  0  0  0  0
   -2.2637   -1.8139    1.3747 O   0  0  0  0  0  0  0  0  0  0  0  0
    0.1414   -1.8372    1.0303 C   0  0  2  0  0  0  0  0  0  0  0  0
    0.0359   -1.0512   -0.1721 O   0  0  0  0  0  0  0  0  0  0  0  0
    1.3873   -2.7136    0.9288 C   0  0  1  0  0  0  0  0  0  0  0  0
    2.5455   -1.8900    0.9008 O   0  0  0  0  0  0  0  0  0  0  0  0
  1  2  1  0  0  0  0
  3  2  1  6  0  0  0
  3  5  1  0  0  0  0
  3  4  1  0  0  0  0
  4  9  1  0  0  0  0
  5  7  1  0  0  0  0
  5  6  1  1  0  0  0
  7  9  1  0  0  0  0
  7  8  1  6  0  0  0
  9 40  1  6  0  0  0
 10  6  1  6  0  0  0
 10 11  1  0  0  0  0
 10 18  1  0  0  0  0
 11 13  1  0  0  0  0
 11 12  1  6  0  0  0
 13 15  1  0  0  0  0
 13 14  1  1  0  0  0
 15 17  1  0  0  0  0
 15 16  1  6  0  0  0
 17 19  1  6  0  0  0
 17 18  1  0  0  0  0
 19 20  1  0  0  0  0
 21 29  1  0  0  0  0
 22 23  1  0  0  0  0
 22 31  1  0  0  0  0
 22 38  1  1  0  0  0
 23 25  1  0  0  0  0
 23 24  1  6  0  0  0
 25 27  1  0  0  0  0
 25 26  1  6  0  0  0
 27 30  1  0  0  0  0
 27 28  1  1  0  0  0
 30 21  1  1  0  0  0
 30 31  1  0  0  0  0
 32 34  1  0  0  0  0
 32 41  1  0  0  0  0
 32 33  1  6  0  0  0
 34 35  1  0  0  0  0
 35 37  1  0  0  0  0
 35 36  1  6  0  0  0
 37 39  1  0  0  0  0
 37 38  1  1  0  0  0
 39 41  1  0  0  0  0
 39 40  1  6  0  0  0
 41 42  1  1  0  0  0
M  CHG  6  12   1  20   1  24   1  29   1  33   1  36   1
M  END
>  <CHROM.1>
-56.93789622,-174.36351671,166.09856252,165.93774607,-63.31211514,-156.60740980
-22.43173877,178.24388466,-86.43491549,161.99766245,-177.37411037,56.95823802
-179.93793288,-132.50509416,173.04230565,61.24548167,-37.33811585,-56.76414180
49.04773199,-74.59048982,88.11126414,53.18996921,-0.03990535,0.03648076,0.60699688
0.60865699,0.01343966,-0.49119016

>  <Name>
1NEM.B

>  <RI>
0

>  <Rbt.Current_Directory>
/home/itssahil/PROJECTS/Mol_Feturizer/New_Systems/rnas/1nem

>  <Rbt.Executable>
rbdock ($Id: //depot/dev/client3/rdock/2013.1/src/exe/rbdock.cxx#4 $)

>  <Rbt.Library>
libRbt.so (2013.1, Build901 2013/11/27)

>  <Rbt.Parameter_File>
/export/apps/rDock/src/rDock_2013.1_src/data/scripts/dock_solv.prm

>  <Rbt.Receptor>
prm/pocket_docking_5.prm

>  <SCORE>
-43.1358

>  <SCORE.INTER>
-46.1882

>  <SCORE.INTER.CONST>
1

>  <SCORE.INTER.POLAR>
-6.74942

>  <SCORE.INTER.ROT>
9

>  <SCORE.INTER.SOLV>
34.0367

>  <SCORE.INTER.VDW>
-29.2396

>  <SCORE.INTER.norm>
-1.09972

>  <SCORE.INTRA>
2.87798

>  <SCORE.INTRA.DIHEDRAL>
2.95595

>  <SCORE.INTRA.DIHEDRAL.0>
22.4324

>  <SCORE.INTRA.POLAR>
-1.21227

>  <SCORE.INTRA.POLAR.0>
-1.83749

>  <SCORE.INTRA.REPUL>
0.138957

>  <SCORE.INTRA.REPUL.0>
0

>  <SCORE.INTRA.SOLV>
1.66955

>  <SCORE.INTRA.SOLV.lig_0>
-160.638

>  <SCORE.INTRA.VDW>
3.99218

>  <SCORE.INTRA.VDW.0>
-7.61953

>  <SCORE.INTRA.norm>
0.0685234

>  <SCORE.RESTR>
0.174441

>  <SCORE.RESTR.CAVITY>
0.174441

>  <SCORE.RESTR.norm>
0.00415335

>  <SCORE.SYSTEM>
0

>  <SCORE.SYSTEM.CONST>
0

>  <SCORE.SYSTEM.DIHEDRAL>
0

>  <SCORE.SYSTEM.SOLV>
0

>  <SCORE.SYSTEM.norm>
0

>  <SCORE.heavy>
42

>  <SCORE.norm>
-1.02704

>  <RMSD>
5.268

$$$$
1NEM.B
 OpenBabel11021811403D
libRbt.so/2013.1/901 2013/11/27
 42 45  0  0  0  0  0  0  0  0999 V2000
    3.0253   -4.2067    2.7408 O   0  0  0  0  0  0  0  0  0  0  0  0
    1.8667   -3.4178    3.0197 C   0  0  0  0  0  0  0  0  0  0  0  0
    0.6824   -3.7533    2.1143 C   0  0  1  0  0  0  0  0  0  0  0  0
   -0.3189   -4.4633    2.8374 O   0  0  0  0  0  0  0  0  0  0  0  0
   -0.0688   -2.5450    1.5785 C   0  0  1  0  0  0  0  0  0  0  0  0
    0.7645   -1.9292    0.5938 O   0  0  0  0  0  0  0  0  0  0  0  0
   -1.3136   -3.2466    1.0684 C   0  0  1  0  0  0  0  0  0  0  0  0
   -1.0469   -4.0479   -0.0874 O   0  0  0  0  0  0  0  0  0  0  0  0
   -1.5938   -4.1437    2.2799 C   0  0  2  0  0  0  0  0  0  0  0  0
    1.4865   -0.8054    1.0099 C   0  0  2  0  0  0  0  0  0  0  0  0
    2.5132   -0.4355   -0.0692 C   0  0  2  0  0  0  0  0  0  0  0  0
    3.3482   -1.6186   -0.4061 N   0  3  0  0  0  0  0  0  0  0  0  0
    3.3701    0.7533    0.3779 C   0  0  1  0  0  0  0  0  0  0  0  0
    2.5815    1.9359    0.3815 O   0  0  0  0  0  0  0  0  0  0  0  0
    3.9530    0.5202    1.7752 C   0  0  2  0  0  0  0  0  0  0  0  0
    4.9215   -0.5204    1.7391 O   0  0  0  0  0  0  0  0  0  0  0  0
    2.8322    0.1549    2.7444 C   0  0  1  0  0  0  0  0  0  0  0  0
    2.1317   -1.0075    2.2605 O   0  0  0  0  0  0  0  0  0  0  0  0
    3.3284   -0.1474    4.1475 C   0  0  0  0  0  0  0  0  0  0  0  0
    4.2518   -1.3035    4.1697 N   0  3  0  0  0  0  0  0  0  0  0  0
   -6.4587   -0.6194    3.2752 C   0  0  0  0  0  0  0  0  0  0  0  0
   -5.0033   -2.4495    0.4012 C   0  0  2  0  0  0  0  0  0  0  0  0
   -4.5337   -1.2922   -0.4770 C   0  0  2  0  0  0  0  0  0  0  0  0
   -3.5198   -1.7648   -1.4497 N   0  3  0  0  0  0  0  0  0  0  0  0
   -3.9310   -0.1906    0.3845 C   0  0  1  0  0  0  0  0  0  0  0  0
   -3.5699    0.9107   -0.4348 O   0  0  0  0  0  0  0  0  0  0  0  0
   -4.9467    0.2484    1.4370 C   0  0  2  0  0  0  0  0  0  0  0  0
   -4.3676    1.2279    2.2893 O   0  0  0  0  0  0  0  0  0  0  0  0
   -7.7472   -1.2658    2.9360 N   0  3  0  0  0  0  0  0  0  0  0  0
   -5.3797   -0.9616    2.2626 C   0  0  2  0  0  0  0  0  0  0  0  0
   -5.9101   -1.9873    1.3988 O   0  0  0  0  0  0  0  0  0  0  0  0
   -5.5890   -4.8722    4.4261 C   0  0  2  0  0  0  0  0  0  0  0  0
   -5.9143   -5.8763    5.4649 N   0  3  0  0  0  0  0  0  0  0  0  0
   -6.0294   -5.3776    3.0569 C   0  0  0  0  0  0  0  0  0  0  0  0
   -5.6990   -4.3558    1.9779 C   0  0  2  0  0  0  0  0  0  0  0  0
   -6.1441   -4.8957    0.7011 N   0  3  0  0  0  0  0  0  0  0  0  0
   -4.1958   -4.0882    1.9617 C   0  0  1  0  0  0  0  0  0  0  0  0
   -3.8951   -3.0996    0.9575 O   0  0  0  0  0  0  0  0  0  0  0  0
   -3.7173   -3.5864    3.3312 C   0  0  2  0  0  0  0  0  0  0  0  0
   -2.2841   -3.4441    3.3129 O   0  0  0  0  0  0  0  0  0  0  0  0
   -4.0936   -4.5599    4.4454 C   0  0  1  0  0  0  0  0  0  0  0  0
   -3.7433   -3.9991    5.7037 O   0  0  0  0  0  0  0  0  0  0  0  0
  1  2  1  0  0  0  0
  3  2  1  1  0  0  0
  3  5  1  0  0  0  0
  3  4  1  0  0  0  0
  4  9  1  0  0  0  0
  5  7  1  0  0  0  0
  5  6  1  6  0  0  0
  7  9  1  0  0  0  0
  7  8  1  6  0  0  0
  9 40  1  1  0  0  0
 10  6  1  6  0  0  0
 10 11  1  0  0  0  0
 10 18  1  0  0  0  0
 11 13  1  0  0  0  0
 11 12  1  1  0  0  0
 13 15  1  0  0  0  0
 13 14  1  1  0  0  0
 15 17  1  0  0  0  0
 15 16  1  6  0  0  0
 17 19  1  1  0  0  0
 17 18  1  0  0  0  0
 19 20  1  0  0  0  0
 21 29  1  0  0  0  0
 22 23  1  0  0  0  0
 22 31  1  0  0  0  0
 22 38  1  1  0  0  0
 23 25  1  0  0  0  0
 23 24  1  6  0  0  0
 25 27  1  0  0  0  0
 25 26  1  6  0  0  0
 27 30  1  0  0  0  0
 27 28  1  1  0  0  0
 30 21  1  1  0  0  0
 30 31  1  0  0  0  0
 32 34  1  0  0  0  0
 32 41  1  0  0  0  0
 32 33  1  1  0  0  0
 34 35  1  0  0  0  0
 35 37  1  0  0  0  0
 35 36  1  6  0  0  0
 37 39  1  0  0  0  0
 37 38  1  6  0  0  0
 39 41  1  0  0  0  0
 39 40  1  6  0  0  0
 41 42  1  1  0  0  0
M  CHG  6  12   1  20   1  24   1  29   1  33   1  36   1
M  END
>  <CHROM.1>
88.83192859,107.25448917,-99.89709346,169.41878849,98.72706736,-149.55891398
-67.52971180,-58.91541385,60.59753722,-61.32974012,-106.79618916,112.43666447
137.48611652,171.29902718,171.82475182,61.90121105,176.01021947,-168.70701815
-20.31625335,10.46993347,-18.52478973,98.69329936,-1.63995521,-2.16045682
1.93791180,-0.26180826,0.07919346,2.50975093

>  <Name>
1NEM.B

>  <RI>
0

>  <Rbt.Current_Directory>
/home/itssahil/PROJECTS/Mol_Feturizer/New_Systems/rnas/1nem

>  <Rbt.Executable>
rbdock ($Id: //depot/dev/client3/rdock/2013.1/src/exe/rbdock.cxx#4 $)

>  <Rbt.Library>
libRbt.so (2013.1, Build901 2013/11/27)

>  <Rbt.Parameter_File>
/export/apps/rDock/src/rDock_2013.1_src/data/scripts/dock_solv.prm

>  <Rbt.Receptor>
prm/blind_docking_20.prm

>  <SCORE>
-4.51909

>  <SCORE.INTER>
-45.794

>  <SCORE.INTER.CONST>
1

>  <SCORE.INTER.POLAR>
-6.88165

>  <SCORE.INTER.ROT>
9

>  <SCORE.INTER.SOLV>
48.4153

>  <SCORE.INTER.VDW>
-33.3289

>  <SCORE.INTER.norm>
-1.09033

>  <SCORE.INTRA>
36.3579

>  <SCORE.INTRA.DIHEDRAL>
32.6147

>  <SCORE.INTRA.DIHEDRAL.0>
22.4324

>  <SCORE.INTRA.POLAR>
0.269767

>  <SCORE.INTRA.POLAR.0>
-1.83749

>  <SCORE.INTRA.REPUL>
0.0431625

>  <SCORE.INTRA.REPUL.0>
0

>  <SCORE.INTRA.SOLV>
3.31368

>  <SCORE.INTRA.SOLV.lig_0>
-160.638

>  <SCORE.INTRA.VDW>
17.2607

>  <SCORE.INTRA.VDW.0>
-7.61953

>  <SCORE.INTRA.norm>
0.865664

>  <SCORE.RESTR>
4.91701

>  <SCORE.RESTR.CAVITY>
4.91701

>  <SCORE.RESTR.norm>
0.117072

>  <SCORE.SYSTEM>
0

>  <SCORE.SYSTEM.CONST>
0

>  <SCORE.SYSTEM.DIHEDRAL>
0

>  <SCORE.SYSTEM.SOLV>
0

>  <SCORE.SYSTEM.norm>
0

>  <SCORE.heavy>
42

>  <SCORE.norm>
-0.107597

>  <RMSD>
5.277

$$$$
1NEM.B
 OpenBabel11021811403D
libRbt.so/2013.1/901 2013/11/27
 42 45  0  0  0  0  0  0  0  0999 V2000
   -1.9588   -0.5921    1.6714 O   0  0  0  0  0  0  0  0  0  0  0  0
   -2.0065   -1.7044    2.5672 C   0  0  0  0  0  0  0  0  0  0  0  0
   -2.3104   -3.0265    1.8639 C   0  0  1  0  0  0  0  0  0  0  0  0
   -3.6895   -3.1063    1.5159 O   0  0  0  0  0  0  0  0  0  0  0  0
   -1.6053   -3.2120    0.5298 C   0  0  1  0  0  0  0  0  0  0  0  0
   -0.2237   -3.4496    0.8090 O   0  0  0  0  0  0  0  0  0  0  0  0
   -2.4015   -4.3911    0.0028 C   0  0  1  0  0  0  0  0  0  0  0  0
   -2.1274   -5.5952    0.7268 O   0  0  0  0  0  0  0  0  0  0  0  0
   -3.8132   -3.8888    0.3281 C   0  0  2  0  0  0  0  0  0  0  0  0
    0.6840   -2.5384    0.2586 C   0  0  2  0  0  0  0  0  0  0  0  0
    2.1144   -3.0356    0.5080 C   0  0  2  0  0  0  0  0  0  0  0  0
    2.3137   -3.3112    1.9553 N   0  3  0  0  0  0  0  0  0  0  0  0
    3.1415   -2.0308   -0.0236 C   0  0  1  0  0  0  0  0  0  0  0  0
    3.1244   -2.0369   -1.4449 O   0  0  0  0  0  0  0  0  0  0  0  0
    2.8478   -0.6170    0.4877 C   0  0  2  0  0  0  0  0  0  0  0  0
    3.0841   -0.5390    1.8877 O   0  0  0  0  0  0  0  0  0  0  0  0
    1.3976   -0.2521    0.1833 C   0  0  1  0  0  0  0  0  0  0  0  0
    0.5172   -1.2255    0.7778 O   0  0  0  0  0  0  0  0  0  0  0  0
    1.0023    1.1180    0.7054 C   0  0  0  0  0  0  0  0  0  0  0  0
    2.1778    1.9011    1.1467 N   0  3  0  0  0  0  0  0  0  0  0  0
   -5.5439   -5.2143    4.1330 C   0  0  0  0  0  0  0  0  0  0  0  0
   -6.4257   -4.5747    0.5918 C   0  0  2  0  0  0  0  0  0  0  0  0
   -7.6176   -5.5116    0.4117 C   0  0  2  0  0  0  0  0  0  0  0  0
   -8.4208   -5.1000   -0.7643 N   0  3  0  0  0  0  0  0  0  0  0  0
   -8.4960   -5.4884    1.6554 C   0  0  1  0  0  0  0  0  0  0  0  0
   -9.5563   -6.4201    1.5069 O   0  0  0  0  0  0  0  0  0  0  0  0
   -7.6557   -5.8397    2.8811 C   0  0  2  0  0  0  0  0  0  0  0  0
   -8.4528   -5.7526    4.0553 O   0  0  0  0  0  0  0  0  0  0  0  0
   -4.5799   -6.2722    3.7528 N   0  3  0  0  0  0  0  0  0  0  0  0
   -6.4780   -4.8726    2.9853 C   0  0  2  0  0  0  0  0  0  0  0  0
   -5.6992   -4.9070    1.7720 O   0  0  0  0  0  0  0  0  0  0  0  0
   -4.7585    0.4322    0.8605 C   0  0  2  0  0  0  0  0  0  0  0  0
   -3.7691    1.4484    1.2868 N   0  3  0  0  0  0  0  0  0  0  0  0
   -5.5881   -0.0212    2.0564 C   0  0  0  0  0  0  0  0  0  0  0  0
   -6.6088   -1.0683    1.6332 C   0  0  2  0  0  0  0  0  0  0  0  0
   -7.3657   -1.4564    2.8150 N   0  3  0  0  0  0  0  0  0  0  0  0
   -5.8931   -2.2723    1.0252 C   0  0  1  0  0  0  0  0  0  0  0  0
   -6.8671   -3.2461    0.6017 O   0  0  0  0  0  0  0  0  0  0  0  0
   -5.0393   -1.8478   -0.1777 C   0  0  2  0  0  0  0  0  0  0  0  0
   -4.2985   -2.9843   -0.6616 O   0  0  0  0  0  0  0  0  0  0  0  0
   -4.0493   -0.7488    0.2000 C   0  0  1  0  0  0  0  0  0  0  0  0
   -3.3698   -0.3014   -0.9656 O   0  0  0  0  0  0  0  0  0  0  0  0
  1  2  1  0  0  0  0
  3  2  1  6  0  0  0
  3  5  1  0  0  0  0
  3  4  1  0  0  0  0
  4  9  1  0  0  0  0
  5  7  1  0  0  0  0
  5  6  1  1  0  0  0
  7  9  1  0  0  0  0
  7  8  1  1  0  0  0
  9 40  1  6  0  0  0
 10  6  1  1  0  0  0
 10 11  1  0  0  0  0
 10 18  1  0  0  0  0
 11 13  1  0  0  0  0
 11 12  1  1  0  0  0
 13 15  1  0  0  0  0
 13 14  1  6  0  0  0
 15 17  1  0  0  0  0
 15 16  1  1  0  0  0
 17 19  1  1  0  0  0
 17 18  1  0  0  0  0
 19 20  1  0  0  0  0
 21 29  1  0  0  0  0
 22 23  1  0  0  0  0
 22 31  1  0  0  0  0
 22 38  1  1  0  0  0
 23 25  1  0  0  0  0
 23 24  1  6  0  0  0
 25 27  1  0  0  0  0
 25 26  1  6  0  0  0
 27 30  1  0  0  0  0
 27 28  1  1  0  0  0
 30 21  1  1  0  0  0
 30 31  1  0  0  0  0
 32 34  1  0  0  0  0
 32 41  1  0  0  0  0
 32 33  1  1  0  0  0
 34 35  1  0  0  0  0
 35 37  1  0  0  0  0
 35 36  1  1  0  0  0
 37 39  1  0  0  0  0
 37 38  1  6  0  0  0
 39 41  1  0  0  0  0
 39 40  1  1  0  0  0
 41 42  1  6  0  0  0
M  CHG  6  12   1  20   1  24   1  29   1  33   1  36   1
M  END
>  <CHROM.1>
-62.62289202,-75.49344160,-120.54280094,-173.08146148,-75.50913447,-25.45391739
-23.89570852,-59.27444350,-65.26007626,11.60497745,-177.32918305,82.74201880
46.28283937,168.25218535,46.25943847,69.50845816,-54.46973376,73.58553451
62.15624571,-152.58229523,-36.91235000,-155.84546819,-3.17991849,-2.70499517
1.16135209,0.39685007,0.07710430,-0.12817958

>  <Name>
1NEM.B

>  <RI>
0

>  <Rbt.Current_Directory>
/home/itssahil/PROJECTS/Mol_Feturizer/New_Systems/rnas/1nem

>  <Rbt.Executable>
rbdock ($Id: //depot/dev/client3/rdock/2013.1/src/exe/rbdock.cxx#4 $)

>  <Rbt.Library>
libRbt.so (2013.1, Build901 2013/11/27)

>  <Rbt.Parameter_File>
/export/apps/rDock/src/rDock_2013.1_src/data/scripts/dock_solv.prm

>  <Rbt.Receptor>
prm/blind_docking_60.prm

>  <SCORE>
-14.8192

>  <SCORE.INTER>
-36.4529

>  <SCORE.INTER.CONST>
1

>  <SCORE.INTER.POLAR>
-5.09898

>  <SCORE.INTER.ROT>
9

>  <SCORE.INTER.SOLV>
42.1359

>  <SCORE.INTER.VDW>
-30.9506

>  <SCORE.INTER.norm>
-0.867927

>  <SCORE.INTRA>
17.8305

>  <SCORE.INTRA.DIHEDRAL>
10.9688

>  <SCORE.INTRA.DIHEDRAL.0>
22.4324

>  <SCORE.INTRA.POLAR>
-0.60111

>  <SCORE.INTRA.POLAR.0>
-1.83749

>  <SCORE.INTRA.REPUL>
0

>  <SCORE.INTRA.REPUL.0>
0

>  <SCORE.INTRA.SOLV>
3.17739

>  <SCORE.INTRA.SOLV.lig_0>
-160.638

>  <SCORE.INTRA.VDW>
12.8012

>  <SCORE.INTRA.VDW.0>
-7.61953

>  <SCORE.INTRA.norm>
0.424536

>  <SCORE.RESTR>
3.80325

>  <SCORE.RESTR.CAVITY>
3.80325

>  <SCORE.RESTR.norm>
0.0905537

>  <SCORE.SYSTEM>
0

>  <SCORE.SYSTEM.CONST>
0

>  <SCORE.SYSTEM.DIHEDRAL>
0

>  <SCORE.SYSTEM.SOLV>
0

>  <SCORE.SYSTEM.norm>
0

>  <SCORE.heavy>
42

>  <SCORE.norm>
-0.352837

>  <RMSD>
5.311

$$$$
1NEM.B
 OpenBabel11021811403D
libRbt.so/2013.1/901 2013/11/27
 42 45  0  0  0  0  0  0  0  0999 V2000
   -1.5255   -5.0559    1.9818 O   0  0  0  0  0  0  0  0  0  0  0  0
   -2.1448   -5.0516    0.6939 C   0  0  0  0  0  0  0  0  0  0  0  0
   -2.2545   -3.6535    0.0874 C   0  0  1  0  0  0  0  0  0  0  0  0
   -3.3204   -3.5961   -0.8560 O   0  0  0  0  0  0  0  0  0  0  0  0
   -2.6109   -2.5578    1.0794 C   0  0  1  0  0  0  0  0  0  0  0  0
   -1.4580   -2.3303    1.8932 O   0  0  0  0  0  0  0  0  0  0  0  0
   -2.9741   -1.4588    0.0985 C   0  0  1  0  0  0  0  0  0  0  0  0
   -1.8291   -0.9565   -0.5986 O   0  0  0  0  0  0  0  0  0  0  0  0
   -3.8574   -2.2731   -0.8541 C   0  0  2  0  0  0  0  0  0  0  0  0
   -0.2606   -2.0815    1.2137 C   0  0  2  0  0  0  0  0  0  0  0  0
    0.6182   -3.3389    1.2601 C   0  0  2  0  0  0  0  0  0  0  0  0
    0.7864   -3.7923    2.6660 N   0  3  0  0  0  0  0  0  0  0  0  0
    1.9684   -3.0859    0.5816 C   0  0  1  0  0  0  0  0  0  0  0  0
    1.7827   -2.9686   -0.8228 O   0  0  0  0  0  0  0  0  0  0  0  0
    2.6282   -1.8129    1.1207 C   0  0  2  0  0  0  0  0  0  0  0  0
    3.0289   -1.9987    2.4724 O   0  0  0  0  0  0  0  0  0  0  0  0
    1.6489   -0.6465    1.0235 C   0  0  1  0  0  0  0  0  0  0  0  0
    0.4420   -0.9649    1.7433 O   0  0  0  0  0  0  0  0  0  0  0  0
    2.2032    0.6497    1.5881 C   0  0  0  0  0  0  0  0  0  0  0  0
    2.7000    0.4816    2.9718 N   0  3  0  0  0  0  0  0  0  0  0  0
   -5.7771   -6.9595    4.0299 C   0  0  0  0  0  0  0  0  0  0  0  0
   -6.0917   -4.3932    1.3762 C   0  0  2  0  0  0  0  0  0  0  0  0
   -7.2883   -4.9262    0.5920 C   0  0  2  0  0  0  0  0  0  0  0  0
   -7.8871   -3.8459   -0.2277 N   0  3  0  0  0  0  0  0  0  0  0  0
   -8.3392   -5.4756    1.5475 C   0  0  1  0  0  0  0  0  0  0  0  0
   -9.4103   -6.0377    0.8049 O   0  0  0  0  0  0  0  0  0  0  0  0
   -7.7082   -6.5375    2.4453 C   0  0  2  0  0  0  0  0  0  0  0  0
   -8.6652   -7.0061    3.3865 O   0  0  0  0  0  0  0  0  0  0  0  0
   -4.8551   -6.3088    4.9889 N   0  3  0  0  0  0  0  0  0  0  0  0
   -6.5128   -5.9364    3.1821 C   0  0  2  0  0  0  0  0  0  0  0  0
   -5.5654   -5.4005    2.2361 O   0  0  0  0  0  0  0  0  0  0  0  0
   -4.9524    0.7127    1.7310 C   0  0  2  0  0  0  0  0  0  0  0  0
   -3.9987    1.8447    1.6840 N   0  3  0  0  0  0  0  0  0  0  0  0
   -4.8632    0.0120    3.0821 C   0  0  0  0  0  0  0  0  0  0  0  0
   -5.8372   -1.1562    3.1440 C   0  0  2  0  0  0  0  0  0  0  0  0
   -5.7042   -1.7787    4.4536 N   0  3  0  0  0  0  0  0  0  0  0  0
   -5.5203   -2.1536    2.0322 C   0  0  1  0  0  0  0  0  0  0  0  0
   -6.4638   -3.2416    2.0802 O   0  0  0  0  0  0  0  0  0  0  0  0
   -5.5918   -1.4764    0.6565 C   0  0  2  0  0  0  0  0  0  0  0  0
   -5.1869   -2.4145   -0.3586 O   0  0  0  0  0  0  0  0  0  0  0  0
   -4.6738   -0.2586    0.5851 C   0  0  1  0  0  0  0  0  0  0  0  0
   -4.8643    0.4069   -0.6564 O   0  0  0  0  0  0  0  0  0  0  0  0
  1  2  1  0  0  0  0
  3  2  1  1  0  0  0
  3  5  1  0  0  0  0
  3  4  1  0  0  0  0
  4  9  1  0  0  0  0
  5  7  1  0  0  0  0
  5  6  1  6  0  0  0
  7  9  1  0  0  0  0
  7  8  1  6  0  0  0
  9 40  1  1  0  0  0
 10  6  1  1  0  0  0
 10 11  1  0  0  0  0
 10 18  1  0  0  0  0
 11 13  1  0  0  0  0
 11 12  1  1  0  0  0
 13 15  1  0  0  0  0
 13 14  1  6  0  0  0
 15 17  1  0  0  0  0
 15 16  1  1  0  0  0
 17 19  1  1  0  0  0
 17 18  1  0  0  0  0
 19 20  1  0  0  0  0
 21 29  1  0  0  0  0
 22 23  1  0  0  0  0
 22 31  1  0  0  0  0
 22 38  1  1  0  0  0
 23 25  1  0  0  0  0
 23 24  1  1  0  0  0
 25 27  1  0  0  0  0
 25 26  1  6  0  0  0
 27 30  1  0  0  0  0
 27 28  1  1  0  0  0
 30 21  1  6  0  0  0
 30 31  1  0  0  0  0
 32 34  1  0  0  0  0
 32 41  1  0  0  0  0
 32 33  1  1  0  0  0
 34 35  1  0  0  0  0
 35 37  1  0  0  0  0
 35 36  1  1  0  0  0
 37 39  1  0  0  0  0
 37 38  1  6  0  0  0
 39 41  1  0  0  0  0
 39 40  1  6  0  0  0
 41 42  1  6  0  0  0
M  CHG  6  12   1  20   1  24   1  29   1  33   1  36   1
M  END
>  <CHROM.1>
-148.44045308,-155.42263705,52.55642527,-103.86601021,-168.36736160,133.43493834
22.18924853,175.67724990,80.77833149,-53.33663633,46.47081652,-165.50538358
-75.86050474,-136.32466929,-39.73348470,60.81117379,-177.51523759,49.86638527
175.66887771,-163.30489362,-101.26203594,-163.59764876,-3.31506664,-2.83717701
1.50239935,-0.40361371,0.03894723,2.85700517

>  <Name>
1NEM.B

>  <RI>
0

>  <Rbt.Current_Directory>
/home/itssahil/PROJECTS/Mol_Feturizer/New_Systems/rnas/1nem

>  <Rbt.Executable>
rbdock ($Id: //depot/dev/client3/rdock/2013.1/src/exe/rbdock.cxx#4 $)

>  <Rbt.Library>
libRbt.so (2013.1, Build901 2013/11/27)

>  <Rbt.Parameter_File>
/export/apps/rDock/src/rDock_2013.1_src/data/scripts/dock_solv.prm

>  <Rbt.Receptor>
prm/blind_docking_40.prm

>  <SCORE>
-7.07313

>  <SCORE.INTER>
-43.8461

>  <SCORE.INTER.CONST>
1

>  <SCORE.INTER.POLAR>
-7.58358

>  <SCORE.INTER.ROT>
9

>  <SCORE.INTER.SOLV>
43.1843

>  <SCORE.INTER.VDW>
-27.9469

>  <SCORE.INTER.norm>
-1.04395

>  <SCORE.INTRA>
35.9359

>  <SCORE.INTRA.DIHEDRAL>
18.9937

>  <SCORE.INTRA.DIHEDRAL.0>
22.4324

>  <SCORE.INTRA.POLAR>
0.348198

>  <SCORE.INTRA.POLAR.0>
-1.83749

>  <SCORE.INTRA.REPUL>
0.0362557

>  <SCORE.INTRA.REPUL.0>
0

>  <SCORE.INTRA.SOLV>
1.65538

>  <SCORE.INTRA.SOLV.lig_0>
-160.638

>  <SCORE.INTRA.VDW>
24.2463

>  <SCORE.INTRA.VDW.0>
-7.61953

>  <SCORE.INTRA.norm>
0.855618

>  <SCORE.RESTR>
0.837

>  <SCORE.RESTR.CAVITY>
0.837

>  <SCORE.RESTR.norm>
0.0199286

>  <SCORE.SYSTEM>
0

>  <SCORE.SYSTEM.CONST>
0

>  <SCORE.SYSTEM.DIHEDRAL>
0

>  <SCORE.SYSTEM.SOLV>
0

>  <SCORE.SYSTEM.norm>
0

>  <SCORE.heavy>
42

>  <SCORE.norm>
-0.168408

>  <RMSD>
5.329

$$$$
1NEM.B
 OpenBabel11021811403D
libRbt.so/2013.1/901 2013/11/27
 42 45  0  0  0  0  0  0  0  0999 V2000
    3.3330    1.7792   -3.9470 O   0  0  0  0  0  0  0  0  0  0  0  0
    2.1729    1.1151   -3.4417 C   0  0  0  0  0  0  0  0  0  0  0  0
    1.9683    1.3261   -1.9422 C   0  0  1  0  0  0  0  0  0  0  0  0
    0.6790    0.8718   -1.5411 O   0  0  0  0  0  0  0  0  0  0  0  0
    2.9087    0.5262   -1.0548 C   0  0  1  0  0  0  0  0  0  0  0  0
    4.2038    1.1213   -1.1632 O   0  0  0  0  0  0  0  0  0  0  0  0
    2.1918    0.7030    0.2706 C   0  0  1  0  0  0  0  0  0  0  0  0
    2.2858    2.0445    0.7611 O   0  0  0  0  0  0  0  0  0  0  0  0
    0.7601    0.4091   -0.1928 C   0  0  2  0  0  0  0  0  0  0  0  0
    5.2125    0.5550   -0.3763 C   0  0  2  0  0  0  0  0  0  0  0  0
    5.3715    1.3761    0.9105 C   0  0  2  0  0  0  0  0  0  0  0  0
    5.5767    2.8106    0.5785 N   0  3  0  0  0  0  0  0  0  0  0  0
    6.5131    0.8253    1.7713 C   0  0  1  0  0  0  0  0  0  0  0  0
    6.1322   -0.4271    2.3253 O   0  0  0  0  0  0  0  0  0  0  0  0
    7.7936    0.6549    0.9481 C   0  0  2  0  0  0  0  0  0  0  0  0
    8.3150    1.9249    0.5773 O   0  0  0  0  0  0  0  0  0  0  0  0
    7.4951   -0.1701   -0.3006 C   0  0  1  0  0  0  0  0  0  0  0  0
    6.4529    0.4665   -1.0652 O   0  0  0  0  0  0  0  0  0  0  0  0
    8.7014   -0.3438   -1.2064 C   0  0  0  0  0  0  0  0  0  0  0  0
    9.0664   -1.7681   -1.3733 N   0  3  0  0  0  0  0  0  0  0  0  0
   -5.5866   -2.5858    2.1443 C   0  0  0  0  0  0  0  0  0  0  0  0
   -2.8158   -0.6602    0.6141 C   0  0  2  0  0  0  0  0  0  0  0  0
   -3.3458    0.7663    0.7375 C   0  0  2  0  0  0  0  0  0  0  0  0
   -2.2334    1.7391    0.6194 N   0  3  0  0  0  0  0  0  0  0  0  0
   -4.0395    0.9541    2.0802 C   0  0  1  0  0  0  0  0  0  0  0  0
   -4.5947    2.2584    2.1508 O   0  0  0  0  0  0  0  0  0  0  0  0
   -5.1386   -0.0941    2.2385 C   0  0  2  0  0  0  0  0  0  0  0  0
   -5.7451    0.0304    3.5184 O   0  0  0  0  0  0  0  0  0  0  0  0
   -6.9407   -2.0566    1.8625 N   0  3  0  0  0  0  0  0  0  0  0  0
   -4.5367   -1.4898    2.0873 C   0  0  2  0  0  0  0  0  0  0  0  0
   -3.8635   -1.6047    0.8172 O   0  0  0  0  0  0  0  0  0  0  0  0
    1.2158   -3.8229    2.1147 C   0  0  2  0  0  0  0  0  0  0  0  0
    2.0073   -5.0627    1.9417 N   0  3  0  0  0  0  0  0  0  0  0  0
   -0.2383   -4.1704    2.4127 C   0  0  0  0  0  0  0  0  0  0  0  0
   -1.0650   -2.9046    2.5908 C   0  0  2  0  0  0  0  0  0  0  0  0
   -2.4365   -3.3037    2.8730 N   0  3  0  0  0  0  0  0  0  0  0  0
   -0.9943   -2.0578    1.3222 C   0  0  1  0  0  0  0  0  0  0  0  0
   -1.7559   -0.8489    1.5091 O   0  0  0  0  0  0  0  0  0  0  0  0
    0.4600   -1.6983    0.9878 C   0  0  2  0  0  0  0  0  0  0  0  0
    0.5003   -0.9910   -0.2663 O   0  0  0  0  0  0  0  0  0  0  0  0
    1.3307   -2.9466    0.8684 C   0  0  1  0  0  0  0  0  0  0  0  0
    2.6867   -2.5632    0.6826 O   0  0  0  0  0  0  0  0  0  0  0  0
  1  2  1  0  0  0  0
  3  2  1  6  0  0  0
  3  5  1  0  0  0  0
  3  4  1  0  0  0  0
  4  9  1  0  0  0  0
  5  7  1  0  0  0  0
  5  6  1  1  0  0  0
  7  9  1  0  0  0  0
  7  8  1  6  0  0  0
  9 40  1  6  0  0  0
 10  6  1  6  0  0  0
 10 11  1  0  0  0  0
 10 18  1  0  0  0  0
 11 13  1  0  0  0  0
 11 12  1  6  0  0  0
 13 15  1  0  0  0  0
 13 14  1  6  0  0  0
 15 17  1  0  0  0  0
 15 16  1  6  0  0  0
 17 19  1  6  0  0  0
 17 18  1  0  0  0  0
 19 20  1  0  0  0  0
 21 29  1  0  0  0  0
 22 23  1  0  0  0  0
 22 31  1  0  0  0  0
 22 38  1  1  0  0  0
 23 25  1  0  0  0  0
 23 24  1  1  0  0  0
 25 27  1  0  0  0  0
 25 26  1  6  0  0  0
 27 30  1  0  0  0  0
 27 28  1  1  0  0  0
 30 21  1  6  0  0  0
 30 31  1  0  0  0  0
 32 34  1  0  0  0  0
 32 41  1  0  0  0  0
 32 33  1  6  0  0  0
 34 35  1  0  0  0  0
 35 37  1  0  0  0  0
 35 36  1  6  0  0  0
 37 39  1  0  0  0  0
 37 38  1  1  0  0  0
 39 41  1  0  0  0  0
 39 40  1  6  0  0  0
 41 42  1  1  0  0  0
M  CHG  6  12   1  20   1  24   1  29   1  33   1  36   1
M  END
>  <CHROM.1>
-59.53146431,168.68094581,177.76094950,-97.27660437,-178.12972145,-177.13531466
45.80664610,165.88527083,69.87096693,119.29677872,-15.28262884,19.73880711
-175.79165108,-168.49197851,-40.13836801,65.10396250,-58.16017162,76.93933854
-85.96918453,-120.15068085,106.81949474,50.78825247,1.20076196,-0.39432962
0.63006005,0.21291849,0.12913536,-0.44876724

>  <Name>
1NEM.B

>  <RI>
0

>  <Rbt.Current_Directory>
/home/itssahil/PROJECTS/Mol_Feturizer/New_Systems/rnas/1nem

>  <Rbt.Executable>
rbdock ($Id: //depot/dev/client3/rdock/2013.1/src/exe/rbdock.cxx#4 $)

>  <Rbt.Library>
libRbt.so (2013.1, Build901 2013/11/27)

>  <Rbt.Parameter_File>
/export/apps/rDock/src/rDock_2013.1_src/data/scripts/dock_solv.prm

>  <Rbt.Receptor>
prm/pocket_docking_8.prm

>  <SCORE>
-35.5902

>  <SCORE.INTER>
-49.2658

>  <SCORE.INTER.CONST>
1

>  <SCORE.INTER.POLAR>
-6.71062

>  <SCORE.INTER.ROT>
9

>  <SCORE.INTER.SOLV>
35.993

>  <SCORE.INTER.VDW>
-32.0728

>  <SCORE.INTER.norm>
-1.17299

>  <SCORE.INTRA>
13.5171

>  <SCORE.INTRA.DIHEDRAL>
15.892

>  <SCORE.INTRA.DIHEDRAL.0>
22.4324

>  <SCORE.INTRA.POLAR>
0.687176

>  <SCORE.INTRA.POLAR.0>
-1.83749

>  <SCORE.INTRA.REPUL>
0.0211902

>  <SCORE.INTRA.REPUL.0>
0

>  <SCORE.INTRA.SOLV>
-0.322621

>  <SCORE.INTRA.SOLV.lig_0>
-160.638

>  <SCORE.INTRA.VDW>
3.29011

>  <SCORE.INTRA.VDW.0>
-7.61953

>  <SCORE.INTRA.norm>
0.321837

>  <SCORE.RESTR>
0.15841

>  <SCORE.RESTR.CAVITY>
0.15841

>  <SCORE.RESTR.norm>
0.00377166

>  <SCORE.SYSTEM>
0

>  <SCORE.SYSTEM.CONST>
0

>  <SCORE.SYSTEM.DIHEDRAL>
0

>  <SCORE.SYSTEM.SOLV>
0

>  <SCORE.SYSTEM.norm>
0

>  <SCORE.heavy>
42

>  <SCORE.norm>
-0.847386

>  <RMSD>
5.365

$$$$
1NEM.B
 OpenBabel11021811403D
libRbt.so/2013.1/901 2013/11/27
 42 45  0  0  0  0  0  0  0  0999 V2000
   -1.6761    3.9932   -3.5810 O   0  0  0  0  0  0  0  0  0  0  0  0
   -0.6546    3.1371   -3.0654 C   0  0  0  0  0  0  0  0  0  0  0  0
   -0.7472    2.9387   -1.5532 C   0  0  1  0  0  0  0  0  0  0  0  0
   -1.6909    1.9198   -1.2359 O   0  0  0  0  0  0  0  0  0  0  0  0
    0.5320    2.4415   -0.8990 C   0  0  1  0  0  0  0  0  0  0  0  0
    1.4596    3.5291   -0.8992 O   0  0  0  0  0  0  0  0  0  0  0  0
   -0.0334    2.0348    0.4489 C   0  0  1  0  0  0  0  0  0  0  0  0
   -0.4247    3.1658    1.2342 O   0  0  0  0  0  0  0  0  0  0  0  0
   -1.2730    1.2725   -0.0338 C   0  0  2  0  0  0  0  0  0  0  0  0
    2.7056    3.2794   -0.3139 C   0  0  2  0  0  0  0  0  0  0  0  0
    3.4779    4.5994   -0.1852 C   0  0  2  0  0  0  0  0  0  0  0  0
    3.5387    5.2857   -1.5026 N   0  3  0  0  0  0  0  0  0  0  0  0
    4.8762    4.3589    0.3929 C   0  0  1  0  0  0  0  0  0  0  0  0
    4.7711    4.0018    1.7647 O   0  0  0  0  0  0  0  0  0  0  0  0
    5.6076    3.2513   -0.3718 C   0  0  2  0  0  0  0  0  0  0  0  0
    5.9239    3.6860   -1.6883 O   0  0  0  0  0  0  0  0  0  0  0  0
    4.7306    2.0039   -0.4320 C   0  0  1  0  0  0  0  0  0  0  0  0
    3.4676    2.3277   -1.0451 O   0  0  0  0  0  0  0  0  0  0  0  0
    5.3575    0.8684   -1.2217 C   0  0  0  0  0  0  0  0  0  0  0  0
    6.6630    0.4586   -0.6584 N   0  3  0  0  0  0  0  0  0  0  0  0
   -4.5798   -3.1147    4.7355 C   0  0  0  0  0  0  0  0  0  0  0  0
   -3.1046   -2.7337    1.3583 C   0  0  2  0  0  0  0  0  0  0  0  0
   -4.2444   -2.0401    0.6160 C   0  0  2  0  0  0  0  0  0  0  0  0
   -3.7317   -1.3755   -0.6058 N   0  3  0  0  0  0  0  0  0  0  0  0
   -4.9022   -1.0027    1.5161 C   0  0  1  0  0  0  0  0  0  0  0  0
   -6.0078   -0.4208    0.8427 O   0  0  0  0  0  0  0  0  0  0  0  0
   -5.3662   -1.6690    2.8094 C   0  0  2  0  0  0  0  0  0  0  0  0
   -5.9193   -0.6943    3.6844 O   0  0  0  0  0  0  0  0  0  0  0  0
   -4.8139   -2.2010    5.8772 N   0  3  0  0  0  0  0  0  0  0  0  0
   -4.1787   -2.3525    3.4846 C   0  0  2  0  0  0  0  0  0  0  0  0
   -3.5712   -3.2980    2.5809 O   0  0  0  0  0  0  0  0  0  0  0  0
    2.0920   -1.9919    0.6580 C   0  0  2  0  0  0  0  0  0  0  0  0
    3.3562   -2.2908   -0.0532 N   0  3  0  0  0  0  0  0  0  0  0  0
    1.3660   -3.2887    0.9975 C   0  0  0  0  0  0  0  0  0  0  0  0
    0.0625   -2.9966    1.7275 C   0  0  2  0  0  0  0  0  0  0  0  0
   -0.5783   -4.2703    2.0229 N   0  3  0  0  0  0  0  0  0  0  0  0
   -0.8359   -2.1249    0.8532 C   0  0  1  0  0  0  0  0  0  0  0  0
   -2.0552   -1.8297    1.5622 O   0  0  0  0  0  0  0  0  0  0  0  0
   -0.1295   -0.8130    0.4844 C   0  0  2  0  0  0  0  0  0  0  0  0
   -0.9595   -0.0630   -0.4230 O   0  0  0  0  0  0  0  0  0  0  0  0
    1.2148   -1.0731   -0.1908 C   0  0  1  0  0  0  0  0  0  0  0  0
    1.8869    0.1617   -0.4009 O   0  0  0  0  0  0  0  0  0  0  0  0
  1  2  1  0  0  0  0
  3  2  1  6  0  0  0
  3  5  1  0  0  0  0
  3  4  1  0  0  0  0
  4  9  1  0  0  0  0
  5  7  1  0  0  0  0
  5  6  1  1  0  0  0
  7  9  1  0  0  0  0
  7  8  1  1  0  0  0
  9 40  1  6  0  0  0
 10  6  1  6  0  0  0
 10 11  1  0  0  0  0
 10 18  1  0  0  0  0
 11 13  1  0  0  0  0
 11 12  1  6  0  0  0
 13 15  1  0  0  0  0
 13 14  1  1  0  0  0
 15 17  1  0  0  0  0
 15 16  1  6  0  0  0
 17 19  1  6  0  0  0
 17 18  1  0  0  0  0
 19 20  1  0  0  0  0
 21 29  1  0  0  0  0
 22 23  1  0  0  0  0
 22 31  1  0  0  0  0
 22 38  1  1  0  0  0
 23 25  1  0  0  0  0
 23 24  1  6  0  0  0
 25 27  1  0  0  0  0
 25 26  1  6  0  0  0
 27 30  1  0  0  0  0
 27 28  1  1  0  0  0
 30 21  1  1  0  0  0
 30 31  1  0  0  0  0
 32 34  1  0  0  0  0
 32 41  1  0  0  0  0
 32 33  1  6  0  0  0
 34 35  1  0  0  0  0
 35 37  1  0  0  0  0
 35 36  1  6  0  0  0
 37 39  1  0  0  0  0
 37 38  1  1  0  0  0
 39 41  1  0  0  0  0
 39 40  1  6  0  0  0
 41 42  1  1  0  0  0
M  CHG  6  12   1  20   1  24   1  29   1  33   1  36   1
M  END
>  <CHROM.1>
-176.54571881,83.11951730,178.98061421,-170.48531589,60.40609683,161.29549244
-74.99590748,-49.98172863,-178.05551532,58.69823819,-174.29611118,-76.61806938
47.79456611,-113.61796010,61.40588612,-162.97734373,-52.45474600,57.15404395
59.05482781,-90.84106505,125.15759195,-55.53770762,0.04179501,0.43165035
0.45287540,0.63297735,0.08118124,-0.46727935

>  <Name>
1NEM.B

>  <RI>
0

>  <Rbt.Current_Directory>
/home/itssahil/PROJECTS/Mol_Feturizer/New_Systems/rnas/1nem

>  <Rbt.Executable>
rbdock ($Id: //depot/dev/client3/rdock/2013.1/src/exe/rbdock.cxx#4 $)

>  <Rbt.Library>
libRbt.so (2013.1, Build901 2013/11/27)

>  <Rbt.Parameter_File>
/export/apps/rDock/src/rDock_2013.1_src/data/scripts/dock_solv.prm

>  <Rbt.Receptor>
prm/pocket_docking_5.prm

>  <SCORE>
-43.6984

>  <SCORE.INTER>
-44.919

>  <SCORE.INTER.CONST>
1

>  <SCORE.INTER.POLAR>
-7.08787

>  <SCORE.INTER.ROT>
9

>  <SCORE.INTER.SOLV>
34.1627

>  <SCORE.INTER.VDW>
-27.3073

>  <SCORE.INTER.norm>
-1.0695

>  <SCORE.INTRA>
0.417827

>  <SCORE.INTRA.DIHEDRAL>
4.20286

>  <SCORE.INTRA.DIHEDRAL.0>
22.4324

>  <SCORE.INTRA.POLAR>
-1.02654

>  <SCORE.INTRA.POLAR.0>
-1.83749

>  <SCORE.INTRA.REPUL>
0

>  <SCORE.INTRA.REPUL.0>
0

>  <SCORE.INTRA.SOLV>
-1.01515

>  <SCORE.INTRA.SOLV.lig_0>
-160.638

>  <SCORE.INTRA.VDW>
2.3142

>  <SCORE.INTRA.VDW.0>
-7.61953

>  <SCORE.INTRA.norm>
0.00994826

>  <SCORE.RESTR>
0.802776

>  <SCORE.RESTR.CAVITY>
0.802776

>  <SCORE.RESTR.norm>
0.0191137

>  <SCORE.SYSTEM>
0

>  <SCORE.SYSTEM.CONST>
0

>  <SCORE.SYSTEM.DIHEDRAL>
0

>  <SCORE.SYSTEM.SOLV>
0

>  <SCORE.SYSTEM.norm>
0

>  <SCORE.heavy>
42

>  <SCORE.norm>
-1.04044

>  <RMSD>
5.376

$$$$
1NEM.B
 OpenBabel11021811403D
libRbt.so/2013.1/901 2013/11/27
 42 45  0  0  0  0  0  0  0  0999 V2000
    6.8818    2.7728    2.1034 O   0  0  0  0  0  0  0  0  0  0  0  0
    5.9398    2.1188    1.2508 C   0  0  0  0  0  0  0  0  0  0  0  0
    4.5137    2.1514    1.7986 C   0  0  1  0  0  0  0  0  0  0  0  0
    3.5840    1.7212    0.8086 O   0  0  0  0  0  0  0  0  0  0  0  0
    4.2558    1.1971    2.9537 C   0  0  1  0  0  0  0  0  0  0  0  0
    4.9206    1.7299    4.1014 O   0  0  0  0  0  0  0  0  0  0  0  0
    2.7394    1.2454    2.9671 C   0  0  1  0  0  0  0  0  0  0  0  0
    2.2430    2.5079    3.4239 O   0  0  0  0  0  0  0  0  0  0  0  0
    2.4835    1.0899    1.4634 C   0  0  2  0  0  0  0  0  0  0  0  0
    5.4630    0.7962    4.9910 C   0  0  2  0  0  0  0  0  0  0  0  0
    5.5001    1.4023    6.4004 C   0  0  2  0  0  0  0  0  0  0  0  0
    6.2016    2.7128    6.3741 N   0  3  0  0  0  0  0  0  0  0  0  0
    6.1487    0.4329    7.3940 C   0  0  1  0  0  0  0  0  0  0  0  0
    5.2796   -0.6682    7.6237 O   0  0  0  0  0  0  0  0  0  0  0  0
    7.4955   -0.0759    6.8709 C   0  0  2  0  0  0  0  0  0  0  0  0
    8.4486    0.9792    6.8522 O   0  0  0  0  0  0  0  0  0  0  0  0
    7.3190   -0.6432    5.4653 C   0  0  1  0  0  0  0  0  0  0  0  0
    6.7606    0.3657    4.6014 O   0  0  0  0  0  0  0  0  0  0  0  0
    8.6195   -1.1234    4.8454 C   0  0  0  0  0  0  0  0  0  0  0  0
    8.8352   -0.5484    3.4991 N   0  3  0  0  0  0  0  0  0  0  0  0
   -4.5269   -0.2338    0.9635 C   0  0  0  0  0  0  0  0  0  0  0  0
   -1.1406   -0.0859   -0.5324 C   0  0  2  0  0  0  0  0  0  0  0  0
   -1.1360    1.3271   -1.1107 C   0  0  2  0  0  0  0  0  0  0  0  0
    0.2554    1.7793   -1.3497 N   0  3  0  0  0  0  0  0  0  0  0  0
   -1.8211    2.2896   -0.1498 C   0  0  1  0  0  0  0  0  0  0  0  0
   -1.8794    3.5827   -0.7320 O   0  0  0  0  0  0  0  0  0  0  0  0
   -3.2302    1.7880    0.1580 C   0  0  2  0  0  0  0  0  0  0  0  0
   -3.8517    2.6438    1.1081 O   0  0  0  0  0  0  0  0  0  0  0  0
   -5.4850    0.1400   -0.1020 N   0  3  0  0  0  0  0  0  0  0  0  0
   -3.1547    0.3679    0.7157 C   0  0  2  0  0  0  0  0  0  0  0  0
   -2.4684   -0.4944   -0.2145 O   0  0  0  0  0  0  0  0  0  0  0  0
    1.3646   -3.5355    2.5273 C   0  0  2  0  0  0  0  0  0  0  0  0
    2.0718   -4.8199    2.7361 N   0  3  0  0  0  0  0  0  0  0  0  0
    0.1850   -3.7377    1.5830 C   0  0  0  0  0  0  0  0  0  0  0  0
   -0.5505   -2.4242    1.3572 C   0  0  2  0  0  0  0  0  0  0  0  0
   -1.6612   -2.6848    0.4524 N   0  3  0  0  0  0  0  0  0  0  0  0
    0.4048   -1.3916    0.7634 C   0  0  1  0  0  0  0  0  0  0  0  0
   -0.2914   -0.1436    0.5792 O   0  0  0  0  0  0  0  0  0  0  0  0
    1.6111   -1.1716    1.6868 C   0  0  2  0  0  0  0  0  0  0  0  0
    2.5410   -0.2739    1.0511 O   0  0  0  0  0  0  0  0  0  0  0  0
    2.3318   -2.4836    1.9865 C   0  0  1  0  0  0  0  0  0  0  0  0
    3.3611   -2.2526    2.9392 O   0  0  0  0  0  0  0  0  0  0  0  0
  1  2  1  0  0  0  0
  3  2  1  6  0  0  0
  3  5  1  0  0  0  0
  3  4  1  0  0  0  0
  4  9  1  0  0  0  0
  5  7  1  0  0  0  0
  5  6  1  1  0  0  0
  7  9  1  0  0  0  0
  7  8  1  6  0  0  0
  9 40  1  1  0  0  0
 10  6  1  6  0  0  0
 10 11  1  0  0  0  0
 10 18  1  0  0  0  0
 11 13  1  0  0  0  0
 11 12  1  6  0  0  0
 13 15  1  0  0  0  0
 13 14  1  6  0  0  0
 15 17  1  0  0  0  0
 15 16  1  6  0  0  0
 17 19  1  6  0  0  0
 17 18  1  0  0  0  0
 19 20  1  0  0  0  0
 21 29  1  0  0  0  0
 22 23  1  0  0  0  0
 22 31  1  0  0  0  0
 22 38  1  1  0  0  0
 23 25  1  0  0  0  0
 23 24  1  1  0  0  0
 25 27  1  0  0  0  0
 25 26  1  6  0  0  0
 27 30  1  0  0  0  0
 27 28  1  1  0  0  0
 30 21  1  6  0  0  0
 30 31  1  0  0  0  0
 32 34  1  0  0  0  0
 32 41  1  0  0  0  0
 32 33  1  6  0  0  0
 34 35  1  0  0  0  0
 35 37  1  0  0  0  0
 35 36  1  6  0  0  0
 37 39  1  0  0  0  0
 37 38  1  1  0  0  0
 39 41  1  0  0  0  0
 39 40  1  6  0  0  0
 41 42  1  1  0  0  0
M  CHG  6  12   1  20   1  24   1  29   1  33   1  36   1
M  END
>  <CHROM.1>
-172.89127495,168.89107484,-145.38704441,-152.35095015,172.47473971,173.70989641
-163.04109251,-66.63434486,-92.82393045,-128.39744154,35.78557123,38.74652906
166.22411009,-145.87611746,-167.57063082,-172.92377957,172.33221064,74.61414769
46.45816047,-77.36501344,99.03299232,154.30923941,2.31067722,0.22734380,2.43025169
-0.08258150,-0.49703911,-0.21272877

>  <Name>
1NEM.B

>  <RI>
0

>  <Rbt.Current_Directory>
/home/itssahil/PROJECTS/Mol_Feturizer/New_Systems/rnas/1nem

>  <Rbt.Executable>
rbdock ($Id: //depot/dev/client3/rdock/2013.1/src/exe/rbdock.cxx#4 $)

>  <Rbt.Library>
libRbt.so (2013.1, Build901 2013/11/27)

>  <Rbt.Parameter_File>
/export/apps/rDock/src/rDock_2013.1_src/data/scripts/dock_solv.prm

>  <Rbt.Receptor>
prm/pocket_docking_5.prm

>  <SCORE>
-31.841

>  <SCORE.INTER>
-47.0675

>  <SCORE.INTER.CONST>
1

>  <SCORE.INTER.POLAR>
-8.43055

>  <SCORE.INTER.ROT>
9

>  <SCORE.INTER.SOLV>
36.81

>  <SCORE.INTER.VDW>
-25.1465

>  <SCORE.INTER.norm>
-1.12066

>  <SCORE.INTRA>
15.1512

>  <SCORE.INTRA.DIHEDRAL>
15.5882

>  <SCORE.INTRA.DIHEDRAL.0>
22.4324

>  <SCORE.INTRA.POLAR>
0.928357

>  <SCORE.INTRA.POLAR.0>
-1.83749

>  <SCORE.INTRA.REPUL>
0.0171696

>  <SCORE.INTRA.REPUL.0>
0

>  <SCORE.INTRA.SOLV>
0.00754968

>  <SCORE.INTRA.SOLV.lig_0>
-160.638

>  <SCORE.INTRA.VDW>
4.11105

>  <SCORE.INTRA.VDW.0>
-7.61953

>  <SCORE.INTRA.norm>
0.360743

>  <SCORE.RESTR>
0.075287

>  <SCORE.RESTR.CAVITY>
0.075287

>  <SCORE.RESTR.norm>
0.00179255

>  <SCORE.SYSTEM>
0

>  <SCORE.SYSTEM.CONST>
0

>  <SCORE.SYSTEM.DIHEDRAL>
0

>  <SCORE.SYSTEM.SOLV>
0

>  <SCORE.SYSTEM.norm>
0

>  <SCORE.heavy>
42

>  <SCORE.norm>
-0.75812

>  <RMSD>
5.391

$$$$
1NEM.B
 OpenBabel11021811403D
libRbt.so/2013.1/901 2013/11/27
 42 45  0  0  0  0  0  0  0  0999 V2000
    1.6227    3.2805   -1.0068 O   0  0  0  0  0  0  0  0  0  0  0  0
    2.5027    3.7461    0.0183 C   0  0  0  0  0  0  0  0  0  0  0  0
    3.0738    2.6170    0.8749 C   0  0  1  0  0  0  0  0  0  0  0  0
    2.0283    1.8989    1.5237 O   0  0  0  0  0  0  0  0  0  0  0  0
    3.8039    1.5356    0.0945 C   0  0  1  0  0  0  0  0  0  0  0  0
    5.0431    2.0943   -0.3477 O   0  0  0  0  0  0  0  0  0  0  0  0
    3.8876    0.4767    1.1779 C   0  0  1  0  0  0  0  0  0  0  0  0
    4.7948    0.8432    2.2227 O   0  0  0  0  0  0  0  0  0  0  0  0
    2.4425    0.5422    1.6860 C   0  0  2  0  0  0  0  0  0  0  0  0
    5.8592    2.6507    0.6431 C   0  0  2  0  0  0  0  0  0  0  0  0
    6.0695    4.1418    0.3470 C   0  0  2  0  0  0  0  0  0  0  0  0
    6.5709    4.3207   -1.0411 N   0  3  0  0  0  0  0  0  0  0  0  0
    7.0128    4.7743    1.3754 C   0  0  1  0  0  0  0  0  0  0  0  0
    6.3568    4.8644    2.6333 O   0  0  0  0  0  0  0  0  0  0  0  0
    8.2984    3.9547    1.5239 C   0  0  2  0  0  0  0  0  0  0  0  0
    9.0807    4.0442    0.3399 O   0  0  0  0  0  0  0  0  0  0  0  0
    7.9478    2.4968    1.8075 C   0  0  1  0  0  0  0  0  0  0  0  0
    7.1105    1.9850    0.7525 O   0  0  0  0  0  0  0  0  0  0  0  0
    9.1667    1.5977    1.9163 C   0  0  0  0  0  0  0  0  0  0  0  0
    9.8730    1.7781    3.2041 N   0  3  0  0  0  0  0  0  0  0  0  0
   -5.0052   -0.8094    2.7933 C   0  0  0  0  0  0  0  0  0  0  0  0
   -2.5023   -0.8115    0.0616 C   0  0  2  0  0  0  0  0  0  0  0  0
   -2.9000    0.4490   -0.7026 C   0  0  2  0  0  0  0  0  0  0  0  0
   -1.7770    0.9086   -1.5542 N   0  3  0  0  0  0  0  0  0  0  0  0
   -3.2796    1.5557    0.2721 C   0  0  1  0  0  0  0  0  0  0  0  0
   -3.7210    2.6952   -0.4499 O   0  0  0  0  0  0  0  0  0  0  0  0
   -4.3860    1.0612    1.2011 C   0  0  2  0  0  0  0  0  0  0  0  0
   -4.6980    2.0646    2.1588 O   0  0  0  0  0  0  0  0  0  0  0  0
   -4.4565   -1.8424    3.7016 N   0  3  0  0  0  0  0  0  0  0  0  0
   -3.9221   -0.2065    1.9158 C   0  0  2  0  0  0  0  0  0  0  0  0
   -3.5423   -1.2089    0.9512 O   0  0  0  0  0  0  0  0  0  0  0  0
    1.1906   -3.7555    2.1081 C   0  0  2  0  0  0  0  0  0  0  0  0
    2.1400   -4.8921    2.0984 N   0  3  0  0  0  0  0  0  0  0  0  0
   -0.0449   -4.1015    1.2847 C   0  0  0  0  0  0  0  0  0  0  0  0
   -1.0295   -2.9405    1.2839 C   0  0  2  0  0  0  0  0  0  0  0  0
   -2.1820   -3.3337    0.4856 N   0  3  0  0  0  0  0  0  0  0  0  0
   -0.3623   -1.6968    0.7013 C   0  0  1  0  0  0  0  0  0  0  0  0
   -1.2913   -0.5957    0.7302 O   0  0  0  0  0  0  0  0  0  0  0  0
    0.8932   -1.3264    1.5030 C   0  0  2  0  0  0  0  0  0  0  0  0
    1.5546   -0.2158    0.8674 O   0  0  0  0  0  0  0  0  0  0  0  0
    1.8726   -2.4950    1.5786 C   0  0  1  0  0  0  0  0  0  0  0  0
    2.9574   -2.1505    2.4301 O   0  0  0  0  0  0  0  0  0  0  0  0
  1  2  1  0  0  0  0
  3  2  1  6  0  0  0
  3  5  1  0  0  0  0
  3  4  1  0  0  0  0
  4  9  1  0  0  0  0
  5  7  1  0  0  0  0
  5  6  1  1  0  0  0
  7  9  1  0  0  0  0
  7  8  1  1  0  0  0
  9 40  1  6  0  0  0
 10  6  1  6  0  0  0
 10 11  1  0  0  0  0
 10 18  1  0  0  0  0
 11 13  1  0  0  0  0
 11 12  1  6  0  0  0
 13 15  1  0  0  0  0
 13 14  1  1  0  0  0
 15 17  1  0  0  0  0
 15 16  1  6  0  0  0
 17 19  1  6  0  0  0
 17 18  1  0  0  0  0
 19 20  1  0  0  0  0
 21 29  1  0  0  0  0
 22 23  1  0  0  0  0
 22 31  1  0  0  0  0
 22 38  1  1  0  0  0
 23 25  1  0  0  0  0
 23 24  1  1  0  0  0
 25 27  1  0  0  0  0
 25 26  1  6  0  0  0
 27 30  1  0  0  0  0
 27 28  1  1  0  0  0
 30 21  1  6  0  0  0
 30 31  1  0  0  0  0
 32 34  1  0  0  0  0
 32 41  1  0  0  0  0
 32 33  1  6  0  0  0
 34 35  1  0  0  0  0
 35 37  1  0  0  0  0
 35 36  1  6  0  0  0
 37 39  1  0  0  0  0
 37 38  1  1  0  0  0
 39 41  1  0  0  0  0
 39 40  1  6  0  0  0
 41 42  1  1  0  0  0
M  CHG  6  12   1  20   1  24   1  29   1  33   1  36   1
M  END
>  <CHROM.1>
-171.75997420,-60.19204134,54.47995803,-119.15105082,70.44802174,-128.13902491
-145.88058850,-56.74245852,176.77710561,75.62264790,166.14617160,-167.18050400
-63.48315884,-139.24400966,-159.70864528,69.50470660,-28.74506771,166.48892271
154.95438049,-56.91363457,159.17753720,77.42613198,1.87440018,0.72967467
1.07493327,0.34740347,-0.09981153,-0.27186251

>  <Name>
1NEM.B

>  <RI>
0

>  <Rbt.Current_Directory>
/home/itssahil/PROJECTS/Mol_Feturizer/New_Systems/rnas/1nem

>  <Rbt.Executable>
rbdock ($Id: //depot/dev/client3/rdock/2013.1/src/exe/rbdock.cxx#4 $)

>  <Rbt.Library>
libRbt.so (2013.1, Build901 2013/11/27)

>  <Rbt.Parameter_File>
/export/apps/rDock/src/rDock_2013.1_src/data/scripts/dock_solv.prm

>  <Rbt.Receptor>
prm/pocket_docking_6.prm

>  <SCORE>
-32.3491

>  <SCORE.INTER>
-50.5434

>  <SCORE.INTER.CONST>
1

>  <SCORE.INTER.POLAR>
-7.505

>  <SCORE.INTER.ROT>
9

>  <SCORE.INTER.SOLV>
32.4159

>  <SCORE.INTER.VDW>
-29.0843

>  <SCORE.INTER.norm>
-1.20342

>  <SCORE.INTRA>
18.1943

>  <SCORE.INTRA.DIHEDRAL>
13.2994

>  <SCORE.INTRA.DIHEDRAL.0>
22.4324

>  <SCORE.INTRA.POLAR>
0.80513

>  <SCORE.INTRA.POLAR.0>
-1.83749

>  <SCORE.INTRA.REPUL>
0.0620715

>  <SCORE.INTRA.REPUL.0>
0

>  <SCORE.INTRA.SOLV>
-3.33721

>  <SCORE.INTRA.SOLV.lig_0>
-160.638

>  <SCORE.INTRA.VDW>
10.1655

>  <SCORE.INTRA.VDW.0>
-7.61953

>  <SCORE.INTRA.norm>
0.433199

>  <SCORE.RESTR>
0

>  <SCORE.RESTR.CAVITY>
0

>  <SCORE.RESTR.norm>
0

>  <SCORE.SYSTEM>
0

>  <SCORE.SYSTEM.CONST>
0

>  <SCORE.SYSTEM.DIHEDRAL>
0

>  <SCORE.SYSTEM.SOLV>
0

>  <SCORE.SYSTEM.norm>
0

>  <SCORE.heavy>
42

>  <SCORE.norm>
-0.770217

>  <RMSD>
5.403

$$$$
1NEM.B
 OpenBabel11021811403D
libRbt.so/2013.1/901 2013/11/27
 42 45  0  0  0  0  0  0  0  0999 V2000
    1.7970   -4.3494    2.4633 O   0  0  0  0  0  0  0  0  0  0  0  0
    0.4394   -4.2970    2.9064 C   0  0  0  0  0  0  0  0  0  0  0  0
   -0.5669   -4.5303    1.7805 C   0  0  1  0  0  0  0  0  0  0  0  0
   -1.7969   -5.0274    2.2995 O   0  0  0  0  0  0  0  0  0  0  0  0
   -0.9881   -3.2736    1.0356 C   0  0  1  0  0  0  0  0  0  0  0  0
    0.1197   -2.8663    0.2293 O   0  0  0  0  0  0  0  0  0  0  0  0
   -2.1935   -3.8272    0.2991 C   0  0  1  0  0  0  0  0  0  0  0  0
   -1.8211   -4.7495   -0.7303 O   0  0  0  0  0  0  0  0  0  0  0  0
   -2.8597   -4.5732    1.4611 C   0  0  2  0  0  0  0  0  0  0  0  0
    0.7386   -1.6647    0.5903 C   0  0  2  0  0  0  0  0  0  0  0  0
    1.5881   -1.1602   -0.5841 C   0  0  2  0  0  0  0  0  0  0  0  0
    2.5210   -2.2267   -1.0343 N   0  3  0  0  0  0  0  0  0  0  0  0
    2.3354    0.1226   -0.2052 C   0  0  1  0  0  0  0  0  0  0  0  0
    1.4121    1.1973   -0.0914 O   0  0  0  0  0  0  0  0  0  0  0  0
    3.0913   -0.0476    1.1161 C   0  0  2  0  0  0  0  0  0  0  0  0
    4.1711   -0.9586    0.9537 O   0  0  0  0  0  0  0  0  0  0  0  0
    2.1365   -0.5583    2.1915 C   0  0  1  0  0  0  0  0  0  0  0  0
    1.5362   -1.7950    1.7599 O   0  0  0  0  0  0  0  0  0  0  0  0
    2.8160   -0.8081    3.5264 C   0  0  0  0  0  0  0  0  0  0  0  0
    3.5216   -2.1086    3.5523 N   0  3  0  0  0  0  0  0  0  0  0  0
   -8.8774   -6.0013   -1.1066 C   0  0  0  0  0  0  0  0  0  0  0  0
   -7.8246   -4.2441    1.9806 C   0  0  2  0  0  0  0  0  0  0  0  0
   -8.1379   -5.2978    3.0401 C   0  0  2  0  0  0  0  0  0  0  0  0
   -7.3852   -5.0132    4.2851 N   0  3  0  0  0  0  0  0  0  0  0  0
   -7.7632   -6.6827    2.5297 C   0  0  1  0  0  0  0  0  0  0  0  0
   -8.1305   -7.6599    3.4913 O   0  0  0  0  0  0  0  0  0  0  0  0
   -8.4793   -6.9512    1.2079 C   0  0  2  0  0  0  0  0  0  0  0  0
   -8.0812   -8.2140    0.6899 O   0  0  0  0  0  0  0  0  0  0  0  0
   -8.0790   -6.7518   -2.1028 N   0  3  0  0  0  0  0  0  0  0  0  0
   -8.1307   -5.8510    0.2073 C   0  0  2  0  0  0  0  0  0  0  0  0
   -8.4724   -4.5598    0.7510 O   0  0  0  0  0  0  0  0  0  0  0  0
   -4.7681   -0.2651    1.2290 C   0  0  2  0  0  0  0  0  0  0  0  0
   -4.2091    1.0756    1.5176 N   0  3  0  0  0  0  0  0  0  0  0  0
   -6.1823   -0.3714    1.7885 C   0  0  0  0  0  0  0  0  0  0  0  0
   -6.7692   -1.7463    1.5010 C   0  0  2  0  0  0  0  0  0  0  0  0
   -8.1145   -1.7820    2.0569 N   0  3  0  0  0  0  0  0  0  0  0  0
   -5.8912   -2.8255    2.1301 C   0  0  1  0  0  0  0  0  0  0  0  0
   -6.4379   -4.1244    1.8296 O   0  0  0  0  0  0  0  0  0  0  0  0
   -4.4552   -2.7397    1.5945 C   0  0  2  0  0  0  0  0  0  0  0  0
   -3.6313   -3.7000    2.2829 O   0  0  0  0  0  0  0  0  0  0  0  0
   -3.8614   -1.3497    1.8085 C   0  0  1  0  0  0  0  0  0  0  0  0
   -2.5838   -1.2793    1.1894 O   0  0  0  0  0  0  0  0  0  0  0  0
  1  2  1  0  0  0  0
  3  2  1  1  0  0  0
  3  5  1  0  0  0  0
  3  4  1  0  0  0  0
  4  9  1  0  0  0  0
  5  7  1  0  0  0  0
  5  6  1  6  0  0  0
  7  9  1  0  0  0  0
  7  8  1  6  0  0  0
  9 40  1  1  0  0  0
 10  6  1  6  0  0  0
 10 11  1  0  0  0  0
 10 18  1  0  0  0  0
 11 13  1  0  0  0  0
 11 12  1  1  0  0  0
 13 15  1  0  0  0  0
 13 14  1  1  0  0  0
 15 17  1  0  0  0  0
 15 16  1  6  0  0  0
 17 19  1  1  0  0  0
 17 18  1  0  0  0  0
 19 20  1  0  0  0  0
 21 29  1  0  0  0  0
 22 23  1  0  0  0  0
 22 31  1  0  0  0  0
 22 38  1  6  0  0  0
 23 25  1  0  0  0  0
 23 24  1  1  0  0  0
 25 27  1  0  0  0  0
 25 26  1  1  0  0  0
 27 30  1  0  0  0  0
 27 28  1  6  0  0  0
 30 21  1  6  0  0  0
 30 31  1  0  0  0  0
 32 34  1  0  0  0  0
 32 41  1  0  0  0  0
 32 33  1  1  0  0  0
 34 35  1  0  0  0  0
 35 37  1  0  0  0  0
 35 36  1  1  0  0  0
 37 39  1  0  0  0  0
 37 38  1  6  0  0  0
 39 41  1  0  0  0  0
 39 40  1  1  0  0  0
 41 42  1  6  0  0  0
M  CHG  6  12   1  20   1  24   1  29   1  33   1  36   1
M  END
>  <CHROM.1>
-60.11214926,155.30720263,-112.63637904,-162.69922176,57.59106964,158.11504372
-74.41219407,56.24776321,155.55815701,-80.60911731,-44.54008966,-93.86794416
155.21283190,-118.86027674,66.22799964,72.18068850,174.66822241,-23.14648222
29.51108789,-44.40754211,128.48183336,80.53525813,-3.02265108,-3.21127862
1.36685033,0.38580576,0.01532146,-0.00299282

>  <Name>
1NEM.B

>  <RI>
0

>  <Rbt.Current_Directory>
/home/itssahil/PROJECTS/Mol_Feturizer/New_Systems/rnas/1nem

>  <Rbt.Executable>
rbdock ($Id: //depot/dev/client3/rdock/2013.1/src/exe/rbdock.cxx#4 $)

>  <Rbt.Library>
libRbt.so (2013.1, Build901 2013/11/27)

>  <Rbt.Parameter_File>
/export/apps/rDock/src/rDock_2013.1_src/data/scripts/dock_solv.prm

>  <Rbt.Receptor>
prm/blind_docking_80.prm

>  <SCORE>
20.6184

>  <SCORE.INTER>
-7.94828

>  <SCORE.INTER.CONST>
1

>  <SCORE.INTER.POLAR>
-6.22549

>  <SCORE.INTER.ROT>
9

>  <SCORE.INTER.SOLV>
55.3128

>  <SCORE.INTER.VDW>
-12.5848

>  <SCORE.INTER.norm>
-0.189245

>  <SCORE.INTRA>
22.5739

>  <SCORE.INTRA.DIHEDRAL>
21.8974

>  <SCORE.INTRA.DIHEDRAL.0>
22.4324

>  <SCORE.INTRA.POLAR>
-0.762361

>  <SCORE.INTRA.POLAR.0>
-1.83749

>  <SCORE.INTRA.REPUL>
0

>  <SCORE.INTRA.REPUL.0>
0

>  <SCORE.INTRA.SOLV>
2.4789

>  <SCORE.INTRA.SOLV.lig_0>
-160.638

>  <SCORE.INTRA.VDW>
12.9778

>  <SCORE.INTRA.VDW.0>
-7.61953

>  <SCORE.INTRA.norm>
0.537475

>  <SCORE.RESTR>
5.99274

>  <SCORE.RESTR.CAVITY>
5.99274

>  <SCORE.RESTR.norm>
0.142684

>  <SCORE.SYSTEM>
0

>  <SCORE.SYSTEM.CONST>
0

>  <SCORE.SYSTEM.DIHEDRAL>
0

>  <SCORE.SYSTEM.SOLV>
0

>  <SCORE.SYSTEM.norm>
0

>  <SCORE.heavy>
42

>  <SCORE.norm>
0.490914

>  <RMSD>
5.497

$$$$
1NEM.B
 OpenBabel11021811403D
libRbt.so/2013.1/901 2013/11/27
 42 45  0  0  0  0  0  0  0  0999 V2000
    1.7904   -4.9914    1.8734 O   0  0  0  0  0  0  0  0  0  0  0  0
    0.7456   -5.8270    1.3712 C   0  0  0  0  0  0  0  0  0  0  0  0
   -0.4854   -5.0411    0.9218 C   0  0  1  0  0  0  0  0  0  0  0  0
   -1.6726   -5.6111    1.4649 O   0  0  0  0  0  0  0  0  0  0  0  0
   -0.5349   -3.6036    1.4144 C   0  0  1  0  0  0  0  0  0  0  0  0
    0.4474   -2.8690    0.6803 O   0  0  0  0  0  0  0  0  0  0  0  0
   -1.9863   -3.2945    1.0987 C   0  0  1  0  0  0  0  0  0  0  0  0
   -2.2252   -3.2023   -0.3097 O   0  0  0  0  0  0  0  0  0  0  0  0
   -2.6281   -4.5684    1.6609 C   0  0  2  0  0  0  0  0  0  0  0  0
    0.9363   -1.7091    1.2910 C   0  0  2  0  0  0  0  0  0  0  0  0
    1.6123   -0.8266    0.2329 C   0  0  2  0  0  0  0  0  0  0  0  0
    2.6322   -1.6121   -0.5109 N   0  3  0  0  0  0  0  0  0  0  0  0
    2.2193    0.4256    0.8741 C   0  0  1  0  0  0  0  0  0  0  0  0
    1.1794    1.2992    1.2937 O   0  0  0  0  0  0  0  0  0  0  0  0
    3.0996    0.0612    2.0736 C   0  0  2  0  0  0  0  0  0  0  0  0
    4.2690   -0.6210    1.6388 O   0  0  0  0  0  0  0  0  0  0  0  0
    2.3119   -0.8193    3.0396 C   0  0  1  0  0  0  0  0  0  0  0  0
    1.8399   -1.9936    2.3511 O   0  0  0  0  0  0  0  0  0  0  0  0
    3.1280   -1.2742    4.2367 C   0  0  0  0  0  0  0  0  0  0  0  0
    4.2822   -2.1081    3.8337 N   0  3  0  0  0  0  0  0  0  0  0  0
   -7.2004   -6.3502    3.0411 C   0  0  0  0  0  0  0  0  0  0  0  0
   -5.0512   -4.3128    0.8147 C   0  0  2  0  0  0  0  0  0  0  0  0
   -6.0094   -4.0284   -0.3394 C   0  0  2  0  0  0  0  0  0  0  0  0
   -5.5371   -2.8620   -1.1230 N   0  3  0  0  0  0  0  0  0  0  0  0
   -7.4062   -3.7438    0.1963 C   0  0  1  0  0  0  0  0  0  0  0  0
   -8.3031   -3.5579   -0.8880 O   0  0  0  0  0  0  0  0  0  0  0  0
   -7.8677   -4.9113    1.0657 C   0  0  2  0  0  0  0  0  0  0  0  0
   -9.1424   -4.6231    1.6258 O   0  0  0  0  0  0  0  0  0  0  0  0
   -6.0780   -6.7243    3.9318 N   0  3  0  0  0  0  0  0  0  0  0  0
   -6.8544   -5.1447    2.1845 C   0  0  2  0  0  0  0  0  0  0  0  0
   -5.5444   -5.3747    1.6272 O   0  0  0  0  0  0  0  0  0  0  0  0
   -4.3637   -2.2591    5.6790 C   0  0  2  0  0  0  0  0  0  0  0  0
   -4.4368   -2.3878    7.1525 N   0  3  0  0  0  0  0  0  0  0  0  0
   -5.7682   -2.2520    5.0862 C   0  0  0  0  0  0  0  0  0  0  0  0
   -5.7084   -2.1224    3.5706 C   0  0  2  0  0  0  0  0  0  0  0  0
   -7.0754   -2.1202    3.0690 N   0  3  0  0  0  0  0  0  0  0  0  0
   -4.9144   -3.2865    2.9827 C   0  0  1  0  0  0  0  0  0  0  0  0
   -4.8385   -3.1413    1.5511 O   0  0  0  0  0  0  0  0  0  0  0  0
   -3.4958   -3.3284    3.5674 C   0  0  2  0  0  0  0  0  0  0  0  0
   -2.8104   -4.4949    3.0732 O   0  0  0  0  0  0  0  0  0  0  0  0
   -3.5218   -3.3912    5.0925 C   0  0  1  0  0  0  0  0  0  0  0  0
   -2.1946   -3.3028    5.5937 O   0  0  0  0  0  0  0  0  0  0  0  0
  1  2  1  0  0  0  0
  3  2  1  1  0  0  0
  3  5  1  0  0  0  0
  3  4  1  0  0  0  0
  4  9  1  0  0  0  0
  5  7  1  0  0  0  0
  5  6  1  6  0  0  0
  7  9  1  0  0  0  0
  7  8  1  6  0  0  0
  9 40  1  1  0  0  0
 10  6  1  6  0  0  0
 10 11  1  0  0  0  0
 10 18  1  0  0  0  0
 11 13  1  0  0  0  0
 11 12  1  1  0  0  0
 13 15  1  0  0  0  0
 13 14  1  1  0  0  0
 15 17  1  0  0  0  0
 15 16  1  6  0  0  0
 17 19  1  1  0  0  0
 17 18  1  0  0  0  0
 19 20  1  0  0  0  0
 21 29  1  0  0  0  0
 22 23  1  0  0  0  0
 22 31  1  0  0  0  0
 22 38  1  1  0  0  0
 23 25  1  0  0  0  0
 23 24  1  1  0  0  0
 25 27  1  0  0  0  0
 25 26  1  6  0  0  0
 27 30  1  0  0  0  0
 27 28  1  1  0  0  0
 30 21  1  6  0  0  0
 30 31  1  0  0  0  0
 32 34  1  0  0  0  0
 32 41  1  0  0  0  0
 32 33  1  1  0  0  0
 34 35  1  0  0  0  0
 35 37  1  0  0  0  0
 35 36  1  6  0  0  0
 37 39  1  0  0  0  0
 37 38  1  6  0  0  0
 39 41  1  0  0  0  0
 39 40  1  6  0  0  0
 41 42  1  1  0  0  0
M  CHG  6  12   1  20   1  24   1  29   1  33   1  36   1
M  END
>  <CHROM.1>
178.89299739,-131.55308165,-156.02085411,-162.23852121,56.28290001,166.51871332
50.00333899,-52.81431611,70.02589562,-62.23632025,17.02170303,168.28935107
-43.02539653,134.12235495,-168.86588435,72.87348179,-40.44891015,-143.24110688
-50.56855085,-136.58472581,61.46641212,80.09761917,-2.43380718,-3.14467772
2.11662884,-0.00612311,-0.28926344,-1.66292253

>  <Name>
1NEM.B

>  <RI>
0

>  <Rbt.Current_Directory>
/home/itssahil/PROJECTS/Mol_Feturizer/New_Systems/rnas/1nem

>  <Rbt.Executable>
rbdock ($Id: //depot/dev/client3/rdock/2013.1/src/exe/rbdock.cxx#4 $)

>  <Rbt.Library>
libRbt.so (2013.1, Build901 2013/11/27)

>  <Rbt.Parameter_File>
/export/apps/rDock/src/rDock_2013.1_src/data/scripts/dock_solv.prm

>  <Rbt.Receptor>
prm/blind_docking_20.prm

>  <SCORE>
11.9847

>  <SCORE.INTER>
-14.7721

>  <SCORE.INTER.CONST>
1

>  <SCORE.INTER.POLAR>
-4.32079

>  <SCORE.INTER.ROT>
9

>  <SCORE.INTER.SOLV>
50.248

>  <SCORE.INTER.VDW>
-21.7948

>  <SCORE.INTER.norm>
-0.351716

>  <SCORE.INTRA>
23.0483

>  <SCORE.INTRA.DIHEDRAL>
12.3605

>  <SCORE.INTRA.DIHEDRAL.0>
22.4324

>  <SCORE.INTRA.POLAR>
0.263699

>  <SCORE.INTRA.POLAR.0>
-1.83749

>  <SCORE.INTRA.REPUL>
1

>  <SCORE.INTRA.REPUL.0>
0

>  <SCORE.INTRA.SOLV>
3.94908

>  <SCORE.INTRA.SOLV.lig_0>
-160.638

>  <SCORE.INTRA.VDW>
8.99689

>  <SCORE.INTRA.VDW.0>
-7.61953

>  <SCORE.INTRA.norm>
0.548768

>  <SCORE.RESTR>
3.70849

>  <SCORE.RESTR.CAVITY>
3.70849

>  <SCORE.RESTR.norm>
0.0882973

>  <SCORE.SYSTEM>
0

>  <SCORE.SYSTEM.CONST>
0

>  <SCORE.SYSTEM.DIHEDRAL>
0

>  <SCORE.SYSTEM.SOLV>
0

>  <SCORE.SYSTEM.norm>
0

>  <SCORE.heavy>
42

>  <SCORE.norm>
0.285349

>  <RMSD>
5.499

$$$$
1NEM.B
 OpenBabel11021811403D
libRbt.so/2013.1/901 2013/11/27
 42 45  0  0  0  0  0  0  0  0999 V2000
   -0.2767   -6.5859    1.9106 O   0  0  0  0  0  0  0  0  0  0  0  0
   -0.1411   -5.7272    0.7765 C   0  0  0  0  0  0  0  0  0  0  0  0
   -0.7858   -4.3573    0.9828 C   0  0  1  0  0  0  0  0  0  0  0  0
   -2.1268   -4.4961    1.4431 O   0  0  0  0  0  0  0  0  0  0  0  0
   -0.1357   -3.5062    2.0618 C   0  0  1  0  0  0  0  0  0  0  0  0
    1.1212   -3.0579    1.5495 O   0  0  0  0  0  0  0  0  0  0  0  0
   -1.2171   -2.4534    2.2172 C   0  0  1  0  0  0  0  0  0  0  0  0
   -1.2995   -1.5910    1.0776 O   0  0  0  0  0  0  0  0  0  0  0  0
   -2.4406   -3.3760    2.2710 C   0  0  2  0  0  0  0  0  0  0  0  0
    1.5475   -1.7951    1.9746 C   0  0  2  0  0  0  0  0  0  0  0  0
    2.1598   -1.0411    0.7864 C   0  0  2  0  0  0  0  0  0  0  0  0
    3.2163   -1.8686    0.1466 N   0  3  0  0  0  0  0  0  0  0  0  0
    2.6988    0.3241    1.2261 C   0  0  1  0  0  0  0  0  0  0  0  0
    1.6138    1.1898    1.5327 O   0  0  0  0  0  0  0  0  0  0  0  0
    3.6111    0.1905    2.4493 C   0  0  2  0  0  0  0  0  0  0  0  0
    4.8141   -0.4811    2.0972 O   0  0  0  0  0  0  0  0  0  0  0  0
    2.8863   -0.5814    3.5483 C   0  0  1  0  0  0  0  0  0  0  0  0
    2.4769   -1.8690    3.0479 O   0  0  0  0  0  0  0  0  0  0  0  0
    3.7398   -0.8084    4.7836 C   0  0  0  0  0  0  0  0  0  0  0  0
    3.7566    0.3772    5.6689 N   0  3  0  0  0  0  0  0  0  0  0  0
   -4.9303   -0.6319    3.8848 C   0  0  0  0  0  0  0  0  0  0  0  0
   -5.8473   -3.3691    1.5623 C   0  0  2  0  0  0  0  0  0  0  0  0
   -5.6637   -2.6823    0.2112 C   0  0  2  0  0  0  0  0  0  0  0  0
   -5.5238   -3.6935   -0.8637 N   0  3  0  0  0  0  0  0  0  0  0  0
   -4.4241   -1.7981    0.2361 C   0  0  1  0  0  0  0  0  0  0  0  0
   -4.3080   -1.1061   -0.9977 O   0  0  0  0  0  0  0  0  0  0  0  0
   -4.5298   -0.8023    1.3890 C   0  0  2  0  0  0  0  0  0  0  0  0
   -3.3455   -0.0190    1.4619 O   0  0  0  0  0  0  0  0  0  0  0  0
   -5.9450    0.4066    3.5937 N   0  3  0  0  0  0  0  0  0  0  0  0
   -4.7273   -1.5606    2.7002 C   0  0  2  0  0  0  0  0  0  0  0  0
   -5.8914   -2.4073    2.6130 O   0  0  0  0  0  0  0  0  0  0  0  0
   -5.4329   -4.8551    5.9238 C   0  0  2  0  0  0  0  0  0  0  0  0
   -5.4062   -5.4699    7.2709 N   0  3  0  0  0  0  0  0  0  0  0  0
   -6.1817   -5.7606    4.9525 C   0  0  0  0  0  0  0  0  0  0  0  0
   -6.2152   -5.1419    3.5621 C   0  0  2  0  0  0  0  0  0  0  0  0
   -6.9422   -6.0507    2.6870 N   0  3  0  0  0  0  0  0  0  0  0  0
   -4.7904   -4.9240    3.0583 C   0  0  1  0  0  0  0  0  0  0  0  0
   -4.8307   -4.3124    1.7542 O   0  0  0  0  0  0  0  0  0  0  0  0
   -4.0045   -4.0226    4.0207 C   0  0  2  0  0  0  0  0  0  0  0  0
   -2.6391   -3.9227    3.5729 O   0  0  0  0  0  0  0  0  0  0  0  0
   -4.0092   -4.5834    5.4406 C   0  0  1  0  0  0  0  0  0  0  0  0
   -3.3799   -3.6588    6.3178 O   0  0  0  0  0  0  0  0  0  0  0  0
  1  2  1  0  0  0  0
  3  2  1  1  0  0  0
  3  5  1  0  0  0  0
  3  4  1  0  0  0  0
  4  9  1  0  0  0  0
  5  7  1  0  0  0  0
  5  6  1  6  0  0  0
  7  9  1  0  0  0  0
  7  8  1  6  0  0  0
  9 40  1  1  0  0  0
 10  6  1  6  0  0  0
 10 11  1  0  0  0  0
 10 18  1  0  0  0  0
 11 13  1  0  0  0  0
 11 12  1  1  0  0  0
 13 15  1  0  0  0  0
 13 14  1  1  0  0  0
 15 17  1  0  0  0  0
 15 16  1  6  0  0  0
 17 19  1  1  0  0  0
 17 18  1  0  0  0  0
 19 20  1  0  0  0  0
 21 29  1  0  0  0  0
 22 23  1  0  0  0  0
 22 31  1  0  0  0  0
 22 38  1  1  0  0  0
 23 25  1  0  0  0  0
 23 24  1  6  0  0  0
 25 27  1  0  0  0  0
 25 26  1  6  0  0  0
 27 30  1  0  0  0  0
 27 28  1  1  0  0  0
 30 21  1  1  0  0  0
 30 31  1  0  0  0  0
 32 34  1  0  0  0  0
 32 41  1  0  0  0  0
 32 33  1  1  0  0  0
 34 35  1  0  0  0  0
 35 37  1  0  0  0  0
 35 36  1  6  0  0  0
 37 39  1  0  0  0  0
 37 38  1  6  0  0  0
 39 41  1  0  0  0  0
 39 40  1  6  0  0  0
 41 42  1  1  0  0  0
M  CHG  6  12   1  20   1  24   1  29   1  33   1  36   1
M  END
>  <CHROM.1>
-169.21531835,-50.90809949,147.20649508,-138.74729071,63.86662825,-104.67688725
47.73033825,-164.17614226,177.65586194,81.43083274,92.52606457,48.53038024
-64.12350584,172.95962916,-127.05245120,59.60517977,-29.72271760,-67.34161561
157.13753273,37.02102188,60.04861760,-170.63938660,-1.97180196,-2.64950346
2.51523968,-0.26103982,0.26358376,2.12038694

>  <Name>
1NEM.B

>  <RI>
0

>  <Rbt.Current_Directory>
/home/itssahil/PROJECTS/Mol_Feturizer/New_Systems/rnas/1nem

>  <Rbt.Executable>
rbdock ($Id: //depot/dev/client3/rdock/2013.1/src/exe/rbdock.cxx#4 $)

>  <Rbt.Library>
libRbt.so (2013.1, Build901 2013/11/27)

>  <Rbt.Parameter_File>
/export/apps/rDock/src/rDock_2013.1_src/data/scripts/dock_solv.prm

>  <Rbt.Receptor>
prm/blind_docking_100.prm

>  <SCORE>
-0.909524

>  <SCORE.INTER>
-14.263

>  <SCORE.INTER.CONST>
1

>  <SCORE.INTER.POLAR>
-6.1126

>  <SCORE.INTER.ROT>
9

>  <SCORE.INTER.SOLV>
43.4444

>  <SCORE.INTER.VDW>
-13.2148

>  <SCORE.INTER.norm>
-0.339596

>  <SCORE.INTRA>
11.1832

>  <SCORE.INTRA.DIHEDRAL>
11.6633

>  <SCORE.INTRA.DIHEDRAL.0>
22.4324

>  <SCORE.INTRA.POLAR>
-0.053694

>  <SCORE.INTRA.POLAR.0>
-1.83749

>  <SCORE.INTRA.REPUL>
0.154174

>  <SCORE.INTRA.REPUL.0>
0

>  <SCORE.INTRA.SOLV>
-4.66941

>  <SCORE.INTRA.SOLV.lig_0>
-160.638

>  <SCORE.INTRA.VDW>
7.09801

>  <SCORE.INTRA.VDW.0>
-7.61953

>  <SCORE.INTRA.norm>
0.266268

>  <SCORE.RESTR>
2.17027

>  <SCORE.RESTR.CAVITY>
2.17027

>  <SCORE.RESTR.norm>
0.0516731

>  <SCORE.SYSTEM>
0

>  <SCORE.SYSTEM.CONST>
0

>  <SCORE.SYSTEM.DIHEDRAL>
0

>  <SCORE.SYSTEM.SOLV>
0

>  <SCORE.SYSTEM.norm>
0

>  <SCORE.heavy>
42

>  <SCORE.norm>
-0.0216553

>  <RMSD>
5.542

$$$$
1NEM.B
 OpenBabel11021811403D
libRbt.so/2013.1/901 2013/11/27
 42 45  0  0  0  0  0  0  0  0999 V2000
    1.8719   -4.0717    1.0330 O   0  0  0  0  0  0  0  0  0  0  0  0
    0.7772   -4.7496    1.6529 C   0  0  0  0  0  0  0  0  0  0  0  0
   -0.5665   -4.4450    0.9923 C   0  0  1  0  0  0  0  0  0  0  0  0
   -1.5842   -5.3012    1.5030 O   0  0  0  0  0  0  0  0  0  0  0  0
   -1.1110   -3.0537    1.2740 C   0  0  1  0  0  0  0  0  0  0  0  0
   -0.3126   -2.1273    0.5341 O   0  0  0  0  0  0  0  0  0  0  0  0
   -2.5356   -3.2546    0.7921 C   0  0  1  0  0  0  0  0  0  0  0  0
   -2.6106   -3.3906   -0.6309 O   0  0  0  0  0  0  0  0  0  0  0  0
   -2.8273   -4.5998    1.4675 C   0  0  2  0  0  0  0  0  0  0  0  0
    0.4965   -1.2693    1.2868 C   0  0  2  0  0  0  0  0  0  0  0  0
    1.2244   -0.3025    0.3429 C   0  0  2  0  0  0  0  0  0  0  0  0
    1.9428   -1.0639   -0.7128 N   0  3  0  0  0  0  0  0  0  0  0  0
    2.1722    0.6129    1.1248 C   0  0  1  0  0  0  0  0  0  0  0  0
    1.4158    1.5413    1.8907 O   0  0  0  0  0  0  0  0  0  0  0  0
    3.0831   -0.1971    2.0524 C   0  0  2  0  0  0  0  0  0  0  0  0
    4.0064   -0.9649    1.2908 O   0  0  0  0  0  0  0  0  0  0  0  0
    2.2368   -1.1178    2.9270 C   0  0  1  0  0  0  0  0  0  0  0  0
    1.4315   -1.9738    2.0934 O   0  0  0  0  0  0  0  0  0  0  0  0
    3.0648   -2.0009    3.8438 C   0  0  0  0  0  0  0  0  0  0  0  0
    3.2772   -3.3480    3.2694 N   0  3  0  0  0  0  0  0  0  0  0  0
   -5.6171   -6.7533    3.7373 C   0  0  0  0  0  0  0  0  0  0  0  0
   -5.5916   -4.5816    0.7356 C   0  0  2  0  0  0  0  0  0  0  0  0
   -7.0537   -4.6603    0.3032 C   0  0  2  0  0  0  0  0  0  0  0  0
   -7.3871   -3.5240   -0.5886 N   0  3  0  0  0  0  0  0  0  0  0  0
   -7.9643   -4.6276    1.5235 C   0  0  1  0  0  0  0  0  0  0  0  0
   -9.3147   -4.7795    1.1139 O   0  0  0  0  0  0  0  0  0  0  0  0
   -7.5760   -5.7520    2.4810 C   0  0  2  0  0  0  0  0  0  0  0  0
   -8.3759   -5.6858    3.6546 O   0  0  0  0  0  0  0  0  0  0  0  0
   -6.3647   -8.0037    3.4716 N   0  3  0  0  0  0  0  0  0  0  0  0
   -6.1012   -5.6161    2.8546 C   0  0  2  0  0  0  0  0  0  0  0  0
   -5.2860   -5.6178    1.6650 O   0  0  0  0  0  0  0  0  0  0  0  0
   -4.5477   -1.7850    5.1445 C   0  0  2  0  0  0  0  0  0  0  0  0
   -4.5170   -1.6736    6.6210 N   0  3  0  0  0  0  0  0  0  0  0  0
   -5.9907   -1.8464    4.6564 C   0  0  0  0  0  0  0  0  0  0  0  0
   -6.0376   -1.9635    3.1394 C   0  0  2  0  0  0  0  0  0  0  0  0
   -7.4366   -2.0158    2.7393 N   0  3  0  0  0  0  0  0  0  0  0  0
   -5.2965   -3.2220    2.6944 C   0  0  1  0  0  0  0  0  0  0  0  0
   -5.3212   -3.3105    1.2564 O   0  0  0  0  0  0  0  0  0  0  0  0
   -3.8403   -3.1965    3.1792 C   0  0  2  0  0  0  0  0  0  0  0  0
   -3.2008   -4.4402    2.8343 O   0  0  0  0  0  0  0  0  0  0  0  0
   -3.7585   -3.0126    4.6925 C   0  0  1  0  0  0  0  0  0  0  0  0
   -2.3984   -2.8702    5.0802 O   0  0  0  0  0  0  0  0  0  0  0  0
  1  2  1  0  0  0  0
  3  2  1  1  0  0  0
  3  5  1  0  0  0  0
  3  4  1  0  0  0  0
  4  9  1  0  0  0  0
  5  7  1  0  0  0  0
  5  6  1  6  0  0  0
  7  9  1  0  0  0  0
  7  8  1  6  0  0  0
  9 40  1  1  0  0  0
 10  6  1  6  0  0  0
 10 11  1  0  0  0  0
 10 18  1  0  0  0  0
 11 13  1  0  0  0  0
 11 12  1  6  0  0  0
 13 15  1  0  0  0  0
 13 14  1  1  0  0  0
 15 17  1  0  0  0  0
 15 16  1  6  0  0  0
 17 19  1  6  0  0  0
 17 18  1  0  0  0  0
 19 20  1  0  0  0  0
 21 29  1  0  0  0  0
 22 23  1  0  0  0  0
 22 31  1  0  0  0  0
 22 38  1  1  0  0  0
 23 25  1  0  0  0  0
 23 24  1  6  0  0  0
 25 27  1  0  0  0  0
 25 26  1  6  0  0  0
 27 30  1  0  0  0  0
 27 28  1  1  0  0  0
 30 21  1  1  0  0  0
 30 31  1  0  0  0  0
 32 34  1  0  0  0  0
 32 41  1  0  0  0  0
 32 33  1  1  0  0  0
 34 35  1  0  0  0  0
 35 37  1  0  0  0  0
 35 36  1  1  0  0  0
 37 39  1  0  0  0  0
 37 38  1  6  0  0  0
 39 41  1  0  0  0  0
 39 40  1  1  0  0  0
 41 42  1  6  0  0  0
M  CHG  6  12   1  20   1  24   1  29   1  33   1  36   1
M  END
>  <CHROM.1>
45.39195608,170.68708629,-112.11203695,-177.14840520,176.23118542,142.81812436
-74.59704422,-170.79367699,68.17814874,-96.73126315,108.40636122,29.58882889
46.65225174,100.65776030,-164.08795416,52.48076700,-63.64818676,-75.16816275
69.52751158,-136.73077929,76.14877266,-83.69924698,-2.69435278,-3.20022607
2.15714169,-0.11534639,-0.33690474,-2.14492868

>  <Name>
1NEM.B

>  <RI>
0

>  <Rbt.Current_Directory>
/home/itssahil/PROJECTS/Mol_Feturizer/New_Systems/rnas/1nem

>  <Rbt.Executable>
rbdock ($Id: //depot/dev/client3/rdock/2013.1/src/exe/rbdock.cxx#4 $)

>  <Rbt.Library>
libRbt.so (2013.1, Build901 2013/11/27)

>  <Rbt.Parameter_File>
/export/apps/rDock/src/rDock_2013.1_src/data/scripts/dock_solv.prm

>  <Rbt.Receptor>
prm/blind_docking_60.prm

>  <SCORE>
14.4925

>  <SCORE.INTER>
-15.9821

>  <SCORE.INTER.CONST>
1

>  <SCORE.INTER.POLAR>
-5.5018

>  <SCORE.INTER.ROT>
9

>  <SCORE.INTER.SOLV>
55.7897

>  <SCORE.INTER.VDW>
-20.5119

>  <SCORE.INTER.norm>
-0.380525

>  <SCORE.INTRA>
26.744

>  <SCORE.INTRA.DIHEDRAL>
18.8464

>  <SCORE.INTRA.DIHEDRAL.0>
22.4324

>  <SCORE.INTRA.POLAR>
-0.159426

>  <SCORE.INTRA.POLAR.0>
-1.83749

>  <SCORE.INTRA.REPUL>
0.170841

>  <SCORE.INTRA.REPUL.0>
0

>  <SCORE.INTRA.SOLV>
8.4611

>  <SCORE.INTRA.SOLV.lig_0>
-160.638

>  <SCORE.INTRA.VDW>
12.7781

>  <SCORE.INTRA.VDW.0>
-7.61953

>  <SCORE.INTRA.norm>
0.636763

>  <SCORE.RESTR>
3.73055

>  <SCORE.RESTR.CAVITY>
3.73055

>  <SCORE.RESTR.norm>
0.0888226

>  <SCORE.SYSTEM>
0

>  <SCORE.SYSTEM.CONST>
0

>  <SCORE.SYSTEM.DIHEDRAL>
0

>  <SCORE.SYSTEM.SOLV>
0

>  <SCORE.SYSTEM.norm>
0

>  <SCORE.heavy>
42

>  <SCORE.norm>
0.34506

>  <RMSD>
5.543

$$$$
1NEM.B
 OpenBabel11021811403D
libRbt.so/2013.1/901 2013/11/27
 42 45  0  0  0  0  0  0  0  0999 V2000
    0.0862    1.9483   -4.0763 O   0  0  0  0  0  0  0  0  0  0  0  0
    1.1996    1.1973   -3.5880 C   0  0  0  0  0  0  0  0  0  0  0  0
    1.4123    1.3528   -2.0829 C   0  0  1  0  0  0  0  0  0  0  0  0
    0.2530    0.9400   -1.3652 O   0  0  0  0  0  0  0  0  0  0  0  0
    2.5094    0.4743   -1.5031 C   0  0  1  0  0  0  0  0  0  0  0  0
    3.7598    1.0148   -1.9363 O   0  0  0  0  0  0  0  0  0  0  0  0
    2.1809    0.6260   -0.0297 C   0  0  1  0  0  0  0  0  0  0  0  0
    2.4750    1.9397    0.4570 O   0  0  0  0  0  0  0  0  0  0  0  0
    0.6637    0.4168   -0.1019 C   0  0  2  0  0  0  0  0  0  0  0  0
    3.9980    2.3557   -1.6161 C   0  0  2  0  0  0  0  0  0  0  0  0
    4.4764    3.0985   -2.8710 C   0  0  2  0  0  0  0  0  0  0  0  0
    5.6366    2.3896   -3.4724 N   0  3  0  0  0  0  0  0  0  0  0  0
    4.8110    4.5580   -2.5466 C   0  0  1  0  0  0  0  0  0  0  0  0
    3.6129    5.2747   -2.2795 O   0  0  0  0  0  0  0  0  0  0  0  0
    5.7479    4.6550   -1.3386 C   0  0  2  0  0  0  0  0  0  0  0  0
    7.0333    4.1437   -1.6681 O   0  0  0  0  0  0  0  0  0  0  0  0
    5.1599    3.8712   -0.1687 C   0  0  1  0  0  0  0  0  0  0  0  0
    4.9412    2.5026   -0.5625 O   0  0  0  0  0  0  0  0  0  0  0  0
    6.0528    3.8684    1.0596 C   0  0  0  0  0  0  0  0  0  0  0  0
    5.3055    3.5078    2.2849 N   0  3  0  0  0  0  0  0  0  0  0  0
   -5.8778   -2.4077    2.3950 C   0  0  0  0  0  0  0  0  0  0  0  0
   -2.9582   -0.8727    0.7078 C   0  0  2  0  0  0  0  0  0  0  0  0
   -3.3949    0.5885    0.6359 C   0  0  2  0  0  0  0  0  0  0  0  0
   -2.2187    1.4659    0.4253 N   0  3  0  0  0  0  0  0  0  0  0  0
   -4.0991    0.9899    1.9251 C   0  0  1  0  0  0  0  0  0  0  0  0
   -4.5681    2.3250    1.8155 O   0  0  0  0  0  0  0  0  0  0  0  0
   -5.2678    0.0422    2.1853 C   0  0  2  0  0  0  0  0  0  0  0  0
   -5.8881    0.3673    3.4227 O   0  0  0  0  0  0  0  0  0  0  0  0
   -6.6760   -2.1380    3.6128 N   0  3  0  0  0  0  0  0  0  0  0  0
   -4.7569   -1.3967    2.2278 C   0  0  2  0  0  0  0  0  0  0  0  0
   -4.0696   -1.7153    1.0007 O   0  0  0  0  0  0  0  0  0  0  0  0
    1.2921   -3.7161    2.2406 C   0  0  2  0  0  0  0  0  0  0  0  0
    2.1864   -4.8835    2.0658 N   0  3  0  0  0  0  0  0  0  0  0  0
   -0.1245   -4.1866    2.5505 C   0  0  0  0  0  0  0  0  0  0  0  0
   -1.0561   -2.9962    2.7306 C   0  0  2  0  0  0  0  0  0  0  0  0
   -2.3860   -3.5112    3.0244 N   0  3  0  0  0  0  0  0  0  0  0  0
   -1.0679   -2.1515    1.4587 C   0  0  1  0  0  0  0  0  0  0  0  0
   -1.9296   -1.0121    1.6473 O   0  0  0  0  0  0  0  0  0  0  0  0
    0.3476   -1.6691    1.1124 C   0  0  2  0  0  0  0  0  0  0  0  0
    0.3177   -0.9658   -0.1443 O   0  0  0  0  0  0  0  0  0  0  0  0
    1.3219   -2.8380    0.9906 C   0  0  1  0  0  0  0  0  0  0  0  0
    2.6384   -2.3397    0.7935 O   0  0  0  0  0  0  0  0  0  0  0  0
  1  2  1  0  0  0  0
  3  2  1  6  0  0  0
  3  5  1  0  0  0  0
  3  4  1  0  0  0  0
  4  9  1  0  0  0  0
  5  7  1  0  0  0  0
  5  6  1  1  0  0  0
  7  9  1  0  0  0  0
  7  8  1  6  0  0  0
  9 40  1  6  0  0  0
 10  6  1  6  0  0  0
 10 11  1  0  0  0  0
 10 18  1  0  0  0  0
 11 13  1  0  0  0  0
 11 12  1  1  0  0  0
 13 15  1  0  0  0  0
 13 14  1  1  0  0  0
 15 17  1  0  0  0  0
 15 16  1  6  0  0  0
 17 19  1  1  0  0  0
 17 18  1  0  0  0  0
 19 20  1  0  0  0  0
 21 29  1  0  0  0  0
 22 23  1  0  0  0  0
 22 31  1  0  0  0  0
 22 38  1  1  0  0  0
 23 25  1  0  0  0  0
 23 24  1  1  0  0  0
 25 27  1  0  0  0  0
 25 26  1  6  0  0  0
 27 30  1  0  0  0  0
 27 28  1  1  0  0  0
 30 21  1  6  0  0  0
 30 31  1  0  0  0  0
 32 34  1  0  0  0  0
 32 41  1  0  0  0  0
 32 33  1  6  0  0  0
 34 35  1  0  0  0  0
 35 37  1  0  0  0  0
 35 36  1  6  0  0  0
 37 39  1  0  0  0  0
 37 38  1  1  0  0  0
 39 41  1  0  0  0  0
 39 40  1  6  0  0  0
 41 42  1  1  0  0  0
M  CHG  6  12   1  20   1  24   1  29   1  33   1  36   1
M  END
>  <CHROM.1>
-58.37116035,58.63192125,56.32186099,-131.19244416,-175.33088319,-166.49502663
168.62594284,178.28641023,80.37370548,161.25573723,58.62530571,-56.86141176
172.61000281,-156.03696806,39.93003788,67.30254020,-63.48799812,-34.70696194
56.54591603,-124.03735837,116.32846960,48.76283908,0.54930576,0.42648576
0.28238540,0.58878672,0.16511926,-0.43380186

>  <Name>
1NEM.B

>  <RI>
0

>  <Rbt.Current_Directory>
/home/itssahil/PROJECTS/Mol_Feturizer/New_Systems/rnas/1nem

>  <Rbt.Executable>
rbdock ($Id: //depot/dev/client3/rdock/2013.1/src/exe/rbdock.cxx#4 $)

>  <Rbt.Library>
libRbt.so (2013.1, Build901 2013/11/27)

>  <Rbt.Parameter_File>
/export/apps/rDock/src/rDock_2013.1_src/data/scripts/dock_solv.prm

>  <Rbt.Receptor>
prm/pocket_docking_6.prm

>  <SCORE>
-51.1331

>  <SCORE.INTER>
-58.7637

>  <SCORE.INTER.CONST>
1

>  <SCORE.INTER.POLAR>
-7.81054

>  <SCORE.INTER.ROT>
9

>  <SCORE.INTER.SOLV>
34.0458

>  <SCORE.INTER.VDW>
-34.0893

>  <SCORE.INTER.norm>
-1.39914

>  <SCORE.INTRA>
7.63063

>  <SCORE.INTRA.DIHEDRAL>
9.55677

>  <SCORE.INTRA.DIHEDRAL.0>
22.4324

>  <SCORE.INTRA.POLAR>
-0.364008

>  <SCORE.INTRA.POLAR.0>
-1.83749

>  <SCORE.INTRA.REPUL>
0

>  <SCORE.INTRA.REPUL.0>
0

>  <SCORE.INTRA.SOLV>
0.620053

>  <SCORE.INTRA.SOLV.lig_0>
-160.638

>  <SCORE.INTRA.VDW>
3.77984

>  <SCORE.INTRA.VDW.0>
-7.61953

>  <SCORE.INTRA.norm>
0.181682

>  <SCORE.RESTR>
0

>  <SCORE.RESTR.CAVITY>
0

>  <SCORE.RESTR.norm>
0

>  <SCORE.SYSTEM>
0

>  <SCORE.SYSTEM.CONST>
0

>  <SCORE.SYSTEM.DIHEDRAL>
0

>  <SCORE.SYSTEM.SOLV>
0

>  <SCORE.SYSTEM.norm>
0

>  <SCORE.heavy>
42

>  <SCORE.norm>
-1.21745

>  <RMSD>
5.566

$$$$
1NEM.B
 OpenBabel11021811403D
libRbt.so/2013.1/901 2013/11/27
 42 45  0  0  0  0  0  0  0  0999 V2000
   -1.2901    1.9485   -2.3763 O   0  0  0  0  0  0  0  0  0  0  0  0
    0.1212    2.1721   -2.3951 C   0  0  0  0  0  0  0  0  0  0  0  0
    0.8214    1.6829   -1.1282 C   0  0  1  0  0  0  0  0  0  0  0  0
   -0.1172    1.1069   -0.2245 O   0  0  0  0  0  0  0  0  0  0  0  0
    1.8223    0.5600   -1.3498 C   0  0  1  0  0  0  0  0  0  0  0  0
    2.9620    1.1289   -1.9985 O   0  0  0  0  0  0  0  0  0  0  0  0
    2.0117    0.1234    0.0907 C   0  0  1  0  0  0  0  0  0  0  0  0
    2.7251    1.0964    0.8610 O   0  0  0  0  0  0  0  0  0  0  0  0
    0.5409    0.0832    0.5220 C   0  0  2  0  0  0  0  0  0  0  0  0
    3.3521    2.3995   -1.5617 C   0  0  2  0  0  0  0  0  0  0  0  0
    3.9180    3.1910   -2.7485 C   0  0  2  0  0  0  0  0  0  0  0  0
    4.9911    2.4095   -3.4179 N   0  3  0  0  0  0  0  0  0  0  0  0
    4.4174    4.5675   -2.2976 C   0  0  1  0  0  0  0  0  0  0  0  0
    3.3089    5.3909   -1.9603 O   0  0  0  0  0  0  0  0  0  0  0  0
    5.3544    4.4479   -1.0917 C   0  0  2  0  0  0  0  0  0  0  0  0
    6.5735    3.8231   -1.4734 O   0  0  0  0  0  0  0  0  0  0  0  0
    4.6751    3.6359    0.0075 C   0  0  1  0  0  0  0  0  0  0  0  0
    4.3016    2.3423   -0.5051 O   0  0  0  0  0  0  0  0  0  0  0  0
    5.5568    3.4208    1.2251 C   0  0  0  0  0  0  0  0  0  0  0  0
    6.7811    2.6590    0.8929 N   0  3  0  0  0  0  0  0  0  0  0  0
   -6.1603   -4.7340    0.8420 C   0  0  0  0  0  0  0  0  0  0  0  0
   -3.2112   -2.8692   -0.4040 C   0  0  2  0  0  0  0  0  0  0  0  0
   -3.8499   -1.5406   -0.8014 C   0  0  2  0  0  0  0  0  0  0  0  0
   -2.8166   -0.4816   -0.8929 N   0  3  0  0  0  0  0  0  0  0  0  0
   -4.8986   -1.1345    0.2254 C   0  0  1  0  0  0  0  0  0  0  0  0
   -5.5386    0.0606   -0.1949 O   0  0  0  0  0  0  0  0  0  0  0  0
   -5.9252   -2.2547    0.3777 C   0  0  2  0  0  0  0  0  0  0  0  0
   -6.8688   -1.9125    1.3847 O   0  0  0  0  0  0  0  0  0  0  0  0
   -6.9082   -4.9211   -0.4224 N   0  3  0  0  0  0  0  0  0  0  0  0
   -5.2121   -3.5505    0.7590 C   0  0  2  0  0  0  0  0  0  0  0  0
   -4.2079   -3.8720   -0.2248 O   0  0  0  0  0  0  0  0  0  0  0  0
    1.3952   -4.0242    2.0242 C   0  0  2  0  0  0  0  0  0  0  0  0
    2.7534   -4.6136    1.9886 N   0  3  0  0  0  0  0  0  0  0  0  0
    0.3652   -5.0626    1.5942 C   0  0  0  0  0  0  0  0  0  0  0  0
   -1.0365   -4.4696    1.6238 C   0  0  2  0  0  0  0  0  0  0  0  0
   -1.9686   -5.5074    1.2062 N   0  3  0  0  0  0  0  0  0  0  0  0
   -1.1084   -3.2647    0.6888 C   0  0  1  0  0  0  0  0  0  0  0  0
   -2.4297   -2.6925    0.7441 O   0  0  0  0  0  0  0  0  0  0  0  0
   -0.0751   -2.2025    1.0890 C   0  0  2  0  0  0  0  0  0  0  0  0
   -0.0972   -1.1297    0.1282 O   0  0  0  0  0  0  0  0  0  0  0  0
    1.3356   -2.7845    1.1334 C   0  0  1  0  0  0  0  0  0  0  0  0
    2.2382   -1.8033    1.6265 O   0  0  0  0  0  0  0  0  0  0  0  0
  1  2  1  0  0  0  0
  3  2  1  6  0  0  0
  3  5  1  0  0  0  0
  3  4  1  0  0  0  0
  4  9  1  0  0  0  0
  5  7  1  0  0  0  0
  5  6  1  1  0  0  0
  7  9  1  0  0  0  0
  7  8  1  1  0  0  0
  9 40  1  6  0  0  0
 10  6  1  6  0  0  0
 10 11  1  0  0  0  0
 10 18  1  0  0  0  0
 11 13  1  0  0  0  0
 11 12  1  1  0  0  0
 13 15  1  0  0  0  0
 13 14  1  1  0  0  0
 15 17  1  0  0  0  0
 15 16  1  6  0  0  0
 17 19  1  1  0  0  0
 17 18  1  0  0  0  0
 19 20  1  0  0  0  0
 21 29  1  0  0  0  0
 22 23  1  0  0  0  0
 22 31  1  0  0  0  0
 22 38  1  1  0  0  0
 23 25  1  0  0  0  0
 23 24  1  1  0  0  0
 25 27  1  0  0  0  0
 25 26  1  6  0  0  0
 27 30  1  0  0  0  0
 27 28  1  1  0  0  0
 30 21  1  6  0  0  0
 30 31  1  0  0  0  0
 32 34  1  0  0  0  0
 32 41  1  0  0  0  0
 32 33  1  6  0  0  0
 34 35  1  0  0  0  0
 35 37  1  0  0  0  0
 35 36  1  6  0  0  0
 37 39  1  0  0  0  0
 37 38  1  1  0  0  0
 39 41  1  0  0  0  0
 39 40  1  6  0  0  0
 41 42  1  1  0  0  0
M  CHG  6  12   1  20   1  24   1  29   1  33   1  36   1
M  END
>  <CHROM.1>
-72.80741527,0.30924722,39.17083307,-146.28848298,-56.92586330,-153.51491452
58.51893008,179.99202203,54.43048696,-61.76074143,-79.25239424,55.84017064
6.32010482,-132.49563676,-159.42618014,-69.69897230,171.88538543,168.43487653
-164.01127618,-109.59879841,164.47426153,-57.74868940,0.21293794,-0.38285455
-0.16390135,0.62176938,-0.16107528,-0.46257758

>  <Name>
1NEM.B

>  <RI>
0

>  <Rbt.Current_Directory>
/home/itssahil/PROJECTS/Mol_Feturizer/New_Systems/rnas/1nem

>  <Rbt.Executable>
rbdock ($Id: //depot/dev/client3/rdock/2013.1/src/exe/rbdock.cxx#4 $)

>  <Rbt.Library>
libRbt.so (2013.1, Build901 2013/11/27)

>  <Rbt.Parameter_File>
/export/apps/rDock/src/rDock_2013.1_src/data/scripts/dock_solv.prm

>  <Rbt.Receptor>
prm/pocket_docking_8.prm

>  <SCORE>
-28.6549

>  <SCORE.INTER>
-42.3593

>  <SCORE.INTER.CONST>
1

>  <SCORE.INTER.POLAR>
-6.2338

>  <SCORE.INTER.ROT>
9

>  <SCORE.INTER.SOLV>
38.1814

>  <SCORE.INTER.VDW>
-29.7873

>  <SCORE.INTER.norm>
-1.00856

>  <SCORE.INTRA>
13.7045

>  <SCORE.INTRA.DIHEDRAL>
14.9032

>  <SCORE.INTRA.DIHEDRAL.0>
22.4324

>  <SCORE.INTRA.POLAR>
-1.55542

>  <SCORE.INTRA.POLAR.0>
-1.83749

>  <SCORE.INTRA.REPUL>
0

>  <SCORE.INTRA.REPUL.0>
0

>  <SCORE.INTRA.SOLV>
5.2821

>  <SCORE.INTRA.SOLV.lig_0>
-160.638

>  <SCORE.INTRA.VDW>
8.90023

>  <SCORE.INTRA.VDW.0>
-7.61953

>  <SCORE.INTRA.norm>
0.326297

>  <SCORE.RESTR>
0

>  <SCORE.RESTR.CAVITY>
0

>  <SCORE.RESTR.norm>
0

>  <SCORE.SYSTEM>
0

>  <SCORE.SYSTEM.CONST>
0

>  <SCORE.SYSTEM.DIHEDRAL>
0

>  <SCORE.SYSTEM.SOLV>
0

>  <SCORE.SYSTEM.norm>
0

>  <SCORE.heavy>
42

>  <SCORE.norm>
-0.682258

>  <RMSD>
5.593

$$$$
1NEM.B
 OpenBabel11021811403D
libRbt.so/2013.1/901 2013/11/27
 42 45  0  0  0  0  0  0  0  0999 V2000
   -0.7437   -6.5723    0.5797 O   0  0  0  0  0  0  0  0  0  0  0  0
   -0.0020   -5.5314    1.2189 C   0  0  0  0  0  0  0  0  0  0  0  0
   -0.7760   -4.2175    1.3151 C   0  0  1  0  0  0  0  0  0  0  0  0
   -2.0476   -4.4255    1.9228 O   0  0  0  0  0  0  0  0  0  0  0  0
   -0.1339   -3.1667    2.2068 C   0  0  1  0  0  0  0  0  0  0  0  0
    1.0152   -2.6692    1.5173 O   0  0  0  0  0  0  0  0  0  0  0  0
   -1.3090   -2.2159    2.3370 C   0  0  1  0  0  0  0  0  0  0  0  0
   -1.5869   -1.5293    1.1121 O   0  0  0  0  0  0  0  0  0  0  0  0
   -2.4117   -3.2400    2.6304 C   0  0  2  0  0  0  0  0  0  0  0  0
    1.4990   -1.4260    1.9386 C   0  0  2  0  0  0  0  0  0  0  0  0
    2.2463   -0.7542    0.7786 C   0  0  2  0  0  0  0  0  0  0  0  0
    3.2840   -1.6727    0.2401 N   0  3  0  0  0  0  0  0  0  0  0  0
    2.8486    0.5837    1.2198 C   0  0  1  0  0  0  0  0  0  0  0  0
    1.8090    1.5316    1.4230 O   0  0  0  0  0  0  0  0  0  0  0  0
    3.6598    0.4264    2.5096 C   0  0  2  0  0  0  0  0  0  0  0  0
    4.8339   -0.3376    2.2645 O   0  0  0  0  0  0  0  0  0  0  0  0
    2.8056   -0.2582    3.5729 C   0  0  1  0  0  0  0  0  0  0  0  0
    2.3422   -1.5297    3.0785 O   0  0  0  0  0  0  0  0  0  0  0  0
    3.5509   -0.5043    4.8729 C   0  0  0  0  0  0  0  0  0  0  0  0
    3.8490    0.7576    5.5861 N   0  3  0  0  0  0  0  0  0  0  0  0
   -4.2800   -0.1952    2.6076 C   0  0  0  0  0  0  0  0  0  0  0  0
   -5.7588   -3.5754    2.2695 C   0  0  2  0  0  0  0  0  0  0  0  0
   -6.2584   -3.5349    0.8274 C   0  0  2  0  0  0  0  0  0  0  0  0
   -6.4694   -4.9112    0.3185 N   0  3  0  0  0  0  0  0  0  0  0  0
   -5.2474   -2.8192   -0.0584 C   0  0  1  0  0  0  0  0  0  0  0  0
   -5.7577   -2.7197   -1.3790 O   0  0  0  0  0  0  0  0  0  0  0  0
   -4.9705   -1.4268    0.5042 C   0  0  2  0  0  0  0  0  0  0  0  0
   -3.9759   -0.7781   -0.2777 O   0  0  0  0  0  0  0  0  0  0  0  0
   -5.5620    0.4026    3.0460 N   0  3  0  0  0  0  0  0  0  0  0  0
   -4.4917   -1.5476    1.9496 C   0  0  2  0  0  0  0  0  0  0  0  0
   -5.4665   -2.2613    2.7371 O   0  0  0  0  0  0  0  0  0  0  0  0
   -4.8422   -4.9692    6.5696 C   0  0  2  0  0  0  0  0  0  0  0  0
   -4.6103   -5.5392    7.9167 N   0  3  0  0  0  0  0  0  0  0  0  0
   -5.4909   -6.0125    5.6670 C   0  0  0  0  0  0  0  0  0  0  0  0
   -5.7333   -5.4407    4.2771 C   0  0  2  0  0  0  0  0  0  0  0  0
   -6.3529   -6.4813    3.4687 N   0  3  0  0  0  0  0  0  0  0  0  0
   -4.4089   -4.9912    3.6644 C   0  0  1  0  0  0  0  0  0  0  0  0
   -4.6504   -4.4257    2.3612 O   0  0  0  0  0  0  0  0  0  0  0  0
   -3.7237   -3.9458    4.5554 C   0  0  2  0  0  0  0  0  0  0  0  0
   -2.4332   -3.6215    4.0042 O   0  0  0  0  0  0  0  0  0  0  0  0
   -3.5268   -4.4664    5.9770 C   0  0  1  0  0  0  0  0  0  0  0  0
   -3.0056   -3.4271    6.7948 O   0  0  0  0  0  0  0  0  0  0  0  0
  1  2  1  0  0  0  0
  3  2  1  1  0  0  0
  3  5  1  0  0  0  0
  3  4  1  0  0  0  0
  4  9  1  0  0  0  0
  5  7  1  0  0  0  0
  5  6  1  6  0  0  0
  7  9  1  0  0  0  0
  7  8  1  6  0  0  0
  9 40  1  1  0  0  0
 10  6  1  6  0  0  0
 10 11  1  0  0  0  0
 10 18  1  0  0  0  0
 11 13  1  0  0  0  0
 11 12  1  1  0  0  0
 13 15  1  0  0  0  0
 13 14  1  1  0  0  0
 15 17  1  0  0  0  0
 15 16  1  6  0  0  0
 17 19  1  1  0  0  0
 17 18  1  0  0  0  0
 19 20  1  0  0  0  0
 21 29  1  0  0  0  0
 22 23  1  0  0  0  0
 22 31  1  0  0  0  0
 22 38  1  6  0  0  0
 23 25  1  0  0  0  0
 23 24  1  6  0  0  0
 25 27  1  0  0  0  0
 25 26  1  6  0  0  0
 27 30  1  0  0  0  0
 27 28  1  6  0  0  0
 30 21  1  1  0  0  0
 30 31  1  0  0  0  0
 32 34  1  0  0  0  0
 32 41  1  0  0  0  0
 32 33  1  1  0  0  0
 34 35  1  0  0  0  0
 35 37  1  0  0  0  0
 35 36  1  6  0  0  0
 37 39  1  0  0  0  0
 37 38  1  6  0  0  0
 39 41  1  0  0  0  0
 39 40  1  6  0  0  0
 41 42  1  1  0  0  0
M  CHG  6  12   1  20   1  24   1  29   1  33   1  36   1
M  END
>  <CHROM.1>
-36.39745702,53.06556199,160.13212477,-154.23243438,101.76282794,-97.73127814
-61.64284541,-179.45468060,62.32322649,68.91093707,170.84268157,79.00598043
123.49880900,-155.68194386,-164.95367202,-166.90753670,65.27328367,54.65987161
-8.95851899,42.75642234,52.35402126,-49.17140765,-1.94896936,-2.69072083
2.60641087,2.90252133,0.37087546,1.98118300

>  <Name>
1NEM.B

>  <RI>
0

>  <Rbt.Current_Directory>
/home/itssahil/PROJECTS/Mol_Feturizer/New_Systems/rnas/1nem

>  <Rbt.Executable>
rbdock ($Id: //depot/dev/client3/rdock/2013.1/src/exe/rbdock.cxx#4 $)

>  <Rbt.Library>
libRbt.so (2013.1, Build901 2013/11/27)

>  <Rbt.Parameter_File>
/export/apps/rDock/src/rDock_2013.1_src/data/scripts/dock_solv.prm

>  <Rbt.Receptor>
prm/blind_docking_100.prm

>  <SCORE>
-18.7099

>  <SCORE.INTER>
-34.9984

>  <SCORE.INTER.CONST>
1

>  <SCORE.INTER.POLAR>
-5.37866

>  <SCORE.INTER.ROT>
9

>  <SCORE.INTER.SOLV>
36.4145

>  <SCORE.INTER.VDW>
-27.1416

>  <SCORE.INTER.norm>
-0.833295

>  <SCORE.INTRA>
14.0727

>  <SCORE.INTRA.DIHEDRAL>
10.5076

>  <SCORE.INTRA.DIHEDRAL.0>
22.4324

>  <SCORE.INTRA.POLAR>
0.838878

>  <SCORE.INTRA.POLAR.0>
-1.83749

>  <SCORE.INTRA.REPUL>
0.0286331

>  <SCORE.INTRA.REPUL.0>
0

>  <SCORE.INTRA.SOLV>
-2.87531

>  <SCORE.INTRA.SOLV.lig_0>
-160.638

>  <SCORE.INTRA.VDW>
7.26125

>  <SCORE.INTRA.VDW.0>
-7.61953

>  <SCORE.INTRA.norm>
0.335065

>  <SCORE.RESTR>
2.21582

>  <SCORE.RESTR.CAVITY>
2.21582

>  <SCORE.RESTR.norm>
0.0527577

>  <SCORE.SYSTEM>
0

>  <SCORE.SYSTEM.CONST>
0

>  <SCORE.SYSTEM.DIHEDRAL>
0

>  <SCORE.SYSTEM.SOLV>
0

>  <SCORE.SYSTEM.norm>
0

>  <SCORE.heavy>
42

>  <SCORE.norm>
-0.445473

>  <RMSD>
5.654

$$$$
1NEM.B
 OpenBabel11021811403D
libRbt.so/2013.1/901 2013/11/27
 42 45  0  0  0  0  0  0  0  0999 V2000
    1.8296    3.1770   -2.7658 O   0  0  0  0  0  0  0  0  0  0  0  0
    1.0611    2.9436   -1.5838 C   0  0  0  0  0  0  0  0  0  0  0  0
    1.8182    2.1411   -0.5266 C   0  0  1  0  0  0  0  0  0  0  0  0
    0.9141    1.5656    0.4119 O   0  0  0  0  0  0  0  0  0  0  0  0
    2.5724    0.9357   -1.0648 C   0  0  1  0  0  0  0  0  0  0  0  0
    3.7036    1.4296   -1.7858 O   0  0  0  0  0  0  0  0  0  0  0  0
    2.8614    0.2314    0.2476 C   0  0  1  0  0  0  0  0  0  0  0  0
    3.8242    0.9362    1.0385 O   0  0  0  0  0  0  0  0  0  0  0  0
    1.4718    0.3399    0.8863 C   0  0  2  0  0  0  0  0  0  0  0  0
    4.7115    2.0270   -1.0212 C   0  0  2  0  0  0  0  0  0  0  0  0
    4.4958    3.5463   -0.9980 C   0  0  2  0  0  0  0  0  0  0  0  0
    4.3803    4.0666   -2.3859 N   0  3  0  0  0  0  0  0  0  0  0  0
    5.6181    4.2446   -0.2233 C   0  0  1  0  0  0  0  0  0  0  0  0
    5.4913    3.9581    1.1632 O   0  0  0  0  0  0  0  0  0  0  0  0
    6.9956    3.7924   -0.7176 C   0  0  2  0  0  0  0  0  0  0  0  0
    7.2295    4.2726   -2.0355 O   0  0  0  0  0  0  0  0  0  0  0  0
    7.0734    2.2685   -0.6972 C   0  0  1  0  0  0  0  0  0  0  0  0
    6.0130    1.7176   -1.5023 O   0  0  0  0  0  0  0  0  0  0  0  0
    8.3911    1.7288   -1.2248 C   0  0  0  0  0  0  0  0  0  0  0  0
    8.6586    2.1802   -2.6085 N   0  3  0  0  0  0  0  0  0  0  0  0
   -6.0217   -3.0593    1.4753 C   0  0  0  0  0  0  0  0  0  0  0  0
   -2.8750   -2.0628   -0.2077 C   0  0  2  0  0  0  0  0  0  0  0  0
   -3.2636   -0.6994   -0.7743 C   0  0  2  0  0  0  0  0  0  0  0  0
   -2.0493    0.0911   -1.0877 N   0  3  0  0  0  0  0  0  0  0  0  0
   -4.1161    0.0631    0.2311 C   0  0  1  0  0  0  0  0  0  0  0  0
   -4.5349    1.2946   -0.3369 O   0  0  0  0  0  0  0  0  0  0  0  0
   -5.3309   -0.7792    0.6138 C   0  0  2  0  0  0  0  0  0  0  0  0
   -6.0955   -0.1037    1.6041 O   0  0  0  0  0  0  0  0  0  0  0  0
   -6.6808   -2.6887    2.7486 N   0  3  0  0  0  0  0  0  0  0  0  0
   -4.8645   -2.1291    1.1553 C   0  0  2  0  0  0  0  0  0  0  0  0
   -4.0346   -2.7942    0.1813 O   0  0  0  0  0  0  0  0  0  0  0  0
    1.5520   -3.9245    2.0626 C   0  0  2  0  0  0  0  0  0  0  0  0
    2.8011   -4.7172    1.9932 N   0  3  0  0  0  0  0  0  0  0  0  0
    0.3842   -4.7442    1.5255 C   0  0  0  0  0  0  0  0  0  0  0  0
   -0.9071   -3.9406    1.5888 C   0  0  2  0  0  0  0  0  0  0  0  0
   -1.9785   -4.7763    1.0656 N   0  3  0  0  0  0  0  0  0  0  0  0
   -0.7620   -2.6627    0.7658 C   0  0  1  0  0  0  0  0  0  0  0  0
   -1.9779   -1.8945    0.8538 O   0  0  0  0  0  0  0  0  0  0  0  0
    0.4137   -1.8175    1.2754 C   0  0  2  0  0  0  0  0  0  0  0  0
    0.5879   -0.6751    0.4155 O   0  0  0  0  0  0  0  0  0  0  0  0
    1.7135   -2.6182    1.2870 C   0  0  1  0  0  0  0  0  0  0  0  0
    2.7447   -1.8399    1.8799 O   0  0  0  0  0  0  0  0  0  0  0  0
  1  2  1  0  0  0  0
  3  2  1  6  0  0  0
  3  5  1  0  0  0  0
  3  4  1  0  0  0  0
  4  9  1  0  0  0  0
  5  7  1  0  0  0  0
  5  6  1  1  0  0  0
  7  9  1  0  0  0  0
  7  8  1  1  0  0  0
  9 40  1  6  0  0  0
 10  6  1  6  0  0  0
 10 11  1  0  0  0  0
 10 18  1  0  0  0  0
 11 13  1  0  0  0  0
 11 12  1  6  0  0  0
 13 15  1  0  0  0  0
 13 14  1  1  0  0  0
 15 17  1  0  0  0  0
 15 16  1  6  0  0  0
 17 19  1  6  0  0  0
 17 18  1  0  0  0  0
 19 20  1  0  0  0  0
 21 29  1  0  0  0  0
 22 23  1  0  0  0  0
 22 31  1  0  0  0  0
 22 38  1  1  0  0  0
 23 25  1  0  0  0  0
 23 24  1  1  0  0  0
 25 27  1  0  0  0  0
 25 26  1  6  0  0  0
 27 30  1  0  0  0  0
 27 28  1  1  0  0  0
 30 21  1  6  0  0  0
 30 31  1  0  0  0  0
 32 34  1  0  0  0  0
 32 41  1  0  0  0  0
 32 33  1  6  0  0  0
 34 35  1  0  0  0  0
 35 37  1  0  0  0  0
 35 36  1  6  0  0  0
 37 39  1  0  0  0  0
 37 38  1  1  0  0  0
 39 41  1  0  0  0  0
 39 40  1  6  0  0  0
 41 42  1  1  0  0  0
M  CHG  6  12   1  20   1  24   1  29   1  33   1  36   1
M  END
>  <CHROM.1>
-178.00517717,-160.97705134,69.06717124,-95.24786371,59.51315533,-145.90842206
-176.63757409,65.62454217,66.17593140,-57.72771826,45.78939317,-77.02154761
48.01690104,-127.99427847,-145.84699244,-178.03449543,38.20494056,43.53300420
69.10181891,-97.00438596,168.70778573,-55.56534858,1.04961941,0.05611279
0.05567181,0.50370826,0.01521785,-0.39574436

>  <Name>
1NEM.B

>  <RI>
0

>  <Rbt.Current_Directory>
/home/itssahil/PROJECTS/Mol_Feturizer/New_Systems/rnas/1nem

>  <Rbt.Executable>
rbdock ($Id: //depot/dev/client3/rdock/2013.1/src/exe/rbdock.cxx#4 $)

>  <Rbt.Library>
libRbt.so (2013.1, Build901 2013/11/27)

>  <Rbt.Parameter_File>
/export/apps/rDock/src/rDock_2013.1_src/data/scripts/dock_solv.prm

>  <Rbt.Receptor>
prm/pocket_docking_7.prm

>  <SCORE>
-34.3904

>  <SCORE.INTER>
-38.1464

>  <SCORE.INTER.CONST>
1

>  <SCORE.INTER.POLAR>
-6.61549

>  <SCORE.INTER.ROT>
9

>  <SCORE.INTER.SOLV>
29.005

>  <SCORE.INTER.VDW>
-22.6476

>  <SCORE.INTER.norm>
-0.908247

>  <SCORE.INTRA>
3.72285

>  <SCORE.INTRA.DIHEDRAL>
8.67774

>  <SCORE.INTRA.DIHEDRAL.0>
22.4324

>  <SCORE.INTRA.POLAR>
-3.2655

>  <SCORE.INTRA.POLAR.0>
-1.83749

>  <SCORE.INTRA.REPUL>
0

>  <SCORE.INTRA.REPUL.0>
0

>  <SCORE.INTRA.SOLV>
5.53686

>  <SCORE.INTRA.SOLV.lig_0>
-160.638

>  <SCORE.INTRA.VDW>
7.71825

>  <SCORE.INTRA.VDW.0>
-7.61953

>  <SCORE.INTRA.norm>
0.0886394

>  <SCORE.RESTR>
0.0331231

>  <SCORE.RESTR.CAVITY>
0.0331231

>  <SCORE.RESTR.norm>
0.000788644

>  <SCORE.SYSTEM>
0

>  <SCORE.SYSTEM.CONST>
0

>  <SCORE.SYSTEM.DIHEDRAL>
0

>  <SCORE.SYSTEM.SOLV>
0

>  <SCORE.SYSTEM.norm>
0

>  <SCORE.heavy>
42

>  <SCORE.norm>
-0.818819

>  <RMSD>
5.691

$$$$
1NEM.B
 OpenBabel11021811403D
libRbt.so/2013.1/901 2013/11/27
 42 45  0  0  0  0  0  0  0  0999 V2000
   -0.1094   -6.3107    0.5602 O   0  0  0  0  0  0  0  0  0  0  0  0
    0.0144   -4.9910    1.0942 C   0  0  0  0  0  0  0  0  0  0  0  0
   -1.1231   -4.0640    0.6683 C   0  0  1  0  0  0  0  0  0  0  0  0
   -2.2040   -4.8124    0.1197 O   0  0  0  0  0  0  0  0  0  0  0  0
   -1.7760   -3.2964    1.8067 C   0  0  1  0  0  0  0  0  0  0  0  0
   -0.8500   -2.2924    2.2281 O   0  0  0  0  0  0  0  0  0  0  0  0
   -3.0181   -2.8105    1.0834 C   0  0  1  0  0  0  0  0  0  0  0  0
   -2.7164   -1.8133    0.1017 O   0  0  0  0  0  0  0  0  0  0  0  0
   -3.4219   -4.1213    0.3982 C   0  0  2  0  0  0  0  0  0  0  0  0
    0.1579   -1.9591    1.3169 C   0  0  2  0  0  0  0  0  0  0  0  0
    1.4186   -2.7739    1.6365 C   0  0  2  0  0  0  0  0  0  0  0  0
    1.7917   -2.5976    3.0648 N   0  3  0  0  0  0  0  0  0  0  0  0
    2.5684   -2.3896    0.6996 C   0  0  1  0  0  0  0  0  0  0  0  0
    2.2952   -2.8653   -0.6118 O   0  0  0  0  0  0  0  0  0  0  0  0
    2.7688   -0.8714    0.6641 C   0  0  2  0  0  0  0  0  0  0  0  0
    3.2649   -0.4094    1.9141 O   0  0  0  0  0  0  0  0  0  0  0  0
    1.4433   -0.1860    0.3445 C   0  0  1  0  0  0  0  0  0  0  0  0
    0.4522   -0.5683    1.3180 O   0  0  0  0  0  0  0  0  0  0  0  0
    1.5378    1.3296    0.3423 C   0  0  0  0  0  0  0  0  0  0  0  0
    2.2622    1.8396    1.5276 N   0  3  0  0  0  0  0  0  0  0  0  0
   -7.1005   -6.9569    3.5749 C   0  0  0  0  0  0  0  0  0  0  0  0
   -5.5667   -3.7713    4.6825 C   0  0  2  0  0  0  0  0  0  0  0  0
   -4.6861   -4.2533    5.8328 C   0  0  2  0  0  0  0  0  0  0  0  0
   -3.6362   -3.2500    6.1305 N   0  3  0  0  0  0  0  0  0  0  0  0
   -4.0291   -5.5786    5.4711 C   0  0  1  0  0  0  0  0  0  0  0  0
   -3.2760   -6.0540    6.5763 O   0  0  0  0  0  0  0  0  0  0  0  0
   -5.1038   -6.5949    5.0915 C   0  0  2  0  0  0  0  0  0  0  0  0
   -4.4951   -7.8141    4.6859 O   0  0  0  0  0  0  0  0  0  0  0  0
   -8.0750   -7.0879    4.6823 N   0  3  0  0  0  0  0  0  0  0  0  0
   -5.9512   -6.0374    3.9495 C   0  0  2  0  0  0  0  0  0  0  0  0
   -6.5216   -4.7684    4.3289 O   0  0  0  0  0  0  0  0  0  0  0  0
   -7.6858   -3.9193    0.5568 C   0  0  2  0  0  0  0  0  0  0  0  0
   -8.4126   -3.7612   -0.7239 N   0  3  0  0  0  0  0  0  0  0  0  0
   -7.6170   -2.5820    1.2855 C   0  0  0  0  0  0  0  0  0  0  0  0
   -6.8700   -2.7290    2.6037 C   0  0  2  0  0  0  0  0  0  0  0  0
   -6.8410   -1.4235    3.2478 N   0  3  0  0  0  0  0  0  0  0  0  0
   -5.4547   -3.2389    2.3423 C   0  0  1  0  0  0  0  0  0  0  0  0
   -4.7641   -3.4022    3.5964 O   0  0  0  0  0  0  0  0  0  0  0  0
   -5.4883   -4.5818    1.5995 C   0  0  2  0  0  0  0  0  0  0  0  0
   -4.1428   -4.9822    1.2770 O   0  0  0  0  0  0  0  0  0  0  0  0
   -6.2887   -4.4833    0.3033 C   0  0  1  0  0  0  0  0  0  0  0  0
   -6.3982   -5.7723   -0.2858 O   0  0  0  0  0  0  0  0  0  0  0  0
  1  2  1  0  0  0  0
  3  2  1  1  0  0  0
  3  5  1  0  0  0  0
  3  4  1  0  0  0  0
  4  9  1  0  0  0  0
  5  7  1  0  0  0  0
  5  6  1  6  0  0  0
  7  9  1  0  0  0  0
  7  8  1  6  0  0  0
  9 40  1  1  0  0  0
 10  6  1  1  0  0  0
 10 11  1  0  0  0  0
 10 18  1  0  0  0  0
 11 13  1  0  0  0  0
 11 12  1  1  0  0  0
 13 15  1  0  0  0  0
 13 14  1  6  0  0  0
 15 17  1  0  0  0  0
 15 16  1  1  0  0  0
 17 19  1  1  0  0  0
 17 18  1  0  0  0  0
 19 20  1  0  0  0  0
 21 29  1  0  0  0  0
 22 23  1  0  0  0  0
 22 31  1  0  0  0  0
 22 38  1  6  0  0  0
 23 25  1  0  0  0  0
 23 24  1  6  0  0  0
 25 27  1  0  0  0  0
 25 26  1  1  0  0  0
 27 30  1  0  0  0  0
 27 28  1  6  0  0  0
 30 21  1  1  0  0  0
 30 31  1  0  0  0  0
 32 34  1  0  0  0  0
 32 41  1  0  0  0  0
 32 33  1  6  0  0  0
 34 35  1  0  0  0  0
 35 37  1  0  0  0  0
 35 36  1  6  0  0  0
 37 39  1  0  0  0  0
 37 38  1  1  0  0  0
 39 41  1  0  0  0  0
 39 40  1  6  0  0  0
 41 42  1  1  0  0  0
M  CHG  6  12   1  20   1  24   1  29   1  33   1  36   1
M  END
>  <CHROM.1>
-40.78955009,14.52095227,19.32880784,-95.07307277,77.70490035,-173.38423032
-29.43513438,50.95648270,-66.19536056,-46.62971558,51.71435178,64.70969088
50.98621210,165.52949359,49.86487114,-80.47538118,78.58933070,-165.49050426
179.03452295,32.29456771,-62.74118227,56.55027081,-2.92490695,-3.54895319
2.18474691,-0.44127156,0.25503976,2.14361663

>  <Name>
1NEM.B

>  <RI>
0

>  <Rbt.Current_Directory>
/home/itssahil/PROJECTS/Mol_Feturizer/New_Systems/rnas/1nem

>  <Rbt.Executable>
rbdock ($Id: //depot/dev/client3/rdock/2013.1/src/exe/rbdock.cxx#4 $)

>  <Rbt.Library>
libRbt.so (2013.1, Build901 2013/11/27)

>  <Rbt.Parameter_File>
/export/apps/rDock/src/rDock_2013.1_src/data/scripts/dock_solv.prm

>  <Rbt.Receptor>
prm/blind_docking_40.prm

>  <SCORE>
5.57975

>  <SCORE.INTER>
-27.2331

>  <SCORE.INTER.CONST>
1

>  <SCORE.INTER.POLAR>
-4.43355

>  <SCORE.INTER.ROT>
9

>  <SCORE.INTER.SOLV>
42.9266

>  <SCORE.INTER.VDW>
-27.2858

>  <SCORE.INTER.norm>
-0.648407

>  <SCORE.INTRA>
27.3784

>  <SCORE.INTRA.DIHEDRAL>
7.62355

>  <SCORE.INTRA.DIHEDRAL.0>
22.4324

>  <SCORE.INTRA.POLAR>
1.3563

>  <SCORE.INTRA.POLAR.0>
-1.83749

>  <SCORE.INTRA.REPUL>
0

>  <SCORE.INTRA.REPUL.0>
0

>  <SCORE.INTRA.SOLV>
-0.596439

>  <SCORE.INTRA.SOLV.lig_0>
-160.638

>  <SCORE.INTRA.VDW>
19.2535

>  <SCORE.INTRA.VDW.0>
-7.61953

>  <SCORE.INTRA.norm>
0.651867

>  <SCORE.RESTR>
5.43442

>  <SCORE.RESTR.CAVITY>
5.43442

>  <SCORE.RESTR.norm>
0.129391

>  <SCORE.SYSTEM>
0

>  <SCORE.SYSTEM.CONST>
0

>  <SCORE.SYSTEM.DIHEDRAL>
0

>  <SCORE.SYSTEM.SOLV>
0

>  <SCORE.SYSTEM.norm>
0

>  <SCORE.heavy>
42

>  <SCORE.norm>
0.132851

>  <RMSD>
5.709

$$$$
1NEM.B
 OpenBabel11021811403D
libRbt.so/2013.1/901 2013/11/27
 42 45  0  0  0  0  0  0  0  0999 V2000
    1.7019   -4.8460    2.9241 O   0  0  0  0  0  0  0  0  0  0  0  0
    1.0895   -5.2168    1.6874 C   0  0  0  0  0  0  0  0  0  0  0  0
   -0.0677   -4.2997    1.2942 C   0  0  1  0  0  0  0  0  0  0  0  0
   -1.1902   -5.0626    0.8612 O   0  0  0  0  0  0  0  0  0  0  0  0
   -0.6335   -3.4678    2.4341 C   0  0  1  0  0  0  0  0  0  0  0  0
    0.3276   -2.4542    2.7379 O   0  0  0  0  0  0  0  0  0  0  0  0
   -1.9191   -3.0051    1.7746 C   0  0  1  0  0  0  0  0  0  0  0  0
   -1.6788   -2.0626    0.7243 O   0  0  0  0  0  0  0  0  0  0  0  0
   -2.3802   -4.3443    1.1875 C   0  0  2  0  0  0  0  0  0  0  0  0
    1.0028   -1.8954    1.6475 C   0  0  2  0  0  0  0  0  0  0  0  0
    2.2774   -2.7049    1.3725 C   0  0  2  0  0  0  0  0  0  0  0  0
    3.0891   -2.8157    2.6132 N   0  3  0  0  0  0  0  0  0  0  0  0
    3.0802   -2.0849    0.2243 C   0  0  1  0  0  0  0  0  0  0  0  0
    2.3922   -2.2868   -1.0031 O   0  0  0  0  0  0  0  0  0  0  0  0
    3.2998   -0.5858    0.4497 C   0  0  2  0  0  0  0  0  0  0  0  0
    4.1793   -0.3749    1.5471 O   0  0  0  0  0  0  0  0  0  0  0  0
    1.9604    0.0946    0.7177 C   0  0  1  0  0  0  0  0  0  0  0  0
    1.3196   -0.5244    1.8500 O   0  0  0  0  0  0  0  0  0  0  0  0
    2.0901    1.5798    1.0067 C   0  0  0  0  0  0  0  0  0  0  0  0
    2.6652    1.8337    2.3463 N   0  3  0  0  0  0  0  0  0  0  0  0
   -6.7556   -0.7666    3.1479 C   0  0  0  0  0  0  0  0  0  0  0  0
   -5.4224   -2.3267    0.0632 C   0  0  2  0  0  0  0  0  0  0  0  0
   -4.6470   -1.1605   -0.5448 C   0  0  2  0  0  0  0  0  0  0  0  0
   -3.6581   -1.6597   -1.5299 N   0  3  0  0  0  0  0  0  0  0  0  0
   -3.9230   -0.3853    0.5479 C   0  0  1  0  0  0  0  0  0  0  0  0
   -3.2702    0.7401   -0.0195 O   0  0  0  0  0  0  0  0  0  0  0  0
   -4.9281    0.0679    1.6045 C   0  0  2  0  0  0  0  0  0  0  0  0
   -4.2506    0.7326    2.6631 O   0  0  0  0  0  0  0  0  0  0  0  0
   -6.8141   -1.7204    4.2791 N   0  3  0  0  0  0  0  0  0  0  0  0
   -5.6733   -1.1475    2.1528 C   0  0  2  0  0  0  0  0  0  0  0  0
   -6.3114   -1.8650    1.0768 O   0  0  0  0  0  0  0  0  0  0  0  0
   -6.5761   -5.7706    3.3176 C   0  0  2  0  0  0  0  0  0  0  0  0
   -7.2058   -6.9675    3.9212 N   0  3  0  0  0  0  0  0  0  0  0  0
   -7.2545   -5.4366    1.9939 C   0  0  0  0  0  0  0  0  0  0  0  0
   -6.6156   -4.2087    1.3604 C   0  0  2  0  0  0  0  0  0  0  0  0
   -7.3066   -3.9431    0.1065 N   0  3  0  0  0  0  0  0  0  0  0  0
   -5.1297   -4.4646    1.1197 C   0  0  1  0  0  0  0  0  0  0  0  0
   -4.5267   -3.2882    0.5462 O   0  0  0  0  0  0  0  0  0  0  0  0
   -4.4176   -4.8142    2.4338 C   0  0  2  0  0  0  0  0  0  0  0  0
   -3.0447   -5.1511    2.1573 O   0  0  0  0  0  0  0  0  0  0  0  0
   -5.0780   -6.0028    3.1279 C   0  0  1  0  0  0  0  0  0  0  0  0
   -4.4672   -6.2118    4.3943 O   0  0  0  0  0  0  0  0  0  0  0  0
  1  2  1  0  0  0  0
  3  2  1  1  0  0  0
  3  5  1  0  0  0  0
  3  4  1  0  0  0  0
  4  9  1  0  0  0  0
  5  7  1  0  0  0  0
  5  6  1  6  0  0  0
  7  9  1  0  0  0  0
  7  8  1  6  0  0  0
  9 40  1  1  0  0  0
 10  6  1  1  0  0  0
 10 11  1  0  0  0  0
 10 18  1  0  0  0  0
 11 13  1  0  0  0  0
 11 12  1  1  0  0  0
 13 15  1  0  0  0  0
 13 14  1  6  0  0  0
 15 17  1  0  0  0  0
 15 16  1  1  0  0  0
 17 19  1  1  0  0  0
 17 18  1  0  0  0  0
 19 20  1  0  0  0  0
 21 29  1  0  0  0  0
 22 23  1  0  0  0  0
 22 31  1  0  0  0  0
 22 38  1  1  0  0  0
 23 25  1  0  0  0  0
 23 24  1  6  0  0  0
 25 27  1  0  0  0  0
 25 26  1  6  0  0  0
 27 30  1  0  0  0  0
 27 28  1  1  0  0  0
 30 21  1  1  0  0  0
 30 31  1  0  0  0  0
 32 34  1  0  0  0  0
 32 41  1  0  0  0  0
 32 33  1  6  0  0  0
 34 35  1  0  0  0  0
 35 37  1  0  0  0  0
 35 36  1  6  0  0  0
 37 39  1  0  0  0  0
 37 38  1  1  0  0  0
 39 41  1  0  0  0  0
 39 40  1  6  0  0  0
 41 42  1  1  0  0  0
M  CHG  6  12   1  20   1  24   1  29   1  33   1  36   1
M  END
>  <CHROM.1>
109.53854272,-134.31188476,37.79859272,-90.03620047,60.94795113,-166.22418035
9.20833881,-37.38991206,136.09633690,-72.74321629,-63.40745988,-140.75072158
-127.86482965,-178.52363969,35.71608534,-58.63662638,62.10695729,116.10265780
-103.26708922,-13.77798081,40.70704870,57.92812338,-2.22364696,-2.61263015
1.59698297,-0.32254319,-0.01174333,2.86511689

>  <Name>
1NEM.B

>  <RI>
0

>  <Rbt.Current_Directory>
/home/itssahil/PROJECTS/Mol_Feturizer/New_Systems/rnas/1nem

>  <Rbt.Executable>
rbdock ($Id: //depot/dev/client3/rdock/2013.1/src/exe/rbdock.cxx#4 $)

>  <Rbt.Library>
libRbt.so (2013.1, Build901 2013/11/27)

>  <Rbt.Parameter_File>
/export/apps/rDock/src/rDock_2013.1_src/data/scripts/dock_solv.prm

>  <Rbt.Receptor>
prm/blind_docking_40.prm

>  <SCORE>
12.3361

>  <SCORE.INTER>
-35.6697

>  <SCORE.INTER.CONST>
1

>  <SCORE.INTER.POLAR>
-5.78555

>  <SCORE.INTER.ROT>
9

>  <SCORE.INTER.SOLV>
42.1705

>  <SCORE.INTER.VDW>
-28.1514

>  <SCORE.INTER.norm>
-0.849278

>  <SCORE.INTRA>
45.3254

>  <SCORE.INTRA.DIHEDRAL>
31.488

>  <SCORE.INTRA.DIHEDRAL.0>
22.4324

>  <SCORE.INTRA.POLAR>
-0.626934

>  <SCORE.INTRA.POLAR.0>
-1.83749

>  <SCORE.INTRA.REPUL>
0

>  <SCORE.INTRA.REPUL.0>
0

>  <SCORE.INTRA.SOLV>
7.04105

>  <SCORE.INTRA.SOLV.lig_0>
-160.638

>  <SCORE.INTRA.VDW>
28.1924

>  <SCORE.INTRA.VDW.0>
-7.61953

>  <SCORE.INTRA.norm>
1.07918

>  <SCORE.RESTR>
2.68043

>  <SCORE.RESTR.CAVITY>
2.68043

>  <SCORE.RESTR.norm>
0.0638197

>  <SCORE.SYSTEM>
0

>  <SCORE.SYSTEM.CONST>
0

>  <SCORE.SYSTEM.DIHEDRAL>
0

>  <SCORE.SYSTEM.SOLV>
0

>  <SCORE.SYSTEM.norm>
0

>  <SCORE.heavy>
42

>  <SCORE.norm>
0.293718

>  <RMSD>
5.710

$$$$
1NEM.B
 OpenBabel11021811403D
libRbt.so/2013.1/901 2013/11/27
 42 45  0  0  0  0  0  0  0  0999 V2000
    3.1344   -3.0472    2.4001 O   0  0  0  0  0  0  0  0  0  0  0  0
    1.9378   -3.1644    3.1724 C   0  0  0  0  0  0  0  0  0  0  0  0
    0.8193   -3.8993    2.4350 C   0  0  1  0  0  0  0  0  0  0  0  0
   -0.0874   -4.4936    3.3592 O   0  0  0  0  0  0  0  0  0  0  0  0
   -0.0792   -3.0069    1.5937 C   0  0  1  0  0  0  0  0  0  0  0  0
    0.6767   -2.5997    0.4509 O   0  0  0  0  0  0  0  0  0  0  0  0
   -1.2136   -3.9824    1.3419 C   0  0  1  0  0  0  0  0  0  0  0  0
   -0.8291   -5.0423    0.4599 O   0  0  0  0  0  0  0  0  0  0  0  0
   -1.3867   -4.5184    2.7679 C   0  0  2  0  0  0  0  0  0  0  0  0
    1.2683   -1.3337    0.5197 C   0  0  2  0  0  0  0  0  0  0  0  0
    2.3180   -1.2044   -0.5924 C   0  0  2  0  0  0  0  0  0  0  0  0
    3.2752   -2.3400   -0.5251 N   0  3  0  0  0  0  0  0  0  0  0  0
    3.0358    0.1466   -0.5103 C   0  0  1  0  0  0  0  0  0  0  0  0
    2.1441    1.1853   -0.8932 O   0  0  0  0  0  0  0  0  0  0  0  0
    3.5553    0.4116    0.9061 C   0  0  2  0  0  0  0  0  0  0  0  0
    4.6150   -0.4836    1.2190 O   0  0  0  0  0  0  0  0  0  0  0  0
    2.4181    0.2435    1.9097 C   0  0  1  0  0  0  0  0  0  0  0  0
    1.8555   -1.0774    1.7888 O   0  0  0  0  0  0  0  0  0  0  0  0
    2.8574    0.4357    3.3506 C   0  0  0  0  0  0  0  0  0  0  0  0
    3.2487    1.8359    3.6267 N   0  3  0  0  0  0  0  0  0  0  0  0
   -2.4911    0.5481   -0.3817 C   0  0  0  0  0  0  0  0  0  0  0  0
   -3.7893   -1.8191    2.1558 C   0  0  2  0  0  0  0  0  0  0  0  0
   -5.1423   -1.1902    2.4796 C   0  0  2  0  0  0  0  0  0  0  0  0
   -6.0337   -2.1896    3.1154 N   0  3  0  0  0  0  0  0  0  0  0  0
   -5.7964   -0.6682    1.2072 C   0  0  1  0  0  0  0  0  0  0  0  0
   -7.0156   -0.0179    1.5311 O   0  0  0  0  0  0  0  0  0  0  0  0
   -4.8504    0.3062    0.5091 C   0  0  2  0  0  0  0  0  0  0  0  0
   -5.4249    0.7451   -0.7151 O   0  0  0  0  0  0  0  0  0  0  0  0
   -1.1152    0.0230   -0.2261 N   0  3  0  0  0  0  0  0  0  0  0  0
   -3.5177   -0.3873    0.2332 C   0  0  2  0  0  0  0  0  0  0  0  0
   -2.9576   -0.8925    1.4623 O   0  0  0  0  0  0  0  0  0  0  0  0
   -5.2465   -5.6071    4.5360 C   0  0  2  0  0  0  0  0  0  0  0  0
   -5.4019   -6.8294    5.3578 N   0  3  0  0  0  0  0  0  0  0  0  0
   -5.7378   -5.8676    3.1166 C   0  0  0  0  0  0  0  0  0  0  0  0
   -5.5819   -4.6195    2.2592 C   0  0  2  0  0  0  0  0  0  0  0  0
   -6.0681   -4.9328    0.9229 N   0  3  0  0  0  0  0  0  0  0  0  0
   -4.1147   -4.1987    2.2200 C   0  0  1  0  0  0  0  0  0  0  0  0
   -3.9798   -3.0011    1.4301 O   0  0  0  0  0  0  0  0  0  0  0  0
   -3.5851   -3.9378    3.6370 C   0  0  2  0  0  0  0  0  0  0  0  0
   -2.1761   -3.6458    3.5733 O   0  0  0  0  0  0  0  0  0  0  0  0
   -3.7884   -5.1508    4.5414 C   0  0  1  0  0  0  0  0  0  0  0  0
   -3.3997   -4.8232    5.8688 O   0  0  0  0  0  0  0  0  0  0  0  0
  1  2  1  0  0  0  0
  3  2  1  1  0  0  0
  3  5  1  0  0  0  0
  3  4  1  0  0  0  0
  4  9  1  0  0  0  0
  5  7  1  0  0  0  0
  5  6  1  6  0  0  0
  7  9  1  0  0  0  0
  7  8  1  6  0  0  0
  9 40  1  1  0  0  0
 10  6  1  1  0  0  0
 10 11  1  0  0  0  0
 10 18  1  0  0  0  0
 11 13  1  0  0  0  0
 11 12  1  1  0  0  0
 13 15  1  0  0  0  0
 13 14  1  1  0  0  0
 15 17  1  0  0  0  0
 15 16  1  1  0  0  0
 17 19  1  1  0  0  0
 17 18  1  0  0  0  0
 19 20  1  0  0  0  0
 21 29  1  0  0  0  0
 22 23  1  0  0  0  0
 22 31  1  0  0  0  0
 22 38  1  6  0  0  0
 23 25  1  0  0  0  0
 23 24  1  6  0  0  0
 25 27  1  0  0  0  0
 25 26  1  1  0  0  0
 27 30  1  0  0  0  0
 27 28  1  6  0  0  0
 30 21  1  1  0  0  0
 30 31  1  0  0  0  0
 32 34  1  0  0  0  0
 32 41  1  0  0  0  0
 32 33  1  1  0  0  0
 34 35  1  0  0  0  0
 35 37  1  0  0  0  0
 35 36  1  6  0  0  0
 37 39  1  0  0  0  0
 37 38  1  6  0  0  0
 39 41  1  0  0  0  0
 39 40  1  6  0  0  0
 41 42  1  1  0  0  0
M  CHG  6  12   1  20   1  24   1  29   1  33   1  36   1
M  END
>  <CHROM.1>
-57.56559260,154.88843403,-98.23608688,165.34215985,-21.37062567,-151.44296957
37.52408891,179.04139515,60.32275239,67.52999291,77.01833212,160.91643613
-43.02741662,-89.86773206,56.37142387,-64.76805662,167.92415171,-171.29690242
70.30086855,104.06615773,-46.64733391,157.24405501,-1.48802711,-2.23151200
1.84230170,-0.43212348,0.02775700,2.57365228

>  <Name>
1NEM.B

>  <RI>
0

>  <Rbt.Current_Directory>
/home/itssahil/PROJECTS/Mol_Feturizer/New_Systems/rnas/1nem

>  <Rbt.Executable>
rbdock ($Id: //depot/dev/client3/rdock/2013.1/src/exe/rbdock.cxx#4 $)

>  <Rbt.Library>
libRbt.so (2013.1, Build901 2013/11/27)

>  <Rbt.Parameter_File>
/export/apps/rDock/src/rDock_2013.1_src/data/scripts/dock_solv.prm

>  <Rbt.Receptor>
prm/blind_docking_60.prm

>  <SCORE>
23.7499

>  <SCORE.INTER>
-18.1143

>  <SCORE.INTER.CONST>
1

>  <SCORE.INTER.POLAR>
-3.50498

>  <SCORE.INTER.ROT>
9

>  <SCORE.INTER.SOLV>
33.5527

>  <SCORE.INTER.VDW>
-21.1772

>  <SCORE.INTER.norm>
-0.431293

>  <SCORE.INTRA>
34.9635

>  <SCORE.INTRA.DIHEDRAL>
11.7877

>  <SCORE.INTRA.DIHEDRAL.0>
22.4324

>  <SCORE.INTRA.POLAR>
1.00779

>  <SCORE.INTRA.POLAR.0>
-1.83749

>  <SCORE.INTRA.REPUL>
0.510569

>  <SCORE.INTRA.REPUL.0>
0

>  <SCORE.INTRA.SOLV>
8.84004

>  <SCORE.INTRA.SOLV.lig_0>
-160.638

>  <SCORE.INTRA.VDW>
18.6703

>  <SCORE.INTRA.VDW.0>
-7.61953

>  <SCORE.INTRA.norm>
0.832465

>  <SCORE.RESTR>
6.90067

>  <SCORE.RESTR.CAVITY>
6.90067

>  <SCORE.RESTR.norm>
0.164302

>  <SCORE.SYSTEM>
0

>  <SCORE.SYSTEM.CONST>
0

>  <SCORE.SYSTEM.DIHEDRAL>
0

>  <SCORE.SYSTEM.SOLV>
0

>  <SCORE.SYSTEM.norm>
0

>  <SCORE.heavy>
42

>  <SCORE.norm>
0.565474

>  <RMSD>
5.757

$$$$
1NEM.B
 OpenBabel11021811403D
libRbt.so/2013.1/901 2013/11/27
 42 45  0  0  0  0  0  0  0  0999 V2000
   -1.7024    0.9775   -0.7787 O   0  0  0  0  0  0  0  0  0  0  0  0
   -1.2325   -0.3488   -0.5293 C   0  0  0  0  0  0  0  0  0  0  0  0
   -1.8659   -0.9854    0.7069 C   0  0  1  0  0  0  0  0  0  0  0  0
   -3.2845   -1.0246    0.5822 O   0  0  0  0  0  0  0  0  0  0  0  0
   -1.4975   -2.4437    0.9288 C   0  0  1  0  0  0  0  0  0  0  0  0
   -0.1367   -2.4763    1.3651 O   0  0  0  0  0  0  0  0  0  0  0  0
   -2.5484   -2.7989    1.9639 C   0  0  1  0  0  0  0  0  0  0  0  0
   -2.3003   -2.1677    3.2245 O   0  0  0  0  0  0  0  0  0  0  0  0
   -3.7707   -2.1665    1.2880 C   0  0  2  0  0  0  0  0  0  0  0  0
    0.7048   -1.4895    0.8402 C   0  0  2  0  0  0  0  0  0  0  0  0
    1.8566   -2.1594    0.0786 C   0  0  2  0  0  0  0  0  0  0  0  0
    2.5360   -3.1528    0.9514 N   0  3  0  0  0  0  0  0  0  0  0  0
    2.8380   -1.1119   -0.4573 C   0  0  1  0  0  0  0  0  0  0  0  0
    2.2309   -0.3876   -1.5190 O   0  0  0  0  0  0  0  0  0  0  0  0
    3.2682   -0.1413    0.6469 C   0  0  2  0  0  0  0  0  0  0  0  0
    4.0760   -0.8113    1.6063 O   0  0  0  0  0  0  0  0  0  0  0  0
    2.0330    0.4451    1.3246 C   0  0  1  0  0  0  0  0  0  0  0  0
    1.2126   -0.6196    1.8434 O   0  0  0  0  0  0  0  0  0  0  0  0
    2.3672    1.3812    2.4727 C   0  0  0  0  0  0  0  0  0  0  0  0
    3.0650    2.6000    2.0065 N   0  3  0  0  0  0  0  0  0  0  0  0
   -5.7582   -5.6725    3.6853 C   0  0  0  0  0  0  0  0  0  0  0  0
   -7.0178   -2.2399    3.0868 C   0  0  2  0  0  0  0  0  0  0  0  0
   -6.3077   -1.4685    4.1966 C   0  0  2  0  0  0  0  0  0  0  0  0
   -6.2883   -0.0197    3.8830 N   0  3  0  0  0  0  0  0  0  0  0  0
   -4.8783   -1.9699    4.3525 C   0  0  1  0  0  0  0  0  0  0  0  0
   -4.2544   -1.2999    5.4371 O   0  0  0  0  0  0  0  0  0  0  0  0
   -4.8896   -3.4764    4.6021 C   0  0  2  0  0  0  0  0  0  0  0  0
   -3.5562   -3.9639    4.6799 O   0  0  0  0  0  0  0  0  0  0  0  0
   -7.0356   -6.0137    4.3523 N   0  3  0  0  0  0  0  0  0  0  0  0
   -5.6280   -4.1758    3.4625 C   0  0  2  0  0  0  0  0  0  0  0  0
   -6.9617   -3.6423    3.3345 O   0  0  0  0  0  0  0  0  0  0  0  0
   -7.0123   -5.6219   -0.1277 C   0  0  2  0  0  0  0  0  0  0  0  0
   -7.2527   -6.6100   -1.2043 N   0  3  0  0  0  0  0  0  0  0  0  0
   -8.1964   -4.6674   -0.0225 C   0  0  0  0  0  0  0  0  0  0  0  0
   -7.9620   -3.6439    1.0796 C   0  0  2  0  0  0  0  0  0  0  0  0
   -9.1240   -2.7678    1.1291 N   0  3  0  0  0  0  0  0  0  0  0  0
   -6.6924   -2.8484    0.7854 C   0  0  1  0  0  0  0  0  0  0  0  0
   -6.4624   -1.9016    1.8470 O   0  0  0  0  0  0  0  0  0  0  0  0
   -5.4805   -3.7825    0.6632 C   0  0  2  0  0  0  0  0  0  0  0  0
   -4.3227   -3.0146    0.2833 O   0  0  0  0  0  0  0  0  0  0  0  0
   -5.7123   -4.8633   -0.3898 C   0  0  1  0  0  0  0  0  0  0  0  0
   -4.6220   -5.7753   -0.3815 O   0  0  0  0  0  0  0  0  0  0  0  0
  1  2  1  0  0  0  0
  3  2  1  6  0  0  0
  3  5  1  0  0  0  0
  3  4  1  0  0  0  0
  4  9  1  0  0  0  0
  5  7  1  0  0  0  0
  5  6  1  1  0  0  0
  7  9  1  0  0  0  0
  7  8  1  1  0  0  0
  9 40  1  6  0  0  0
 10  6  1  1  0  0  0
 10 11  1  0  0  0  0
 10 18  1  0  0  0  0
 11 13  1  0  0  0  0
 11 12  1  1  0  0  0
 13 15  1  0  0  0  0
 13 14  1  6  0  0  0
 15 17  1  0  0  0  0
 15 16  1  1  0  0  0
 17 19  1  1  0  0  0
 17 18  1  0  0  0  0
 19 20  1  0  0  0  0
 21 29  1  0  0  0  0
 22 23  1  0  0  0  0
 22 31  1  0  0  0  0
 22 38  1  6  0  0  0
 23 25  1  0  0  0  0
 23 24  1  6  0  0  0
 25 27  1  0  0  0  0
 25 26  1  1  0  0  0
 27 30  1  0  0  0  0
 27 28  1  6  0  0  0
 30 21  1  1  0  0  0
 30 31  1  0  0  0  0
 32 34  1  0  0  0  0
 32 41  1  0  0  0  0
 32 33  1  6  0  0  0
 34 35  1  0  0  0  0
 35 37  1  0  0  0  0
 35 36  1  6  0  0  0
 37 39  1  0  0  0  0
 37 38  1  1  0  0  0
 39 41  1  0  0  0  0
 39 40  1  6  0  0  0
 41 42  1  1  0  0  0
M  CHG  6  12   1  20   1  24   1  29   1  33   1  36   1
M  END
>  <CHROM.1>
-169.93676737,58.03884613,-33.17409965,-120.30147716,69.24935530,-145.73668993
-19.16207336,-138.00128899,59.08998268,65.58781476,162.51805349,93.05822063
-159.34073132,159.63554878,165.73627549,65.50489658,64.63719381,64.21797623
-175.69228268,25.25713882,72.18144360,-87.63452615,-3.01146739,-2.32464357
1.61577179,-0.09434186,-0.39814645,-2.09963515

>  <Name>
1NEM.B

>  <RI>
0

>  <Rbt.Current_Directory>
/home/itssahil/PROJECTS/Mol_Feturizer/New_Systems/rnas/1nem

>  <Rbt.Executable>
rbdock ($Id: //depot/dev/client3/rdock/2013.1/src/exe/rbdock.cxx#4 $)

>  <Rbt.Library>
libRbt.so (2013.1, Build901 2013/11/27)

>  <Rbt.Parameter_File>
/export/apps/rDock/src/rDock_2013.1_src/data/scripts/dock_solv.prm

>  <Rbt.Receptor>
prm/blind_docking_100.prm

>  <SCORE>
83.4574

>  <SCORE.INTER>
51.749

>  <SCORE.INTER.CONST>
1

>  <SCORE.INTER.POLAR>
-5.22534

>  <SCORE.INTER.ROT>
9

>  <SCORE.INTER.SOLV>
52.2454

>  <SCORE.INTER.VDW>
24.902

>  <SCORE.INTER.norm>
1.23212

>  <SCORE.INTRA>
29.1187

>  <SCORE.INTRA.DIHEDRAL>
17.8446

>  <SCORE.INTRA.DIHEDRAL.0>
22.4324

>  <SCORE.INTRA.POLAR>
1.83712

>  <SCORE.INTRA.POLAR.0>
-1.83749

>  <SCORE.INTRA.REPUL>
0

>  <SCORE.INTRA.REPUL.0>
0

>  <SCORE.INTRA.SOLV>
-3.59378

>  <SCORE.INTRA.SOLV.lig_0>
-160.638

>  <SCORE.INTRA.VDW>
15.7471

>  <SCORE.INTRA.VDW.0>
-7.61953

>  <SCORE.INTRA.norm>
0.693303

>  <SCORE.RESTR>
2.58964

>  <SCORE.RESTR.CAVITY>
2.58964

>  <SCORE.RESTR.norm>
0.0616581

>  <SCORE.SYSTEM>
0

>  <SCORE.SYSTEM.CONST>
0

>  <SCORE.SYSTEM.DIHEDRAL>
0

>  <SCORE.SYSTEM.SOLV>
0

>  <SCORE.SYSTEM.norm>
0

>  <SCORE.heavy>
42

>  <SCORE.norm>
1.98708

>  <RMSD>
5.764

$$$$
1NEM.B
 OpenBabel11021811403D
libRbt.so/2013.1/901 2013/11/27
 42 45  0  0  0  0  0  0  0  0999 V2000
    2.1666    1.5541    2.4904 O   0  0  0  0  0  0  0  0  0  0  0  0
    2.8802    0.3736    2.8636 C   0  0  0  0  0  0  0  0  0  0  0  0
    2.5219   -0.8386    2.0051 C   0  0  1  0  0  0  0  0  0  0  0  0
    1.1192   -1.0845    2.0415 O   0  0  0  0  0  0  0  0  0  0  0  0
    2.8056   -0.6710    0.5208 C   0  0  1  0  0  0  0  0  0  0  0  0
    4.2240   -0.7209    0.3512 O   0  0  0  0  0  0  0  0  0  0  0  0
    2.0191   -1.8564   -0.0063 C   0  0  1  0  0  0  0  0  0  0  0  0
    2.6276   -3.1053    0.3389 O   0  0  0  0  0  0  0  0  0  0  0  0
    0.7267   -1.6592    0.7948 C   0  0  2  0  0  0  0  0  0  0  0  0
    4.9202    0.4643    0.6121 C   0  0  2  0  0  0  0  0  0  0  0  0
    5.1559    1.2135   -0.7064 C   0  0  2  0  0  0  0  0  0  0  0  0
    5.8103    0.3152   -1.6938 N   0  3  0  0  0  0  0  0  0  0  0  0
    5.9738    2.4875   -0.4711 C   0  0  1  0  0  0  0  0  0  0  0  0
    5.1792    3.4451    0.2161 O   0  0  0  0  0  0  0  0  0  0  0  0
    7.2380    2.1907    0.3414 C   0  0  2  0  0  0  0  0  0  0  0  0
    8.1489    1.4158   -0.4279 O   0  0  0  0  0  0  0  0  0  0  0  0
    6.8642    1.4406    1.6167 C   0  0  1  0  0  0  0  0  0  0  0  0
    6.1541    0.2332    1.2792 O   0  0  0  0  0  0  0  0  0  0  0  0
    8.0671    1.0566    2.4603 C   0  0  0  0  0  0  0  0  0  0  0  0
    7.7525   -0.0381    3.4050 N   0  3  0  0  0  0  0  0  0  0  0  0
   -0.2300    1.7293   -3.6003 C   0  0  0  0  0  0  0  0  0  0  0  0
   -0.4504    1.9127    0.0936 C   0  0  2  0  0  0  0  0  0  0  0  0
   -0.1656    3.3936    0.3320 C   0  0  2  0  0  0  0  0  0  0  0  0
   -0.6485    3.7996    1.6734 N   0  3  0  0  0  0  0  0  0  0  0  0
   -0.8568    4.2385   -0.7298 C   0  0  1  0  0  0  0  0  0  0  0  0
   -0.5214    5.6050   -0.5435 O   0  0  0  0  0  0  0  0  0  0  0  0
   -0.4186    3.7744   -2.1171 C   0  0  2  0  0  0  0  0  0  0  0  0
   -1.1120    4.5121   -3.1154 O   0  0  0  0  0  0  0  0  0  0  0  0
    0.1303    0.2972   -3.4892 N   0  3  0  0  0  0  0  0  0  0  0  0
   -0.7201    2.2853   -2.2747 C   0  0  2  0  0  0  0  0  0  0  0  0
   -0.0723    1.5347   -1.2274 O   0  0  0  0  0  0  0  0  0  0  0  0
   -3.5718   -2.2163    0.3533 C   0  0  2  0  0  0  0  0  0  0  0  0
   -4.0811   -3.5199   -0.1311 N   0  3  0  0  0  0  0  0  0  0  0  0
   -4.2990   -1.0778   -0.3531 C   0  0  0  0  0  0  0  0  0  0  0  0
   -3.7837    0.2694    0.1336 C   0  0  2  0  0  0  0  0  0  0  0  0
   -4.5161    1.3094   -0.5750 N   0  3  0  0  0  0  0  0  0  0  0  0
   -2.2849    0.3784   -0.1365 C   0  0  1  0  0  0  0  0  0  0  0  0
   -1.7999    1.6441    0.3524 O   0  0  0  0  0  0  0  0  0  0  0  0
   -1.5229   -0.7613    0.5539 C   0  0  2  0  0  0  0  0  0  0  0  0
   -0.1299   -0.6901    0.1945 O   0  0  0  0  0  0  0  0  0  0  0  0
   -2.0621   -2.1271    0.1362 C   0  0  1  0  0  0  0  0  0  0  0  0
   -1.4146   -3.1435    0.8899 O   0  0  0  0  0  0  0  0  0  0  0  0
  1  2  1  0  0  0  0
  3  2  1  1  0  0  0
  3  5  1  0  0  0  0
  3  4  1  0  0  0  0
  4  9  1  0  0  0  0
  5  7  1  0  0  0  0
  5  6  1  1  0  0  0
  7  9  1  0  0  0  0
  7  8  1  1  0  0  0
  9 40  1  6  0  0  0
 10  6  1  6  0  0  0
 10 11  1  0  0  0  0
 10 18  1  0  0  0  0
 11 13  1  0  0  0  0
 11 12  1  6  0  0  0
 13 15  1  0  0  0  0
 13 14  1  1  0  0  0
 15 17  1  0  0  0  0
 15 16  1  6  0  0  0
 17 19  1  6  0  0  0
 17 18  1  0  0  0  0
 19 20  1  0  0  0  0
 21 29  1  0  0  0  0
 22 23  1  0  0  0  0
 22 31  1  0  0  0  0
 22 38  1  6  0  0  0
 23 25  1  0  0  0  0
 23 24  1  1  0  0  0
 25 27  1  0  0  0  0
 25 26  1  1  0  0  0
 27 30  1  0  0  0  0
 27 28  1  6  0  0  0
 30 21  1  6  0  0  0
 30 31  1  0  0  0  0
 32 34  1  0  0  0  0
 32 41  1  0  0  0  0
 32 33  1  6  0  0  0
 34 35  1  0  0  0  0
 35 37  1  0  0  0  0
 35 36  1  6  0  0  0
 37 39  1  0  0  0  0
 37 38  1  1  0  0  0
 39 41  1  0  0  0  0
 39 40  1  6  0  0  0
 41 42  1  1  0  0  0
M  CHG  6  12   1  20   1  24   1  29   1  33   1  36   1
M  END
>  <CHROM.1>
175.09858390,-56.04379922,-81.46161459,-96.20624089,-28.72529935,-86.90161452
-76.63904277,-163.76672379,75.58294948,-160.17051733,61.68992070,150.30735226
172.95883097,165.48464073,148.87378021,-41.54714140,56.51049715,175.62815900
92.46808746,-176.15116644,177.91632553,-62.77448593,1.39652376,0.70592458
0.10720206,-0.02121653,0.17471479,2.78869575

>  <Name>
1NEM.B

>  <RI>
0

>  <Rbt.Current_Directory>
/home/itssahil/PROJECTS/Mol_Feturizer/New_Systems/rnas/1nem

>  <Rbt.Executable>
rbdock ($Id: //depot/dev/client3/rdock/2013.1/src/exe/rbdock.cxx#4 $)

>  <Rbt.Library>
libRbt.so (2013.1, Build901 2013/11/27)

>  <Rbt.Parameter_File>
/export/apps/rDock/src/rDock_2013.1_src/data/scripts/dock_solv.prm

>  <Rbt.Receptor>
prm/pocket_docking_8.prm

>  <SCORE>
-22.8285

>  <SCORE.INTER>
-31.9019

>  <SCORE.INTER.CONST>
1

>  <SCORE.INTER.POLAR>
-6.98123

>  <SCORE.INTER.ROT>
9

>  <SCORE.INTER.SOLV>
41.0816

>  <SCORE.INTER.VDW>
-21.291

>  <SCORE.INTER.norm>
-0.759569

>  <SCORE.INTRA>
9.07344

>  <SCORE.INTRA.DIHEDRAL>
5.3953

>  <SCORE.INTRA.DIHEDRAL.0>
22.4324

>  <SCORE.INTRA.POLAR>
1.00968

>  <SCORE.INTRA.POLAR.0>
-1.83749

>  <SCORE.INTRA.REPUL>
0.00883587

>  <SCORE.INTRA.REPUL.0>
0

>  <SCORE.INTRA.SOLV>
-5.77564

>  <SCORE.INTRA.SOLV.lig_0>
-160.638

>  <SCORE.INTRA.VDW>
5.78651

>  <SCORE.INTRA.VDW.0>
-7.61953

>  <SCORE.INTRA.norm>
0.216034

>  <SCORE.RESTR>
0

>  <SCORE.RESTR.CAVITY>
0

>  <SCORE.RESTR.norm>
0

>  <SCORE.SYSTEM>
0

>  <SCORE.SYSTEM.CONST>
0

>  <SCORE.SYSTEM.DIHEDRAL>
0

>  <SCORE.SYSTEM.SOLV>
0

>  <SCORE.SYSTEM.norm>
0

>  <SCORE.heavy>
42

>  <SCORE.norm>
-0.543535

>  <RMSD>
5.788

$$$$
1NEM.B
 OpenBabel11021811403D
libRbt.so/2013.1/901 2013/11/27
 42 45  0  0  0  0  0  0  0  0999 V2000
    1.8228   -5.5895    2.0070 O   0  0  0  0  0  0  0  0  0  0  0  0
    1.0662   -4.4358    2.3793 C   0  0  0  0  0  0  0  0  0  0  0  0
   -0.2909   -4.3595    1.6813 C   0  0  1  0  0  0  0  0  0  0  0  0
   -1.2340   -5.2159    2.3189 O   0  0  0  0  0  0  0  0  0  0  0  0
   -0.9618   -2.9967    1.7458 C   0  0  1  0  0  0  0  0  0  0  0  0
   -0.2404   -2.1263    0.8711 O   0  0  0  0  0  0  0  0  0  0  0  0
   -2.3563   -3.3976    1.3024 C   0  0  1  0  0  0  0  0  0  0  0  0
   -2.4005   -3.7567   -0.0826 O   0  0  0  0  0  0  0  0  0  0  0  0
   -2.5346   -4.6440    2.1773 C   0  0  2  0  0  0  0  0  0  0  0  0
    0.6495   -1.2354    1.4809 C   0  0  2  0  0  0  0  0  0  0  0  0
    1.2226   -0.2866    0.4195 C   0  0  2  0  0  0  0  0  0  0  0  0
    1.8016   -1.0684   -0.7047 N   0  3  0  0  0  0  0  0  0  0  0  0
    2.2527    0.6644    1.0373 C   0  0  1  0  0  0  0  0  0  0  0  0
    1.5930    1.6042    1.8754 O   0  0  0  0  0  0  0  0  0  0  0  0
    3.2974   -0.1053    1.8513 C   0  0  2  0  0  0  0  0  0  0  0  0
    4.1203   -0.8821    0.9901 O   0  0  0  0  0  0  0  0  0  0  0  0
    2.5967   -1.0118    2.8593 C   0  0  1  0  0  0  0  0  0  0  0  0
    1.6994   -1.9029    2.1689 O   0  0  0  0  0  0  0  0  0  0  0  0
    3.5591   -1.8560    3.6760 C   0  0  0  0  0  0  0  0  0  0  0  0
    4.4201   -1.0255    4.5471 N   0  3  0  0  0  0  0  0  0  0  0  0
   -4.7854   -0.6884    3.8642 C   0  0  0  0  0  0  0  0  0  0  0  0
   -5.7716   -3.0829    1.2146 C   0  0  2  0  0  0  0  0  0  0  0  0
   -5.4024   -2.2990   -0.0425 C   0  0  2  0  0  0  0  0  0  0  0  0
   -5.2736   -3.2162   -1.1999 N   0  3  0  0  0  0  0  0  0  0  0  0
   -4.0860   -1.5624    0.1662 C   0  0  1  0  0  0  0  0  0  0  0  0
   -3.7934   -0.7768   -0.9792 O   0  0  0  0  0  0  0  0  0  0  0  0
   -4.1893   -0.6714    1.4020 C   0  0  2  0  0  0  0  0  0  0  0  0
   -2.9422   -0.0330    1.6438 O   0  0  0  0  0  0  0  0  0  0  0  0
   -4.7848   -1.5303    5.0825 N   0  3  0  0  0  0  0  0  0  0  0  0
   -4.5761   -1.5207    2.6112 C   0  0  2  0  0  0  0  0  0  0  0  0
   -5.8084   -2.2229    2.3504 O   0  0  0  0  0  0  0  0  0  0  0  0
   -6.1199   -5.2300    5.3021 C   0  0  2  0  0  0  0  0  0  0  0  0
   -6.3492   -6.0389    6.5213 N   0  3  0  0  0  0  0  0  0  0  0  0
   -6.8125   -5.8783    4.1087 C   0  0  0  0  0  0  0  0  0  0  0  0
   -6.5833   -5.0582    2.8469 C   0  0  2  0  0  0  0  0  0  0  0  0
   -7.2683   -5.7270    1.7498 N   0  3  0  0  0  0  0  0  0  0  0  0
   -5.0864   -4.9468    2.5671 C   0  0  1  0  0  0  0  0  0  0  0  0
   -4.8769   -4.1458    1.3877 O   0  0  0  0  0  0  0  0  0  0  0  0
   -4.3565   -4.3058    3.7556 C   0  0  2  0  0  0  0  0  0  0  0  0
   -2.9384   -4.3110    3.5036 O   0  0  0  0  0  0  0  0  0  0  0  0
   -4.6215   -5.0687    5.0511 C   0  0  1  0  0  0  0  0  0  0  0  0
   -4.0312   -4.3725    6.1408 O   0  0  0  0  0  0  0  0  0  0  0  0
  1  2  1  0  0  0  0
  3  2  1  1  0  0  0
  3  5  1  0  0  0  0
  3  4  1  0  0  0  0
  4  9  1  0  0  0  0
  5  7  1  0  0  0  0
  5  6  1  6  0  0  0
  7  9  1  0  0  0  0
  7  8  1  6  0  0  0
  9 40  1  1  0  0  0
 10  6  1  6  0  0  0
 10 11  1  0  0  0  0
 10 18  1  0  0  0  0
 11 13  1  0  0  0  0
 11 12  1  6  0  0  0
 13 15  1  0  0  0  0
 13 14  1  1  0  0  0
 15 17  1  0  0  0  0
 15 16  1  6  0  0  0
 17 19  1  6  0  0  0
 17 18  1  0  0  0  0
 19 20  1  0  0  0  0
 21 29  1  0  0  0  0
 22 23  1  0  0  0  0
 22 31  1  0  0  0  0
 22 38  1  1  0  0  0
 23 25  1  0  0  0  0
 23 24  1  6  0  0  0
 25 27  1  0  0  0  0
 25 26  1  6  0  0  0
 27 30  1  0  0  0  0
 27 28  1  1  0  0  0
 30 21  1  1  0  0  0
 30 31  1  0  0  0  0
 32 34  1  0  0  0  0
 32 41  1  0  0  0  0
 32 33  1  1  0  0  0
 34 35  1  0  0  0  0
 35 37  1  0  0  0  0
 35 36  1  6  0  0  0
 37 39  1  0  0  0  0
 37 38  1  6  0  0  0
 39 41  1  0  0  0  0
 39 40  1  6  0  0  0
 41 42  1  1  0  0  0
M  CHG  6  12   1  20   1  24   1  29   1  33   1  36   1
M  END
>  <CHROM.1>
55.04236260,79.51986447,-101.94424909,-174.14252986,-46.34267984,-152.20869986
34.30627127,-174.11658571,174.27880251,65.09682651,176.45701767,-164.17493833
-45.12217340,178.10786283,91.79578135,30.94780806,68.36467714,65.82721703
66.57524538,35.63737928,11.36206211,-178.10888160,-2.11591404,-2.76555664
2.22219820,-0.35617453,0.20583320,2.23352534

>  <Name>
1NEM.B

>  <RI>
0

>  <Rbt.Current_Directory>
/home/itssahil/PROJECTS/Mol_Feturizer/New_Systems/rnas/1nem

>  <Rbt.Executable>
rbdock ($Id: //depot/dev/client3/rdock/2013.1/src/exe/rbdock.cxx#4 $)

>  <Rbt.Library>
libRbt.so (2013.1, Build901 2013/11/27)

>  <Rbt.Parameter_File>
/export/apps/rDock/src/rDock_2013.1_src/data/scripts/dock_solv.prm

>  <Rbt.Receptor>
prm/blind_docking_20.prm

>  <SCORE>
-19.1174

>  <SCORE.INTER>
-41.6909

>  <SCORE.INTER.CONST>
1

>  <SCORE.INTER.POLAR>
-7.05391

>  <SCORE.INTER.ROT>
9

>  <SCORE.INTER.SOLV>
42.0603

>  <SCORE.INTER.VDW>
-27.901

>  <SCORE.INTER.norm>
-0.99264

>  <SCORE.INTRA>
17.5546

>  <SCORE.INTRA.DIHEDRAL>
7.47182

>  <SCORE.INTRA.DIHEDRAL.0>
22.4324

>  <SCORE.INTRA.POLAR>
0.663523

>  <SCORE.INTRA.POLAR.0>
-1.83749

>  <SCORE.INTRA.REPUL>
0

>  <SCORE.INTRA.REPUL.0>
0

>  <SCORE.INTRA.SOLV>
1.5262

>  <SCORE.INTRA.SOLV.lig_0>
-160.638

>  <SCORE.INTRA.VDW>
10.7996

>  <SCORE.INTRA.VDW.0>
-7.61953

>  <SCORE.INTRA.norm>
0.417967

>  <SCORE.RESTR>
5.01888

>  <SCORE.RESTR.CAVITY>
5.01888

>  <SCORE.RESTR.norm>
0.119497

>  <SCORE.SYSTEM>
0

>  <SCORE.SYSTEM.CONST>
0

>  <SCORE.SYSTEM.DIHEDRAL>
0

>  <SCORE.SYSTEM.SOLV>
0

>  <SCORE.SYSTEM.norm>
0

>  <SCORE.heavy>
42

>  <SCORE.norm>
-0.455176

>  <RMSD>
5.790

$$$$
1NEM.B
 OpenBabel11021811403D
libRbt.so/2013.1/901 2013/11/27
 42 45  0  0  0  0  0  0  0  0999 V2000
    0.0389   -5.8709    0.9152 O   0  0  0  0  0  0  0  0  0  0  0  0
   -1.2606   -5.6621    1.4718 C   0  0  0  0  0  0  0  0  0  0  0  0
   -1.6884   -4.1952    1.4589 C   0  0  1  0  0  0  0  0  0  0  0  0
   -3.0290   -4.0576    1.9208 O   0  0  0  0  0  0  0  0  0  0  0  0
   -0.9035   -3.2971    2.4016 C   0  0  1  0  0  0  0  0  0  0  0  0
    0.4000   -3.1278    1.8400 O   0  0  0  0  0  0  0  0  0  0  0  0
   -1.8115   -2.0818    2.3823 C   0  0  1  0  0  0  0  0  0  0  0  0
   -1.7773   -1.4016    1.1232 O   0  0  0  0  0  0  0  0  0  0  0  0
   -3.1594   -2.7895    2.5638 C   0  0  2  0  0  0  0  0  0  0  0  0
    0.9363   -1.8370    1.8999 C   0  0  2  0  0  0  0  0  0  0  0  0
    1.4001   -1.4162    0.4987 C   0  0  2  0  0  0  0  0  0  0  0  0
    2.3165   -2.4423   -0.0650 N   0  3  0  0  0  0  0  0  0  0  0  0
    2.0542   -0.0312    0.5338 C   0  0  1  0  0  0  0  0  0  0  0  0
    1.0627    0.9594    0.7714 O   0  0  0  0  0  0  0  0  0  0  0  0
    3.1285    0.0455    1.6230 C   0  0  2  0  0  0  0  0  0  0  0  0
    4.2381   -0.7754    1.2810 O   0  0  0  0  0  0  0  0  0  0  0  0
    2.5398   -0.4043    2.9572 C   0  0  1  0  0  0  0  0  0  0  0  0
    2.0082   -1.7372    2.8284 O   0  0  0  0  0  0  0  0  0  0  0  0
    3.5538   -0.4113    4.0876 C   0  0  0  0  0  0  0  0  0  0  0  0
    4.9141   -0.7409    3.6072 N   0  3  0  0  0  0  0  0  0  0  0  0
   -5.2542    0.2581    2.3182 C   0  0  0  0  0  0  0  0  0  0  0  0
   -6.6087   -3.1474    1.7748 C   0  0  2  0  0  0  0  0  0  0  0  0
   -6.6046   -3.2256    0.2500 C   0  0  2  0  0  0  0  0  0  0  0  0
   -6.6646   -4.6395   -0.1914 N   0  3  0  0  0  0  0  0  0  0  0  0
   -5.3436   -2.5770   -0.3053 C   0  0  1  0  0  0  0  0  0  0  0  0
   -5.3884   -2.5868   -1.7239 O   0  0  0  0  0  0  0  0  0  0  0  0
   -5.2388   -1.1423    0.2072 C   0  0  2  0  0  0  0  0  0  0  0  0
   -4.0290   -0.5522   -0.2507 O   0  0  0  0  0  0  0  0  0  0  0  0
   -5.8772    0.2926    3.6613 N   0  3  0  0  0  0  0  0  0  0  0  0
   -5.2653   -1.1439    1.7344 C   0  0  2  0  0  0  0  0  0  0  0  0
   -6.4596   -1.7982    2.2090 O   0  0  0  0  0  0  0  0  0  0  0  0
   -6.2748   -3.0959    6.3938 C   0  0  2  0  0  0  0  0  0  0  0  0
   -6.2871   -3.2328    7.8684 N   0  3  0  0  0  0  0  0  0  0  0  0
   -7.0519   -4.2429    5.7575 C   0  0  0  0  0  0  0  0  0  0  0  0
   -7.0458   -4.1163    4.2405 C   0  0  2  0  0  0  0  0  0  0  0  0
   -7.8021   -5.2354    3.6967 N   0  3  0  0  0  0  0  0  0  0  0  0
   -5.6083   -4.1293    3.7261 C   0  0  1  0  0  0  0  0  0  0  0  0
   -5.6101   -3.9808    2.2928 O   0  0  0  0  0  0  0  0  0  0  0  0
   -4.7943   -2.9906    4.3561 C   0  0  2  0  0  0  0  0  0  0  0  0
   -3.4217   -3.0942    3.9319 O   0  0  0  0  0  0  0  0  0  0  0  0
   -4.8363   -3.0513    5.8809 C   0  0  1  0  0  0  0  0  0  0  0  0
   -4.1769   -1.9130    6.4194 O   0  0  0  0  0  0  0  0  0  0  0  0
  1  2  1  0  0  0  0
  3  2  1  1  0  0  0
  3  5  1  0  0  0  0
  3  4  1  0  0  0  0
  4  9  1  0  0  0  0
  5  7  1  0  0  0  0
  5  6  1  6  0  0  0
  7  9  1  0  0  0  0
  7  8  1  6  0  0  0
  9 40  1  1  0  0  0
 10  6  1  6  0  0  0
 10 11  1  0  0  0  0
 10 18  1  0  0  0  0
 11 13  1  0  0  0  0
 11 12  1  1  0  0  0
 13 15  1  0  0  0  0
 13 14  1  1  0  0  0
 15 17  1  0  0  0  0
 15 16  1  6  0  0  0
 17 19  1  1  0  0  0
 17 18  1  0  0  0  0
 19 20  1  0  0  0  0
 21 29  1  0  0  0  0
 22 23  1  0  0  0  0
 22 31  1  0  0  0  0
 22 38  1  1  0  0  0
 23 25  1  0  0  0  0
 23 24  1  1  0  0  0
 25 27  1  0  0  0  0
 25 26  1  6  0  0  0
 27 30  1  0  0  0  0
 27 28  1  1  0  0  0
 30 21  1  6  0  0  0
 30 31  1  0  0  0  0
 32 34  1  0  0  0  0
 32 41  1  0  0  0  0
 32 33  1  1  0  0  0
 34 35  1  0  0  0  0
 35 37  1  0  0  0  0
 35 36  1  6  0  0  0
 37 39  1  0  0  0  0
 37 38  1  6  0  0  0
 39 41  1  0  0  0  0
 39 40  1  6  0  0  0
 41 42  1  1  0  0  0
M  CHG  6  12   1  20   1  24   1  29   1  33   1  36   1
M  END
>  <CHROM.1>
-168.40962834,175.20312943,138.16157089,-127.96974735,166.46324042,-101.24323505
82.41485246,-176.03374090,-79.67030118,-32.36595007,60.73555125,154.17735059
74.14711158,-172.73415903,-175.63016326,-159.18713434,75.35821489,-147.25236324
90.57852469,35.23426873,70.36663235,53.81504651,-2.60352893,-2.39815348,2.37428282
0.17567626,-0.22641020,-1.55507718

>  <Name>
1NEM.B

>  <RI>
0

>  <Rbt.Current_Directory>
/home/itssahil/PROJECTS/Mol_Feturizer/New_Systems/rnas/1nem

>  <Rbt.Executable>
rbdock ($Id: //depot/dev/client3/rdock/2013.1/src/exe/rbdock.cxx#4 $)

>  <Rbt.Library>
libRbt.so (2013.1, Build901 2013/11/27)

>  <Rbt.Parameter_File>
/export/apps/rDock/src/rDock_2013.1_src/data/scripts/dock_solv.prm

>  <Rbt.Receptor>
prm/blind_docking_40.prm

>  <SCORE>
-20.4063

>  <SCORE.INTER>
-44.9194

>  <SCORE.INTER.CONST>
1

>  <SCORE.INTER.POLAR>
-6.78233

>  <SCORE.INTER.ROT>
9

>  <SCORE.INTER.SOLV>
41.3937

>  <SCORE.INTER.VDW>
-30.7364

>  <SCORE.INTER.norm>
-1.06951

>  <SCORE.INTRA>
21.109

>  <SCORE.INTRA.DIHEDRAL>
15.8182

>  <SCORE.INTRA.DIHEDRAL.0>
22.4324

>  <SCORE.INTRA.POLAR>
1.03118

>  <SCORE.INTRA.POLAR.0>
-1.83749

>  <SCORE.INTRA.REPUL>
0.282835

>  <SCORE.INTRA.REPUL.0>
0

>  <SCORE.INTRA.SOLV>
2.209

>  <SCORE.INTRA.SOLV.lig_0>
-160.638

>  <SCORE.INTRA.VDW>
7.17524

>  <SCORE.INTRA.VDW.0>
-7.61953

>  <SCORE.INTRA.norm>
0.502596

>  <SCORE.RESTR>
3.404

>  <SCORE.RESTR.CAVITY>
3.404

>  <SCORE.RESTR.norm>
0.0810477

>  <SCORE.SYSTEM>
0

>  <SCORE.SYSTEM.CONST>
0

>  <SCORE.SYSTEM.DIHEDRAL>
0

>  <SCORE.SYSTEM.SOLV>
0

>  <SCORE.SYSTEM.norm>
0

>  <SCORE.heavy>
42

>  <SCORE.norm>
-0.485865

>  <RMSD>
5.800

$$$$
1NEM.B
 OpenBabel11021811403D
libRbt.so/2013.1/901 2013/11/27
 42 45  0  0  0  0  0  0  0  0999 V2000
    2.8411    1.5607   -5.0271 O   0  0  0  0  0  0  0  0  0  0  0  0
    1.5968    1.0627   -4.5314 C   0  0  0  0  0  0  0  0  0  0  0  0
    1.3324    1.4531   -3.0780 C   0  0  1  0  0  0  0  0  0  0  0  0
    0.2562    0.6906   -2.5396 O   0  0  0  0  0  0  0  0  0  0  0  0
    2.4780    1.1571   -2.1232 C   0  0  1  0  0  0  0  0  0  0  0  0
    3.5140    2.1032   -2.3966 O   0  0  0  0  0  0  0  0  0  0  0  0
    1.7397    1.3235   -0.8082 C   0  0  1  0  0  0  0  0  0  0  0  0
    1.3976    2.6893   -0.5497 O   0  0  0  0  0  0  0  0  0  0  0  0
    0.4788    0.5168   -1.1401 C   0  0  2  0  0  0  0  0  0  0  0  0
    4.4522    2.3044   -1.3785 C   0  0  2  0  0  0  0  0  0  0  0  0
    4.3837    3.7637   -0.9084 C   0  0  2  0  0  0  0  0  0  0  0  0
    4.5237    4.6811   -2.0699 N   0  3  0  0  0  0  0  0  0  0  0  0
    5.4427    4.0418    0.1633 C   0  0  1  0  0  0  0  0  0  0  0  0
    5.0872    3.3790    1.3695 O   0  0  0  0  0  0  0  0  0  0  0  0
    6.8274    3.5714   -0.2925 C   0  0  2  0  0  0  0  0  0  0  0  0
    7.2972    4.3823   -1.3620 O   0  0  0  0  0  0  0  0  0  0  0  0
    6.7533    2.1137   -0.7380 C   0  0  1  0  0  0  0  0  0  0  0  0
    5.7740    1.9756   -1.7858 O   0  0  0  0  0  0  0  0  0  0  0  0
    8.0756    1.5785   -1.2590 C   0  0  0  0  0  0  0  0  0  0  0  0
    9.1547    1.6984   -0.2535 N   0  3  0  0  0  0  0  0  0  0  0  0
   -5.4012   -2.3821   -0.0115 C   0  0  0  0  0  0  0  0  0  0  0  0
   -2.2697   -0.4462   -0.4272 C   0  0  2  0  0  0  0  0  0  0  0  0
   -2.8092    0.9816   -0.4626 C   0  0  2  0  0  0  0  0  0  0  0  0
   -1.7258    1.9472   -0.1601 N   0  3  0  0  0  0  0  0  0  0  0  0
   -3.9291    1.1448    0.5563 C   0  0  1  0  0  0  0  0  0  0  0  0
   -4.4738    2.4519    0.4597 O   0  0  0  0  0  0  0  0  0  0  0  0
   -5.0142    0.1028    0.2941 C   0  0  2  0  0  0  0  0  0  0  0  0
   -6.0306    0.2034    1.2832 O   0  0  0  0  0  0  0  0  0  0  0  0
   -4.8283   -3.3762   -0.9477 N   0  3  0  0  0  0  0  0  0  0  0  0
   -4.3977   -1.2943    0.3294 C   0  0  2  0  0  0  0  0  0  0  0  0
   -3.3222   -1.3861   -0.6269 O   0  0  0  0  0  0  0  0  0  0  0  0
    1.6612   -3.1746    1.8584 C   0  0  2  0  0  0  0  0  0  0  0  0
    2.5748   -4.3396    1.8946 N   0  3  0  0  0  0  0  0  0  0  0  0
    0.2472   -3.6096    2.2267 C   0  0  0  0  0  0  0  0  0  0  0  0
   -0.7041   -2.4217    2.1914 C   0  0  2  0  0  0  0  0  0  0  0  0
   -2.0305   -2.9018    2.5523 N   0  3  0  0  0  0  0  0  0  0  0  0
   -0.7096   -1.8046    0.7948 C   0  0  1  0  0  0  0  0  0  0  0  0
   -1.5904   -0.6643    0.7774 O   0  0  0  0  0  0  0  0  0  0  0  0
    0.7036   -1.3641    0.3886 C   0  0  2  0  0  0  0  0  0  0  0  0
    0.6819   -0.8842   -0.9693 O   0  0  0  0  0  0  0  0  0  0  0  0
    1.6965   -2.5203    0.4783 C   0  0  1  0  0  0  0  0  0  0  0  0
    3.0084   -2.0405    0.2152 O   0  0  0  0  0  0  0  0  0  0  0  0
  1  2  1  0  0  0  0
  3  2  1  6  0  0  0
  3  5  1  0  0  0  0
  3  4  1  0  0  0  0
  4  9  1  0  0  0  0
  5  7  1  0  0  0  0
  5  6  1  1  0  0  0
  7  9  1  0  0  0  0
  7  8  1  6  0  0  0
  9 40  1  6  0  0  0
 10  6  1  6  0  0  0
 10 11  1  0  0  0  0
 10 18  1  0  0  0  0
 11 13  1  0  0  0  0
 11 12  1  6  0  0  0
 13 15  1  0  0  0  0
 13 14  1  1  0  0  0
 15 17  1  0  0  0  0
 15 16  1  6  0  0  0
 17 19  1  6  0  0  0
 17 18  1  0  0  0  0
 19 20  1  0  0  0  0
 21 29  1  0  0  0  0
 22 23  1  0  0  0  0
 22 31  1  0  0  0  0
 22 38  1  1  0  0  0
 23 25  1  0  0  0  0
 23 24  1  1  0  0  0
 25 27  1  0  0  0  0
 25 26  1  6  0  0  0
 27 30  1  0  0  0  0
 27 28  1  1  0  0  0
 30 21  1  6  0  0  0
 30 31  1  0  0  0  0
 32 34  1  0  0  0  0
 32 41  1  0  0  0  0
 32 33  1  6  0  0  0
 34 35  1  0  0  0  0
 35 37  1  0  0  0  0
 35 36  1  6  0  0  0
 37 39  1  0  0  0  0
 37 38  1  1  0  0  0
 39 41  1  0  0  0  0
 39 40  1  6  0  0  0
 41 42  1  1  0  0  0
M  CHG  6  12   1  20   1  24   1  29   1  33   1  36   1
M  END
>  <CHROM.1>
179.10498309,-166.52349528,159.63627992,-117.62436568,-175.81150827,-169.75701888
-61.02788885,-176.93210628,51.97900654,57.47022707,-176.95471610,135.69250336
87.03690140,-162.66969916,85.14706995,171.53682474,174.86121296,72.53108364
-167.34184553,-146.33478347,92.43925863,36.71272545,1.08131914,0.45178211
-0.43430943,0.41824719,-0.04574786,-0.50406238

>  <Name>
1NEM.B

>  <RI>
0

>  <Rbt.Current_Directory>
/home/itssahil/PROJECTS/Mol_Feturizer/New_Systems/rnas/1nem

>  <Rbt.Executable>
rbdock ($Id: //depot/dev/client3/rdock/2013.1/src/exe/rbdock.cxx#4 $)

>  <Rbt.Library>
libRbt.so (2013.1, Build901 2013/11/27)

>  <Rbt.Parameter_File>
/export/apps/rDock/src/rDock_2013.1_src/data/scripts/dock_solv.prm

>  <Rbt.Receptor>
prm/pocket_docking_6.prm

>  <SCORE>
-45.3034

>  <SCORE.INTER>
-57.6802

>  <SCORE.INTER.CONST>
1

>  <SCORE.INTER.POLAR>
-8.10368

>  <SCORE.INTER.ROT>
9

>  <SCORE.INTER.SOLV>
33.4369

>  <SCORE.INTER.VDW>
-32.1868

>  <SCORE.INTER.norm>
-1.37334

>  <SCORE.INTRA>
12.3768

>  <SCORE.INTRA.DIHEDRAL>
9.56678

>  <SCORE.INTRA.DIHEDRAL.0>
22.4324

>  <SCORE.INTRA.POLAR>
1.20738

>  <SCORE.INTRA.POLAR.0>
-1.83749

>  <SCORE.INTRA.REPUL>
0.0870807

>  <SCORE.INTRA.REPUL.0>
0

>  <SCORE.INTRA.SOLV>
-0.502498

>  <SCORE.INTRA.SOLV.lig_0>
-160.638

>  <SCORE.INTRA.VDW>
3.30412

>  <SCORE.INTRA.VDW.0>
-7.61953

>  <SCORE.INTRA.norm>
0.294685

>  <SCORE.RESTR>
0

>  <SCORE.RESTR.CAVITY>
0

>  <SCORE.RESTR.norm>
0

>  <SCORE.SYSTEM>
0

>  <SCORE.SYSTEM.CONST>
0

>  <SCORE.SYSTEM.DIHEDRAL>
0

>  <SCORE.SYSTEM.SOLV>
0

>  <SCORE.SYSTEM.norm>
0

>  <SCORE.heavy>
42

>  <SCORE.norm>
-1.07865

>  <RMSD>
5.819

$$$$
1NEM.B
 OpenBabel11021811403D
libRbt.so/2013.1/901 2013/11/27
 42 45  0  0  0  0  0  0  0  0999 V2000
    2.5514   -4.0983    1.6120 O   0  0  0  0  0  0  0  0  0  0  0  0
    1.4641   -4.4854    2.4546 C   0  0  0  0  0  0  0  0  0  0  0  0
    0.1025   -4.3499    1.7744 C   0  0  1  0  0  0  0  0  0  0  0  0
   -0.9160   -4.9618    2.5603 O   0  0  0  0  0  0  0  0  0  0  0  0
   -0.3906   -2.9199    1.6212 C   0  0  1  0  0  0  0  0  0  0  0  0
    0.4012   -2.3044    0.6027 O   0  0  0  0  0  0  0  0  0  0  0  0
   -1.8394   -3.2048    1.2722 C   0  0  1  0  0  0  0  0  0  0  0  0
   -1.9785   -3.7767   -0.0327 O   0  0  0  0  0  0  0  0  0  0  0  0
   -2.1395   -4.2580    2.3452 C   0  0  2  0  0  0  0  0  0  0  0  0
    1.0753   -1.1337    0.9663 C   0  0  2  0  0  0  0  0  0  0  0  0
    1.8578   -0.6039   -0.2430 C   0  0  2  0  0  0  0  0  0  0  0  0
    2.7291   -1.6742   -0.7958 N   0  3  0  0  0  0  0  0  0  0  0  0
    2.6633    0.6440    0.1328 C   0  0  1  0  0  0  0  0  0  0  0  0
    1.7793    1.7357    0.3499 O   0  0  0  0  0  0  0  0  0  0  0  0
    3.5010    0.4028    1.3924 C   0  0  2  0  0  0  0  0  0  0  0  0
    4.5423   -0.5272    1.1225 O   0  0  0  0  0  0  0  0  0  0  0  0
    2.6067   -0.1267    2.5099 C   0  0  1  0  0  0  0  0  0  0  0  0
    1.9455   -1.3301    2.0733 O   0  0  0  0  0  0  0  0  0  0  0  0
    3.3669   -0.4460    3.7851 C   0  0  0  0  0  0  0  0  0  0  0  0
    2.8684    0.3386    4.9365 N   0  3  0  0  0  0  0  0  0  0  0  0
   -6.0528   -2.1268    5.3973 C   0  0  0  0  0  0  0  0  0  0  0  0
   -6.0705   -4.1125    2.2694 C   0  0  2  0  0  0  0  0  0  0  0  0
   -6.2485   -3.0137    1.2245 C   0  0  2  0  0  0  0  0  0  0  0  0
   -5.8265   -3.5015   -0.1102 N   0  3  0  0  0  0  0  0  0  0  0  0
   -5.4196   -1.7928    1.6005 C   0  0  1  0  0  0  0  0  0  0  0  0
   -5.6536   -0.7519    0.6644 O   0  0  0  0  0  0  0  0  0  0  0  0
   -5.7986   -1.3308    3.0057 C   0  0  2  0  0  0  0  0  0  0  0  0
   -4.9806   -0.2337    3.3914 O   0  0  0  0  0  0  0  0  0  0  0  0
   -4.8936   -1.8803    6.2853 N   0  3  0  0  0  0  0  0  0  0  0  0
   -5.6103   -2.4843    3.9891 C   0  0  2  0  0  0  0  0  0  0  0  0
   -6.3874   -3.6248    3.5705 O   0  0  0  0  0  0  0  0  0  0  0  0
   -4.3014   -5.4857    6.3336 C   0  0  2  0  0  0  0  0  0  0  0  0
   -3.8177   -6.1167    7.5831 N   0  3  0  0  0  0  0  0  0  0  0  0
   -4.9456   -6.5355    5.4353 C   0  0  0  0  0  0  0  0  0  0  0  0
   -5.4459   -5.9011    4.1451 C   0  0  2  0  0  0  0  0  0  0  0  0
   -6.0485   -6.9512    3.3362 N   0  3  0  0  0  0  0  0  0  0  0  0
   -4.2821   -5.2447    3.4061 C   0  0  1  0  0  0  0  0  0  0  0  0
   -4.7685   -4.6225    2.2009 O   0  0  0  0  0  0  0  0  0  0  0  0
   -3.6039   -4.1874    4.2884 C   0  0  2  0  0  0  0  0  0  0  0  0
   -2.4501   -3.6635    3.6035 O   0  0  0  0  0  0  0  0  0  0  0  0
   -3.1497   -4.7792    5.6203 C   0  0  1  0  0  0  0  0  0  0  0  0
   -2.6424   -3.7435    6.4513 O   0  0  0  0  0  0  0  0  0  0  0  0
  1  2  1  0  0  0  0
  3  2  1  1  0  0  0
  3  5  1  0  0  0  0
  3  4  1  0  0  0  0
  4  9  1  0  0  0  0
  5  7  1  0  0  0  0
  5  6  1  6  0  0  0
  7  9  1  0  0  0  0
  7  8  1  6  0  0  0
  9 40  1  1  0  0  0
 10  6  1  6  0  0  0
 10 11  1  0  0  0  0
 10 18  1  0  0  0  0
 11 13  1  0  0  0  0
 11 12  1  1  0  0  0
 13 15  1  0  0  0  0
 13 14  1  1  0  0  0
 15 17  1  0  0  0  0
 15 16  1  6  0  0  0
 17 19  1  1  0  0  0
 17 18  1  0  0  0  0
 19 20  1  0  0  0  0
 21 29  1  0  0  0  0
 22 23  1  0  0  0  0
 22 31  1  0  0  0  0
 22 38  1  1  0  0  0
 23 25  1  0  0  0  0
 23 24  1  6  0  0  0
 25 27  1  0  0  0  0
 25 26  1  6  0  0  0
 27 30  1  0  0  0  0
 27 28  1  1  0  0  0
 30 21  1  1  0  0  0
 30 31  1  0  0  0  0
 32 34  1  0  0  0  0
 32 41  1  0  0  0  0
 32 33  1  1  0  0  0
 34 35  1  0  0  0  0
 35 37  1  0  0  0  0
 35 36  1  6  0  0  0
 37 39  1  0  0  0  0
 37 38  1  6  0  0  0
 39 41  1  0  0  0  0
 39 40  1  6  0  0  0
 41 42  1  1  0  0  0
M  CHG  6  12   1  20   1  24   1  29   1  33   1  36   1
M  END
>  <CHROM.1>
69.98053990,169.83218547,-123.54178458,-179.39417459,-68.85558041,-111.73854566
-71.78895255,173.09329540,177.22318311,120.75522996,165.48672535,-104.57098227
73.95476996,156.18809841,177.46543847,38.10148523,173.71246875,-22.42525782
91.32023305,32.31826201,-3.47466899,66.00376517,-1.92794558,-2.81990525,2.71954110
-0.47961793,0.17059953,2.16481232

>  <Name>
1NEM.B

>  <RI>
0

>  <Rbt.Current_Directory>
/home/itssahil/PROJECTS/Mol_Feturizer/New_Systems/rnas/1nem

>  <Rbt.Executable>
rbdock ($Id: //depot/dev/client3/rdock/2013.1/src/exe/rbdock.cxx#4 $)

>  <Rbt.Library>
libRbt.so (2013.1, Build901 2013/11/27)

>  <Rbt.Parameter_File>
/export/apps/rDock/src/rDock_2013.1_src/data/scripts/dock_solv.prm

>  <Rbt.Receptor>
prm/blind_docking_20.prm

>  <SCORE>
-12.5464

>  <SCORE.INTER>
-42.2747

>  <SCORE.INTER.CONST>
1

>  <SCORE.INTER.POLAR>
-4.85984

>  <SCORE.INTER.ROT>
9

>  <SCORE.INTER.SOLV>
41.1288

>  <SCORE.INTER.VDW>
-35.2933

>  <SCORE.INTER.norm>
-1.00654

>  <SCORE.INTRA>
20.5775

>  <SCORE.INTRA.DIHEDRAL>
23.7928

>  <SCORE.INTRA.DIHEDRAL.0>
22.4324

>  <SCORE.INTRA.POLAR>
-1.09734

>  <SCORE.INTRA.POLAR.0>
-1.83749

>  <SCORE.INTRA.REPUL>
0

>  <SCORE.INTRA.REPUL.0>
0

>  <SCORE.INTRA.SOLV>
-0.253857

>  <SCORE.INTRA.SOLV.lig_0>
-160.638

>  <SCORE.INTRA.VDW>
12.539

>  <SCORE.INTRA.VDW.0>
-7.61953

>  <SCORE.INTRA.norm>
0.489941

>  <SCORE.RESTR>
9.15075

>  <SCORE.RESTR.CAVITY>
9.15075

>  <SCORE.RESTR.norm>
0.217875

>  <SCORE.SYSTEM>
0

>  <SCORE.SYSTEM.CONST>
0

>  <SCORE.SYSTEM.DIHEDRAL>
0

>  <SCORE.SYSTEM.SOLV>
0

>  <SCORE.SYSTEM.norm>
0

>  <SCORE.heavy>
42

>  <SCORE.norm>
-0.298725

>  <RMSD>
5.829

$$$$
1NEM.B
 OpenBabel11021811403D
libRbt.so/2013.1/901 2013/11/27
 42 45  0  0  0  0  0  0  0  0999 V2000
   -0.0225   -5.9015    1.0006 O   0  0  0  0  0  0  0  0  0  0  0  0
   -1.4329   -5.7225    1.1450 C   0  0  0  0  0  0  0  0  0  0  0  0
   -1.8465   -4.2528    1.2057 C   0  0  1  0  0  0  0  0  0  0  0  0
   -3.1793   -4.1244    1.6922 O   0  0  0  0  0  0  0  0  0  0  0  0
   -1.0401   -3.4065    2.1778 C   0  0  1  0  0  0  0  0  0  0  0  0
    0.2573   -3.2233    1.6064 O   0  0  0  0  0  0  0  0  0  0  0  0
   -1.9363   -2.1833    2.2273 C   0  0  1  0  0  0  0  0  0  0  0  0
   -1.9125   -1.4459    1.0006 O   0  0  0  0  0  0  0  0  0  0  0  0
   -3.2885   -2.8863    2.3949 C   0  0  2  0  0  0  0  0  0  0  0  0
    0.8297   -1.9566    1.7649 C   0  0  2  0  0  0  0  0  0  0  0  0
    1.2688   -1.4245    0.3940 C   0  0  2  0  0  0  0  0  0  0  0  0
    2.1423   -2.4186   -0.2834 N   0  3  0  0  0  0  0  0  0  0  0  0
    1.9608   -0.0646    0.5330 C   0  0  1  0  0  0  0  0  0  0  0  0
    1.0029    0.9251    0.8846 O   0  0  0  0  0  0  0  0  0  0  0  0
    3.0642   -0.1117    1.5944 C   0  0  2  0  0  0  0  0  0  0  0  0
    4.1421   -0.9260    1.1505 O   0  0  0  0  0  0  0  0  0  0  0  0
    2.4978   -0.6636    2.8995 C   0  0  1  0  0  0  0  0  0  0  0  0
    1.9273   -1.9664    2.6684 O   0  0  0  0  0  0  0  0  0  0  0  0
    3.5398   -0.7962    3.9962 C   0  0  0  0  0  0  0  0  0  0  0  0
    4.8920   -0.4282    3.5207 N   0  3  0  0  0  0  0  0  0  0  0  0
   -5.4665    0.0542    2.3950 C   0  0  0  0  0  0  0  0  0  0  0  0
   -6.7816   -3.3417    1.7125 C   0  0  2  0  0  0  0  0  0  0  0  0
   -6.7257   -3.3776    0.1872 C   0  0  2  0  0  0  0  0  0  0  0  0
   -6.7624   -4.7790   -0.2948 N   0  3  0  0  0  0  0  0  0  0  0  0
   -5.4507   -2.7075   -0.3071 C   0  0  1  0  0  0  0  0  0  0  0  0
   -5.4476   -2.6782   -1.7261 O   0  0  0  0  0  0  0  0  0  0  0  0
   -5.3717   -1.2871    0.2479 C   0  0  2  0  0  0  0  0  0  0  0  0
   -4.1507   -0.6785   -0.1524 O   0  0  0  0  0  0  0  0  0  0  0  0
   -5.6931   -0.0093    3.8571 N   0  3  0  0  0  0  0  0  0  0  0  0
   -5.4495   -1.3312    1.7728 C   0  0  2  0  0  0  0  0  0  0  0  0
   -6.6552   -2.0043    2.1886 O   0  0  0  0  0  0  0  0  0  0  0  0
   -6.2979   -3.0616    6.3067 C   0  0  2  0  0  0  0  0  0  0  0  0
   -6.2598   -3.1167    7.7862 N   0  3  0  0  0  0  0  0  0  0  0  0
   -7.1174   -4.2264    5.7628 C   0  0  0  0  0  0  0  0  0  0  0  0
   -7.1634   -4.1839    4.2419 C   0  0  2  0  0  0  0  0  0  0  0  0
   -7.9583   -5.3162    3.7879 N   0  3  0  0  0  0  0  0  0  0  0  0
   -5.7456   -4.2533    3.6793 C   0  0  1  0  0  0  0  0  0  0  0  0
   -5.7961   -4.1841    2.2409 O   0  0  0  0  0  0  0  0  0  0  0  0
   -4.8896   -3.0978    4.2161 C   0  0  2  0  0  0  0  0  0  0  0  0
   -3.5351   -3.2515    3.7510 O   0  0  0  0  0  0  0  0  0  0  0  0
   -4.8781   -3.0735    5.7425 C   0  0  1  0  0  0  0  0  0  0  0  0
   -4.1799   -1.9204    6.1934 O   0  0  0  0  0  0  0  0  0  0  0  0
  1  2  1  0  0  0  0
  3  2  1  1  0  0  0
  3  5  1  0  0  0  0
  3  4  1  0  0  0  0
  4  9  1  0  0  0  0
  5  7  1  0  0  0  0
  5  6  1  6  0  0  0
  7  9  1  0  0  0  0
  7  8  1  6  0  0  0
  9 40  1  1  0  0  0
 10  6  1  6  0  0  0
 10 11  1  0  0  0  0
 10 18  1  0  0  0  0
 11 13  1  0  0  0  0
 11 12  1  1  0  0  0
 13 15  1  0  0  0  0
 13 14  1  1  0  0  0
 15 17  1  0  0  0  0
 15 16  1  6  0  0  0
 17 19  1  1  0  0  0
 17 18  1  0  0  0  0
 19 20  1  0  0  0  0
 21 29  1  0  0  0  0
 22 23  1  0  0  0  0
 22 31  1  0  0  0  0
 22 38  1  1  0  0  0
 23 25  1  0  0  0  0
 23 24  1  1  0  0  0
 25 27  1  0  0  0  0
 25 26  1  6  0  0  0
 27 30  1  0  0  0  0
 27 28  1  1  0  0  0
 30 21  1  1  0  0  0
 30 31  1  0  0  0  0
 32 34  1  0  0  0  0
 32 41  1  0  0  0  0
 32 33  1  1  0  0  0
 34 35  1  0  0  0  0
 35 37  1  0  0  0  0
 35 36  1  6  0  0  0
 37 39  1  0  0  0  0
 37 38  1  6  0  0  0
 39 41  1  0  0  0  0
 39 40  1  1  0  0  0
 41 42  1  6  0  0  0
M  CHG  6  12   1  20   1  24   1  29   1  33   1  36   1
M  END
>  <CHROM.1>
-173.24429682,-164.82706890,140.63143573,-127.49338769,-173.63456490,-103.94500214
67.02378197,-171.61090209,-87.94054619,-3.22589379,63.56667681,173.68088110
68.55726269,-179.48508116,-58.66566253,-158.31645514,175.62316426,-3.93969455
-29.66693602,36.37824913,77.02947759,-46.99628719,-2.70176222,-2.49159903
2.30087865,0.15763479,-0.24273287,-1.63475507

>  <Name>
1NEM.B

>  <RI>
0

>  <Rbt.Current_Directory>
/home/itssahil/PROJECTS/Mol_Feturizer/New_Systems/rnas/1nem

>  <Rbt.Executable>
rbdock ($Id: //depot/dev/client3/rdock/2013.1/src/exe/rbdock.cxx#4 $)

>  <Rbt.Library>
libRbt.so (2013.1, Build901 2013/11/27)

>  <Rbt.Parameter_File>
/export/apps/rDock/src/rDock_2013.1_src/data/scripts/dock_solv.prm

>  <Rbt.Receptor>
prm/blind_docking_40.prm

>  <SCORE>
-16.6921

>  <SCORE.INTER>
-46.1992

>  <SCORE.INTER.CONST>
1

>  <SCORE.INTER.POLAR>
-7.37723

>  <SCORE.INTER.ROT>
9

>  <SCORE.INTER.SOLV>
40.6265

>  <SCORE.INTER.VDW>
-29.3508

>  <SCORE.INTER.norm>
-1.09998

>  <SCORE.INTRA>
26.1593

>  <SCORE.INTRA.DIHEDRAL>
18.6339

>  <SCORE.INTRA.DIHEDRAL.0>
22.4324

>  <SCORE.INTRA.POLAR>
1.46441

>  <SCORE.INTRA.POLAR.0>
-1.83749

>  <SCORE.INTRA.REPUL>
0.407224

>  <SCORE.INTRA.REPUL.0>
0

>  <SCORE.INTRA.SOLV>
3.41989

>  <SCORE.INTRA.SOLV.lig_0>
-160.638

>  <SCORE.INTRA.VDW>
8.1173

>  <SCORE.INTRA.VDW.0>
-7.61953

>  <SCORE.INTRA.norm>
0.622841

>  <SCORE.RESTR>
3.34769

>  <SCORE.RESTR.CAVITY>
3.34769

>  <SCORE.RESTR.norm>
0.0797069

>  <SCORE.SYSTEM>
0

>  <SCORE.SYSTEM.CONST>
0

>  <SCORE.SYSTEM.DIHEDRAL>
0

>  <SCORE.SYSTEM.SOLV>
0

>  <SCORE.SYSTEM.norm>
0

>  <SCORE.heavy>
42

>  <SCORE.norm>
-0.397432

>  <RMSD>
5.853

$$$$
1NEM.B
 OpenBabel11021811403D
libRbt.so/2013.1/901 2013/11/27
 42 45  0  0  0  0  0  0  0  0999 V2000
    0.1644    1.4626   -3.6196 O   0  0  0  0  0  0  0  0  0  0  0  0
   -0.8342    2.4324   -3.2964 C   0  0  0  0  0  0  0  0  0  0  0  0
   -1.3643    2.2930   -1.8701 C   0  0  1  0  0  0  0  0  0  0  0  0
   -1.9697    1.0175   -1.6803 O   0  0  0  0  0  0  0  0  0  0  0  0
   -0.2956    2.3332   -0.7894 C   0  0  1  0  0  0  0  0  0  0  0  0
    0.1653    3.6832   -0.6979 O   0  0  0  0  0  0  0  0  0  0  0  0
   -1.1183    1.8188    0.3769 C   0  0  1  0  0  0  0  0  0  0  0  0
   -2.1011    2.7675    0.8051 O   0  0  0  0  0  0  0  0  0  0  0  0
   -1.7971    0.6317   -0.3165 C   0  0  2  0  0  0  0  0  0  0  0  0
    1.5385    3.8813   -0.8777 C   0  0  2  0  0  0  0  0  0  0  0  0
    1.9093    5.2990   -0.4214 C   0  0  2  0  0  0  0  0  0  0  0  0
    1.0447    6.2973   -1.1042 N   0  3  0  0  0  0  0  0  0  0  0  0
    3.3962    5.5783   -0.6632 C   0  0  1  0  0  0  0  0  0  0  0  0
    4.1794    4.8159    0.2455 O   0  0  0  0  0  0  0  0  0  0  0  0
    3.7968    5.2340   -2.1010 C   0  0  2  0  0  0  0  0  0  0  0  0
    3.1931    6.1428   -3.0130 O   0  0  0  0  0  0  0  0  0  0  0  0
    3.3656    3.8067   -2.4262 C   0  0  1  0  0  0  0  0  0  0  0  0
    1.9457    3.6705   -2.2234 O   0  0  0  0  0  0  0  0  0  0  0  0
    3.6762    3.3979   -3.8553 C   0  0  0  0  0  0  0  0  0  0  0  0
    4.8354    2.4809   -3.9280 N   0  3  0  0  0  0  0  0  0  0  0  0
   -4.4181   -4.4703    4.3740 C   0  0  0  0  0  0  0  0  0  0  0  0
   -2.6378   -3.6495    1.2301 C   0  0  2  0  0  0  0  0  0  0  0  0
   -3.8089   -3.4733    0.2665 C   0  0  2  0  0  0  0  0  0  0  0  0
   -3.3822   -2.6989   -0.9234 N   0  3  0  0  0  0  0  0  0  0  0  0
   -4.9530   -2.7446    0.9587 C   0  0  1  0  0  0  0  0  0  0  0  0
   -6.0627   -2.6558    0.0783 O   0  0  0  0  0  0  0  0  0  0  0  0
   -5.3470   -3.4994    2.2263 C   0  0  2  0  0  0  0  0  0  0  0  0
   -6.3678   -2.7888    2.9150 O   0  0  0  0  0  0  0  0  0  0  0  0
   -4.7820   -5.8645    4.0325 N   0  3  0  0  0  0  0  0  0  0  0  0
   -4.1247   -3.6500    3.1300 C   0  0  2  0  0  0  0  0  0  0  0  0
   -3.0604   -4.3136    2.4182 O   0  0  0  0  0  0  0  0  0  0  0  0
    1.9936   -1.1895    1.8924 C   0  0  2  0  0  0  0  0  0  0  0  0
    3.4503   -1.0837    1.6474 N   0  3  0  0  0  0  0  0  0  0  0  0
    1.6255   -2.6294    2.2320 C   0  0  0  0  0  0  0  0  0  0  0  0
    0.1295   -2.7537    2.4843 C   0  0  2  0  0  0  0  0  0  0  0  0
   -0.1548   -4.1457    2.8033 N   0  3  0  0  0  0  0  0  0  0  0  0
   -0.6430   -2.3106    1.2440 C   0  0  1  0  0  0  0  0  0  0  0  0
   -2.0578   -2.4044    1.5007 O   0  0  0  0  0  0  0  0  0  0  0  0
   -0.2871   -0.8654    0.8684 C   0  0  2  0  0  0  0  0  0  0  0  0
   -0.9505   -0.5149   -0.3611 O   0  0  0  0  0  0  0  0  0  0  0  0
    1.2172   -0.6931    0.6738 C   0  0  1  0  0  0  0  0  0  0  0  0
    1.5126    0.6794    0.4511 O   0  0  0  0  0  0  0  0  0  0  0  0
  1  2  1  0  0  0  0
  3  2  1  6  0  0  0
  3  5  1  0  0  0  0
  3  4  1  0  0  0  0
  4  9  1  0  0  0  0
  5  7  1  0  0  0  0
  5  6  1  1  0  0  0
  7  9  1  0  0  0  0
  7  8  1  6  0  0  0
  9 40  1  6  0  0  0
 10  6  1  6  0  0  0
 10 11  1  0  0  0  0
 10 18  1  0  0  0  0
 11 13  1  0  0  0  0
 11 12  1  6  0  0  0
 13 15  1  0  0  0  0
 13 14  1  1  0  0  0
 15 17  1  0  0  0  0
 15 16  1  6  0  0  0
 17 19  1  6  0  0  0
 17 18  1  0  0  0  0
 19 20  1  0  0  0  0
 21 29  1  0  0  0  0
 22 23  1  0  0  0  0
 22 31  1  0  0  0  0
 22 38  1  1  0  0  0
 23 25  1  0  0  0  0
 23 24  1  6  0  0  0
 25 27  1  0  0  0  0
 25 26  1  6  0  0  0
 27 30  1  0  0  0  0
 27 28  1  1  0  0  0
 30 21  1  1  0  0  0
 30 31  1  0  0  0  0
 32 34  1  0  0  0  0
 32 41  1  0  0  0  0
 32 33  1  6  0  0  0
 34 35  1  0  0  0  0
 35 37  1  0  0  0  0
 35 36  1  6  0  0  0
 37 39  1  0  0  0  0
 37 38  1  1  0  0  0
 39 41  1  0  0  0  0
 39 40  1  6  0  0  0
 41 42  1  1  0  0  0
M  CHG  6  12   1  20   1  24   1  29   1  33   1  36   1
M  END
>  <CHROM.1>
60.89118290,-60.87851140,-123.36206499,-166.53344838,-161.50471876,161.64969478
45.13853292,-172.86281027,69.87879975,105.05939006,-155.98796547,63.67702822
-44.52711378,-125.05127148,-88.38122239,63.01052535,176.79941697,33.89849236
-54.33571478,-87.65224162,123.35578806,-56.80096791,-0.46208396,0.27205403
0.09637288,0.94025374,-0.15177403,-0.58798961

>  <Name>
1NEM.B

>  <RI>
0

>  <Rbt.Current_Directory>
/home/itssahil/PROJECTS/Mol_Feturizer/New_Systems/rnas/1nem

>  <Rbt.Executable>
rbdock ($Id: //depot/dev/client3/rdock/2013.1/src/exe/rbdock.cxx#4 $)

>  <Rbt.Library>
libRbt.so (2013.1, Build901 2013/11/27)

>  <Rbt.Parameter_File>
/export/apps/rDock/src/rDock_2013.1_src/data/scripts/dock_solv.prm

>  <Rbt.Receptor>
prm/pocket_docking_6.prm

>  <SCORE>
-28.4344

>  <SCORE.INTER>
-38.642

>  <SCORE.INTER.CONST>
1

>  <SCORE.INTER.POLAR>
-6.45715

>  <SCORE.INTER.ROT>
9

>  <SCORE.INTER.SOLV>
33.3185

>  <SCORE.INTER.VDW>
-24.9437

>  <SCORE.INTER.norm>
-0.920049

>  <SCORE.INTRA>
10.106

>  <SCORE.INTRA.DIHEDRAL>
16.9591

>  <SCORE.INTRA.DIHEDRAL.0>
22.4324

>  <SCORE.INTRA.POLAR>
0.145593

>  <SCORE.INTRA.POLAR.0>
-1.83749

>  <SCORE.INTRA.REPUL>
0

>  <SCORE.INTRA.REPUL.0>
0

>  <SCORE.INTRA.SOLV>
-3.01706

>  <SCORE.INTRA.SOLV.lig_0>
-160.638

>  <SCORE.INTRA.VDW>
2.63991

>  <SCORE.INTRA.VDW.0>
-7.61953

>  <SCORE.INTRA.norm>
0.240618

>  <SCORE.RESTR>
0.101704

>  <SCORE.RESTR.CAVITY>
0.101704

>  <SCORE.RESTR.norm>
0.00242152

>  <SCORE.SYSTEM>
0

>  <SCORE.SYSTEM.CONST>
0

>  <SCORE.SYSTEM.DIHEDRAL>
0

>  <SCORE.SYSTEM.SOLV>
0

>  <SCORE.SYSTEM.norm>
0

>  <SCORE.heavy>
42

>  <SCORE.norm>
-0.677009

>  <RMSD>
5.925

$$$$
1NEM.B
 OpenBabel11021811403D
libRbt.so/2013.1/901 2013/11/27
 42 45  0  0  0  0  0  0  0  0999 V2000
   -3.7177    2.4697   -0.2291 O   0  0  0  0  0  0  0  0  0  0  0  0
   -4.0032    1.3374    0.5945 C   0  0  0  0  0  0  0  0  0  0  0  0
   -2.7729    0.8058    1.3284 C   0  0  1  0  0  0  0  0  0  0  0  0
   -3.1552   -0.0846    2.3727 O   0  0  0  0  0  0  0  0  0  0  0  0
   -1.8418   -0.0407    0.4752 C   0  0  1  0  0  0  0  0  0  0  0  0
   -1.1688    0.8433   -0.4242 O   0  0  0  0  0  0  0  0  0  0  0  0
   -0.9997   -0.6527    1.5789 C   0  0  1  0  0  0  0  0  0  0  0  0
   -0.1431    0.3101    2.2021 O   0  0  0  0  0  0  0  0  0  0  0  0
   -2.1245   -1.0586    2.5385 C   0  0  2  0  0  0  0  0  0  0  0  0
    0.0233    1.4088    0.0407 C   0  0  2  0  0  0  0  0  0  0  0  0
   -0.1819    2.9140    0.2589 C   0  0  2  0  0  0  0  0  0  0  0  0
   -0.7239    3.5395   -0.9761 N   0  3  0  0  0  0  0  0  0  0  0  0
    1.1217    3.5829    0.7069 C   0  0  1  0  0  0  0  0  0  0  0  0
    1.4318    3.1828    2.0352 O   0  0  0  0  0  0  0  0  0  0  0  0
    2.2806    3.2144   -0.2245 C   0  0  2  0  0  0  0  0  0  0  0  0
    2.0927    3.8052   -1.5043 O   0  0  0  0  0  0  0  0  0  0  0  0
    2.3683    1.6969   -0.3593 C   0  0  1  0  0  0  0  0  0  0  0  0
    1.1134    1.1793   -0.8425 O   0  0  0  0  0  0  0  0  0  0  0  0
    3.4605    1.2421   -1.3112 C   0  0  0  0  0  0  0  0  0  0  0  0
    4.5040    0.4539   -0.6185 N   0  3  0  0  0  0  0  0  0  0  0  0
   -7.5768   -5.0386   -0.2216 C   0  0  0  0  0  0  0  0  0  0  0  0
   -4.5748   -3.9139    1.6358 C   0  0  2  0  0  0  0  0  0  0  0  0
   -5.0494   -4.0620    3.0793 C   0  0  2  0  0  0  0  0  0  0  0  0
   -3.8877   -4.1144    3.9987 N   0  3  0  0  0  0  0  0  0  0  0  0
   -5.8722   -5.3341    3.2332 C   0  0  1  0  0  0  0  0  0  0  0  0
   -6.3719   -5.4204    4.5589 O   0  0  0  0  0  0  0  0  0  0  0  0
   -7.0284   -5.3187    2.2359 C   0  0  2  0  0  0  0  0  0  0  0  0
   -7.7609   -6.5340    2.3254 O   0  0  0  0  0  0  0  0  0  0  0  0
   -7.5378   -6.1685   -1.1780 N   0  3  0  0  0  0  0  0  0  0  0  0
   -6.4780   -5.1522    0.8208 C   0  0  2  0  0  0  0  0  0  0  0  0
   -5.6799   -3.9540    0.7368 O   0  0  0  0  0  0  0  0  0  0  0  0
    0.5313   -4.1663    1.8216 C   0  0  2  0  0  0  0  0  0  0  0  0
    1.9050   -3.6852    1.5483 N   0  3  0  0  0  0  0  0  0  0  0  0
    0.0764   -5.1036    0.7086 C   0  0  0  0  0  0  0  0  0  0  0  0
   -1.3361   -5.6046    0.9752 C   0  0  2  0  0  0  0  0  0  0  0  0
   -1.7084   -6.4916   -0.1178 N   0  3  0  0  0  0  0  0  0  0  0  0
   -2.2962   -4.4209    1.0671 C   0  0  1  0  0  0  0  0  0  0  0  0
   -3.6253   -4.9016    1.3475 O   0  0  0  0  0  0  0  0  0  0  0  0
   -1.8602   -3.4508    2.1739 C   0  0  2  0  0  0  0  0  0  0  0  0
   -2.7231   -2.2976    2.1646 O   0  0  0  0  0  0  0  0  0  0  0  0
   -0.4217   -2.9815    1.9705 C   0  0  1  0  0  0  0  0  0  0  0  0
   -0.0205   -2.1877    3.0794 O   0  0  0  0  0  0  0  0  0  0  0  0
  1  2  1  0  0  0  0
  3  2  1  6  0  0  0
  3  5  1  0  0  0  0
  3  4  1  0  0  0  0
  4  9  1  0  0  0  0
  5  7  1  0  0  0  0
  5  6  1  6  0  0  0
  7  9  1  0  0  0  0
  7  8  1  1  0  0  0
  9 40  1  6  0  0  0
 10  6  1  6  0  0  0
 10 11  1  0  0  0  0
 10 18  1  0  0  0  0
 11 13  1  0  0  0  0
 11 12  1  6  0  0  0
 13 15  1  0  0  0  0
 13 14  1  1  0  0  0
 15 17  1  0  0  0  0
 15 16  1  6  0  0  0
 17 19  1  6  0  0  0
 17 18  1  0  0  0  0
 19 20  1  0  0  0  0
 21 29  1  0  0  0  0
 22 23  1  0  0  0  0
 22 31  1  0  0  0  0
 22 38  1  6  0  0  0
 23 25  1  0  0  0  0
 23 24  1  1  0  0  0
 25 27  1  0  0  0  0
 25 26  1  1  0  0  0
 27 30  1  0  0  0  0
 27 28  1  6  0  0  0
 30 21  1  6  0  0  0
 30 31  1  0  0  0  0
 32 34  1  0  0  0  0
 32 41  1  0  0  0  0
 32 33  1  6  0  0  0
 34 35  1  0  0  0  0
 35 37  1  0  0  0  0
 35 36  1  6  0  0  0
 37 39  1  0  0  0  0
 37 38  1  1  0  0  0
 39 41  1  0  0  0  0
 39 40  1  6  0  0  0
 41 42  1  1  0  0  0
M  CHG  6  12   1  20   1  24   1  29   1  33   1  36   1
M  END
>  <CHROM.1>
172.44126380,165.40708115,88.59566994,-111.35418844,59.34175605,176.74422115
-36.48582870,-138.39174514,108.89069463,116.58470344,169.97136216,-116.54854063
134.27645070,-114.92120482,-177.71317371,-104.20637748,173.26600338,80.78574541
-174.39143684,171.77923034,-147.15861858,-46.42996621,-1.93954207,-1.66242781
1.07854039,0.83111750,0.04642898,-0.19650803

>  <Name>
1NEM.B

>  <RI>
0

>  <Rbt.Current_Directory>
/home/itssahil/PROJECTS/Mol_Feturizer/New_Systems/rnas/1nem

>  <Rbt.Executable>
rbdock ($Id: //depot/dev/client3/rdock/2013.1/src/exe/rbdock.cxx#4 $)

>  <Rbt.Library>
libRbt.so (2013.1, Build901 2013/11/27)

>  <Rbt.Parameter_File>
/export/apps/rDock/src/rDock_2013.1_src/data/scripts/dock_solv.prm

>  <Rbt.Receptor>
prm/blind_docking_80.prm

>  <SCORE>
287.529

>  <SCORE.INTER>
207.683

>  <SCORE.INTER.CONST>
1

>  <SCORE.INTER.POLAR>
-2.69331

>  <SCORE.INTER.ROT>
9

>  <SCORE.INTER.SOLV>
43.9875

>  <SCORE.INTER.VDW>
123.17

>  <SCORE.INTER.norm>
4.94483

>  <SCORE.INTRA>
51.4227

>  <SCORE.INTRA.DIHEDRAL>
36.2796

>  <SCORE.INTRA.DIHEDRAL.0>
22.4324

>  <SCORE.INTRA.POLAR>
1.04997

>  <SCORE.INTRA.POLAR.0>
-1.83749

>  <SCORE.INTRA.REPUL>
0.154345

>  <SCORE.INTRA.REPUL.0>
0

>  <SCORE.INTRA.SOLV>
-2.30346

>  <SCORE.INTRA.SOLV.lig_0>
-160.638

>  <SCORE.INTRA.VDW>
30.0931

>  <SCORE.INTRA.VDW.0>
-7.61953

>  <SCORE.INTRA.norm>
1.22435

>  <SCORE.RESTR>
28.4233

>  <SCORE.RESTR.CAVITY>
28.4233

>  <SCORE.RESTR.norm>
0.676746

>  <SCORE.SYSTEM>
0

>  <SCORE.SYSTEM.CONST>
0

>  <SCORE.SYSTEM.DIHEDRAL>
0

>  <SCORE.SYSTEM.SOLV>
0

>  <SCORE.SYSTEM.norm>
0

>  <SCORE.heavy>
42

>  <SCORE.norm>
6.84593

>  <RMSD>
6.004

$$$$
1NEM.B
 OpenBabel11021811403D
libRbt.so/2013.1/901 2013/11/27
 42 45  0  0  0  0  0  0  0  0999 V2000
   -2.5836   -4.5020    5.6641 O   0  0  0  0  0  0  0  0  0  0  0  0
   -2.3961   -3.4912    4.6715 C   0  0  0  0  0  0  0  0  0  0  0  0
   -2.1580   -4.0617    3.2742 C   0  0  1  0  0  0  0  0  0  0  0  0
   -3.3805   -4.5155    2.7006 O   0  0  0  0  0  0  0  0  0  0  0  0
   -1.6507   -3.0537    2.2553 C   0  0  1  0  0  0  0  0  0  0  0  0
   -0.2903   -2.7644    2.5851 O   0  0  0  0  0  0  0  0  0  0  0  0
   -1.8838   -3.8577    0.9899 C   0  0  1  0  0  0  0  0  0  0  0  0
   -0.9843   -4.9659    0.8804 O   0  0  0  0  0  0  0  0  0  0  0  0
   -3.3035   -4.3567    1.2838 C   0  0  2  0  0  0  0  0  0  0  0  0
    0.4927   -2.2225    1.5601 C   0  0  2  0  0  0  0  0  0  0  0  0
    1.7387   -3.0958    1.3596 C   0  0  2  0  0  0  0  0  0  0  0  0
    2.4494   -3.2758    2.6529 N   0  3  0  0  0  0  0  0  0  0  0  0
    2.6564   -2.4988    0.2877 C   0  0  1  0  0  0  0  0  0  0  0  0
    2.0512   -2.6381   -0.9909 O   0  0  0  0  0  0  0  0  0  0  0  0
    2.9391   -1.0188    0.5639 C   0  0  2  0  0  0  0  0  0  0  0  0
    3.7451   -0.8786    1.7269 O   0  0  0  0  0  0  0  0  0  0  0  0
    1.6221   -0.2707    0.7498 C   0  0  1  0  0  0  0  0  0  0  0  0
    0.8670   -0.8754    1.8175 O   0  0  0  0  0  0  0  0  0  0  0  0
    1.8097    1.1990    1.0825 C   0  0  0  0  0  0  0  0  0  0  0  0
    2.5184    1.3883    2.3677 N   0  3  0  0  0  0  0  0  0  0  0  0
   -3.5725   -1.4044   -0.9632 C   0  0  0  0  0  0  0  0  0  0  0  0
   -4.8477   -1.4724    2.5148 C   0  0  2  0  0  0  0  0  0  0  0  0
   -4.6642   -0.0130    2.9239 C   0  0  2  0  0  0  0  0  0  0  0  0
   -5.5180    0.3032    4.0938 N   0  3  0  0  0  0  0  0  0  0  0  0
   -5.0329    0.9065    1.7674 C   0  0  1  0  0  0  0  0  0  0  0  0
   -4.7845    2.2551    2.1335 O   0  0  0  0  0  0  0  0  0  0  0  0
   -4.2081    0.5358    0.5369 C   0  0  2  0  0  0  0  0  0  0  0  0
   -4.5956    1.3440   -0.5668 O   0  0  0  0  0  0  0  0  0  0  0  0
   -2.2133   -0.8194   -0.9050 N   0  3  0  0  0  0  0  0  0  0  0  0
   -4.4306   -0.9373    0.1997 C   0  0  2  0  0  0  0  0  0  0  0  0
   -4.1007   -1.7615    1.3361 O   0  0  0  0  0  0  0  0  0  0  0  0
   -7.5359   -5.0255   -0.0019 C   0  0  2  0  0  0  0  0  0  0  0  0
   -7.8983   -5.8388   -1.1853 N   0  3  0  0  0  0  0  0  0  0  0  0
   -8.3918   -3.7648    0.0458 C   0  0  0  0  0  0  0  0  0  0  0  0
   -8.0283   -2.9172    1.2570 C   0  0  2  0  0  0  0  0  0  0  0  0
   -8.8783   -1.7350    1.2451 N   0  3  0  0  0  0  0  0  0  0  0  0
   -6.5533   -2.5281    1.1923 C   0  0  1  0  0  0  0  0  0  0  0  0
   -6.2107   -1.7502    2.3558 O   0  0  0  0  0  0  0  0  0  0  0  0
   -5.6628   -3.7770    1.1330 C   0  0  2  0  0  0  0  0  0  0  0  0
   -4.2893   -3.3761    0.9677 O   0  0  0  0  0  0  0  0  0  0  0  0
   -6.0475   -4.6824   -0.0345 C   0  0  1  0  0  0  0  0  0  0  0  0
   -5.2841   -5.8801    0.0225 O   0  0  0  0  0  0  0  0  0  0  0  0
  1  2  1  0  0  0  0
  3  2  1  1  0  0  0
  3  5  1  0  0  0  0
  3  4  1  0  0  0  0
  4  9  1  0  0  0  0
  5  7  1  0  0  0  0
  5  6  1  1  0  0  0
  7  9  1  0  0  0  0
  7  8  1  1  0  0  0
  9 40  1  1  0  0  0
 10  6  1  1  0  0  0
 10 11  1  0  0  0  0
 10 18  1  0  0  0  0
 11 13  1  0  0  0  0
 11 12  1  1  0  0  0
 13 15  1  0  0  0  0
 13 14  1  6  0  0  0
 15 17  1  0  0  0  0
 15 16  1  1  0  0  0
 17 19  1  1  0  0  0
 17 18  1  0  0  0  0
 19 20  1  0  0  0  0
 21 29  1  0  0  0  0
 22 23  1  0  0  0  0
 22 31  1  0  0  0  0
 22 38  1  6  0  0  0
 23 25  1  0  0  0  0
 23 24  1  1  0  0  0
 25 27  1  0  0  0  0
 25 26  1  1  0  0  0
 27 30  1  0  0  0  0
 27 28  1  6  0  0  0
 30 21  1  6  0  0  0
 30 31  1  0  0  0  0
 32 34  1  0  0  0  0
 32 41  1  0  0  0  0
 32 33  1  6  0  0  0
 34 35  1  0  0  0  0
 35 37  1  0  0  0  0
 35 36  1  6  0  0  0
 37 39  1  0  0  0  0
 37 38  1  1  0  0  0
 39 41  1  0  0  0  0
 39 40  1  6  0  0  0
 41 42  1  1  0  0  0
M  CHG  6  12   1  20   1  24   1  29   1  33   1  36   1
M  END
>  <CHROM.1>
-175.22845466,76.79075916,159.67530236,-124.66018098,58.71341036,-68.95555771
-139.55577388,-32.45288772,57.57477518,-62.62120597,-177.88892344,39.39289526
-72.71975474,136.44926738,-162.97164718,-163.60336322,75.35576300,-159.77119053
-174.36844795,172.02060529,162.15352278,-85.75494199,-2.79465543,-2.17754711
1.38786520,-0.18671904,0.05220435,-3.09652499

>  <Name>
1NEM.B

>  <RI>
0

>  <Rbt.Current_Directory>
/home/itssahil/PROJECTS/Mol_Feturizer/New_Systems/rnas/1nem

>  <Rbt.Executable>
rbdock ($Id: //depot/dev/client3/rdock/2013.1/src/exe/rbdock.cxx#4 $)

>  <Rbt.Library>
libRbt.so (2013.1, Build901 2013/11/27)

>  <Rbt.Parameter_File>
/export/apps/rDock/src/rDock_2013.1_src/data/scripts/dock_solv.prm

>  <Rbt.Receptor>
prm/blind_docking_60.prm

>  <SCORE>
104.199

>  <SCORE.INTER>
65.1698

>  <SCORE.INTER.CONST>
1

>  <SCORE.INTER.POLAR>
-6.47714

>  <SCORE.INTER.ROT>
9

>  <SCORE.INTER.SOLV>
65.7608

>  <SCORE.INTER.VDW>
33.5168

>  <SCORE.INTER.norm>
1.55166

>  <SCORE.INTRA>
36.0837

>  <SCORE.INTRA.DIHEDRAL>
10.8705

>  <SCORE.INTRA.DIHEDRAL.0>
22.4324

>  <SCORE.INTRA.POLAR>
1.20568

>  <SCORE.INTRA.POLAR.0>
-1.83749

>  <SCORE.INTRA.REPUL>
0.260979

>  <SCORE.INTRA.REPUL.0>
0

>  <SCORE.INTRA.SOLV>
-1.65999

>  <SCORE.INTRA.SOLV.lig_0>
-160.638

>  <SCORE.INTRA.VDW>
26.0742

>  <SCORE.INTRA.VDW.0>
-7.61953

>  <SCORE.INTRA.norm>
0.859135

>  <SCORE.RESTR>
2.94563

>  <SCORE.RESTR.CAVITY>
2.94563

>  <SCORE.RESTR.norm>
0.070134

>  <SCORE.SYSTEM>
0

>  <SCORE.SYSTEM.CONST>
0

>  <SCORE.SYSTEM.DIHEDRAL>
0

>  <SCORE.SYSTEM.SOLV>
0

>  <SCORE.SYSTEM.norm>
0

>  <SCORE.heavy>
42

>  <SCORE.norm>
2.48093

>  <RMSD>
6.044

$$$$
1NEM.B
 OpenBabel11021811403D
libRbt.so/2013.1/901 2013/11/27
 42 45  0  0  0  0  0  0  0  0999 V2000
   -0.5851   -6.3194    1.3363 O   0  0  0  0  0  0  0  0  0  0  0  0
   -0.2308   -5.0559    0.7706 C   0  0  0  0  0  0  0  0  0  0  0  0
   -1.0183   -3.8908    1.3681 C   0  0  1  0  0  0  0  0  0  0  0  0
   -2.4189   -4.1425    1.3006 O   0  0  0  0  0  0  0  0  0  0  0  0
   -0.7795   -3.6581    2.8515 C   0  0  1  0  0  0  0  0  0  0  0  0
    0.5303   -3.1024    2.9888 O   0  0  0  0  0  0  0  0  0  0  0  0
   -1.9428   -2.7266    3.1358 C   0  0  1  0  0  0  0  0  0  0  0  0
   -1.7639   -1.4397    2.5349 O   0  0  0  0  0  0  0  0  0  0  0  0
   -3.0494   -3.4998    2.4088 C   0  0  2  0  0  0  0  0  0  0  0  0
    0.9037   -2.1549    2.0297 C   0  0  2  0  0  0  0  0  0  0  0  0
    1.7409   -2.8398    0.9409 C   0  0  2  0  0  0  0  0  0  0  0  0
    2.8750   -3.5773    1.5575 N   0  3  0  0  0  0  0  0  0  0  0  0
    2.2251   -1.8213   -0.0962 C   0  0  1  0  0  0  0  0  0  0  0  0
    1.1246   -1.3754   -0.8777 O   0  0  0  0  0  0  0  0  0  0  0  0
    2.8958   -0.6210    0.5788 C   0  0  2  0  0  0  0  0  0  0  0  0
    4.1255   -1.0135    1.1756 O   0  0  0  0  0  0  0  0  0  0  0  0
    1.9639   -0.0417    1.6394 C   0  0  1  0  0  0  0  0  0  0  0  0
    1.6201   -1.0645    2.5943 O   0  0  0  0  0  0  0  0  0  0  0  0
    2.5723    1.1236    2.3995 C   0  0  0  0  0  0  0  0  0  0  0  0
    4.0310    1.2291    2.1738 N   0  3  0  0  0  0  0  0  0  0  0  0
   -6.3739   -1.5515    4.1778 C   0  0  0  0  0  0  0  0  0  0  0  0
   -6.2478   -3.0888    0.8091 C   0  0  2  0  0  0  0  0  0  0  0  0
   -5.6736   -1.9403   -0.0169 C   0  0  2  0  0  0  0  0  0  0  0  0
   -5.1048   -2.4548   -1.2855 N   0  3  0  0  0  0  0  0  0  0  0  0
   -4.5851   -1.2216    0.7690 C   0  0  1  0  0  0  0  0  0  0  0  0
   -4.1141   -0.1101    0.0226 O   0  0  0  0  0  0  0  0  0  0  0  0
   -5.1469   -0.7541    2.1098 C   0  0  2  0  0  0  0  0  0  0  0  0
   -4.1187   -0.1432    2.8786 O   0  0  0  0  0  0  0  0  0  0  0  0
   -6.8150   -2.7364    4.9488 N   0  3  0  0  0  0  0  0  0  0  0  0
   -5.7153   -1.9515    2.8690 C   0  0  2  0  0  0  0  0  0  0  0  0
   -6.7149   -2.6163    2.0699 O   0  0  0  0  0  0  0  0  0  0  0  0
   -6.8676   -5.8799    4.4640 C   0  0  2  0  0  0  0  0  0  0  0  0
   -7.1795   -6.8940    5.4973 N   0  3  0  0  0  0  0  0  0  0  0  0
   -7.4006   -6.3346    3.1100 C   0  0  0  0  0  0  0  0  0  0  0  0
   -7.0850   -5.3021    2.0369 C   0  0  2  0  0  0  0  0  0  0  0  0
   -7.6193   -5.7933    0.7746 N   0  3  0  0  0  0  0  0  0  0  0  0
   -5.5749   -5.0958    1.9455 C   0  0  1  0  0  0  0  0  0  0  0  0
   -5.2864   -4.0970    0.9478 O   0  0  0  0  0  0  0  0  0  0  0  0
   -5.0040   -4.6463    3.2977 C   0  0  2  0  0  0  0  0  0  0  0  0
   -3.5691   -4.5621    3.2054 O   0  0  0  0  0  0  0  0  0  0  0  0
   -5.3615   -5.6294    4.4095 C   0  0  1  0  0  0  0  0  0  0  0  0
   -4.9219   -5.1130    5.6588 O   0  0  0  0  0  0  0  0  0  0  0  0
  1  2  1  0  0  0  0
  3  2  1  1  0  0  0
  3  5  1  0  0  0  0
  3  4  1  0  0  0  0
  4  9  1  0  0  0  0
  5  7  1  0  0  0  0
  5  6  1  6  0  0  0
  7  9  1  0  0  0  0
  7  8  1  6  0  0  0
  9 40  1  1  0  0  0
 10  6  1  1  0  0  0
 10 11  1  0  0  0  0
 10 18  1  0  0  0  0
 11 13  1  0  0  0  0
 11 12  1  1  0  0  0
 13 15  1  0  0  0  0
 13 14  1  1  0  0  0
 15 17  1  0  0  0  0
 15 16  1  1  0  0  0
 17 19  1  1  0  0  0
 17 18  1  0  0  0  0
 19 20  1  0  0  0  0
 21 29  1  0  0  0  0
 22 23  1  0  0  0  0
 22 31  1  0  0  0  0
 22 38  1  1  0  0  0
 23 25  1  0  0  0  0
 23 24  1  6  0  0  0
 25 27  1  0  0  0  0
 25 26  1  6  0  0  0
 27 30  1  0  0  0  0
 27 28  1  1  0  0  0
 30 21  1  1  0  0  0
 30 31  1  0  0  0  0
 32 34  1  0  0  0  0
 32 41  1  0  0  0  0
 32 33  1  1  0  0  0
 34 35  1  0  0  0  0
 35 37  1  0  0  0  0
 35 36  1  6  0  0  0
 37 39  1  0  0  0  0
 37 38  1  6  0  0  0
 39 41  1  0  0  0  0
 39 40  1  6  0  0  0
 41 42  1  1  0  0  0
M  CHG  6  12   1  20   1  24   1  29   1  33   1  36   1
M  END
>  <CHROM.1>
-174.98523525,-52.86335528,40.14581127,-97.62963305,171.41563786,-113.73873621
-88.93154083,64.59386221,71.43807671,-13.71665249,-161.74934982,-175.19664182
-60.62129151,166.47350828,57.66263111,72.55963180,-157.20357770,67.49450742
-175.92259413,32.32499330,70.32766079,74.69041405,-2.63030919,-2.94669824
2.08709234,-0.39787661,-0.01869675,2.72923669

>  <Name>
1NEM.B

>  <RI>
0

>  <Rbt.Current_Directory>
/home/itssahil/PROJECTS/Mol_Feturizer/New_Systems/rnas/1nem

>  <Rbt.Executable>
rbdock ($Id: //depot/dev/client3/rdock/2013.1/src/exe/rbdock.cxx#4 $)

>  <Rbt.Library>
libRbt.so (2013.1, Build901 2013/11/27)

>  <Rbt.Parameter_File>
/export/apps/rDock/src/rDock_2013.1_src/data/scripts/dock_solv.prm

>  <Rbt.Receptor>
prm/blind_docking_40.prm

>  <SCORE>
-6.50277

>  <SCORE.INTER>
-21.3796

>  <SCORE.INTER.CONST>
1

>  <SCORE.INTER.POLAR>
-5.10466

>  <SCORE.INTER.ROT>
9

>  <SCORE.INTER.SOLV>
35.9648

>  <SCORE.INTER.VDW>
-18.8258

>  <SCORE.INTER.norm>
-0.509039

>  <SCORE.INTRA>
11.917

>  <SCORE.INTRA.DIHEDRAL>
9.22183

>  <SCORE.INTRA.DIHEDRAL.0>
22.4324

>  <SCORE.INTRA.POLAR>
-1.57169

>  <SCORE.INTRA.POLAR.0>
-1.83749

>  <SCORE.INTRA.REPUL>
0.0590188

>  <SCORE.INTRA.REPUL.0>
0

>  <SCORE.INTRA.SOLV>
6.33799

>  <SCORE.INTRA.SOLV.lig_0>
-160.638

>  <SCORE.INTRA.VDW>
9.18575

>  <SCORE.INTRA.VDW.0>
-7.61953

>  <SCORE.INTRA.norm>
0.283738

>  <SCORE.RESTR>
2.95987

>  <SCORE.RESTR.CAVITY>
2.95987

>  <SCORE.RESTR.norm>
0.0704731

>  <SCORE.SYSTEM>
0

>  <SCORE.SYSTEM.CONST>
0

>  <SCORE.SYSTEM.DIHEDRAL>
0

>  <SCORE.SYSTEM.SOLV>
0

>  <SCORE.SYSTEM.norm>
0

>  <SCORE.heavy>
42

>  <SCORE.norm>
-0.154828

>  <RMSD>
6.059

$$$$
1NEM.B
 OpenBabel11021811403D
libRbt.so/2013.1/901 2013/11/27
 42 45  0  0  0  0  0  0  0  0999 V2000
   -1.5746   -3.2413    4.6471 O   0  0  0  0  0  0  0  0  0  0  0  0
   -2.5586   -4.2005    4.2550 C   0  0  0  0  0  0  0  0  0  0  0  0
   -2.2164   -4.9070    2.9440 C   0  0  1  0  0  0  0  0  0  0  0  0
   -3.3944   -5.4108    2.3211 O   0  0  0  0  0  0  0  0  0  0  0  0
   -1.6179   -4.0063    1.8754 C   0  0  1  0  0  0  0  0  0  0  0  0
   -0.2849   -3.6907    2.2837 O   0  0  0  0  0  0  0  0  0  0  0  0
   -1.7586   -4.9304    0.6803 C   0  0  1  0  0  0  0  0  0  0  0  0
   -0.8661   -6.0472    0.7528 O   0  0  0  0  0  0  0  0  0  0  0  0
   -3.2028   -5.3928    0.9064 C   0  0  2  0  0  0  0  0  0  0  0  0
    0.4776   -2.9421    1.3807 C   0  0  2  0  0  0  0  0  0  0  0  0
    1.9451   -2.9489    1.8301 C   0  0  2  0  0  0  0  0  0  0  0  0
    2.0475   -2.5043    3.2450 N   0  3  0  0  0  0  0  0  0  0  0  0
    2.8038   -2.0843    0.9015 C   0  0  1  0  0  0  0  0  0  0  0  0
    2.9317   -2.7222   -0.3624 O   0  0  0  0  0  0  0  0  0  0  0  0
    2.1889   -0.6938    0.7153 C   0  0  2  0  0  0  0  0  0  0  0  0
    2.2630    0.0454    1.9278 O   0  0  0  0  0  0  0  0  0  0  0  0
    0.7336   -0.8307    0.2770 C   0  0  1  0  0  0  0  0  0  0  0  0
    0.0055   -1.6077    1.2475 O   0  0  0  0  0  0  0  0  0  0  0  0
    0.0270    0.5043    0.1201 C   0  0  0  0  0  0  0  0  0  0  0  0
   -0.3692    0.7582   -1.2829 N   0  3  0  0  0  0  0  0  0  0  0  0
   -3.8413   -1.3764   -0.7583 C   0  0  0  0  0  0  0  0  0  0  0  0
   -3.7154   -2.3610    2.8113 C   0  0  2  0  0  0  0  0  0  0  0  0
   -4.0415   -1.0347    3.4938 C   0  0  2  0  0  0  0  0  0  0  0  0
   -4.5000   -1.2718    4.8834 N   0  3  0  0  0  0  0  0  0  0  0  0
   -5.1299   -0.3009    2.7219 C   0  0  1  0  0  0  0  0  0  0  0  0
   -5.3688    0.9632    3.3213 O   0  0  0  0  0  0  0  0  0  0  0  0
   -4.6930   -0.1198    1.2699 C   0  0  2  0  0  0  0  0  0  0  0  0
   -5.7324    0.5029    0.5260 O   0  0  0  0  0  0  0  0  0  0  0  0
   -3.2451   -2.6531   -1.2138 N   0  3  0  0  0  0  0  0  0  0  0  0
   -4.3698   -1.4831    0.6616 C   0  0  2  0  0  0  0  0  0  0  0  0
   -3.3610   -2.1502    1.4471 O   0  0  0  0  0  0  0  0  0  0  0  0
   -7.9156   -4.5509    0.3754 C   0  0  2  0  0  0  0  0  0  0  0  0
   -8.8752   -4.5857   -0.7521 N   0  3  0  0  0  0  0  0  0  0  0  0
   -8.1337   -3.2916    1.2066 C   0  0  0  0  0  0  0  0  0  0  0  0
   -7.1519   -3.2412    2.3688 C   0  0  2  0  0  0  0  0  0  0  0  0
   -7.4126   -2.0215    3.1202 N   0  3  0  0  0  0  0  0  0  0  0  0
   -5.7204   -3.2583    1.8379 C   0  0  1  0  0  0  0  0  0  0  0  0
   -4.7978   -3.2389    2.9446 O   0  0  0  0  0  0  0  0  0  0  0  0
   -5.4702   -4.5110    0.9868 C   0  0  2  0  0  0  0  0  0  0  0  0
   -4.1489   -4.4447    0.4173 O   0  0  0  0  0  0  0  0  0  0  0  0
   -6.4829   -4.6253   -0.1499 C   0  0  1  0  0  0  0  0  0  0  0  0
   -6.2924   -5.8574   -0.8328 O   0  0  0  0  0  0  0  0  0  0  0  0
  1  2  1  0  0  0  0
  3  2  1  1  0  0  0
  3  5  1  0  0  0  0
  3  4  1  0  0  0  0
  4  9  1  0  0  0  0
  5  7  1  0  0  0  0
  5  6  1  1  0  0  0
  7  9  1  0  0  0  0
  7  8  1  1  0  0  0
  9 40  1  6  0  0  0
 10  6  1  1  0  0  0
 10 11  1  0  0  0  0
 10 18  1  0  0  0  0
 11 13  1  0  0  0  0
 11 12  1  1  0  0  0
 13 15  1  0  0  0  0
 13 14  1  6  0  0  0
 15 17  1  0  0  0  0
 15 16  1  1  0  0  0
 17 19  1  1  0  0  0
 17 18  1  0  0  0  0
 19 20  1  0  0  0  0
 21 29  1  0  0  0  0
 22 23  1  0  0  0  0
 22 31  1  0  0  0  0
 22 38  1  6  0  0  0
 23 25  1  0  0  0  0
 23 24  1  1  0  0  0
 25 27  1  0  0  0  0
 25 26  1  1  0  0  0
 27 30  1  0  0  0  0
 27 28  1  6  0  0  0
 30 21  1  6  0  0  0
 30 31  1  0  0  0  0
 32 34  1  0  0  0  0
 32 41  1  0  0  0  0
 32 33  1  6  0  0  0
 34 35  1  0  0  0  0
 35 37  1  0  0  0  0
 35 36  1  6  0  0  0
 37 39  1  0  0  0  0
 37 38  1  1  0  0  0
 39 41  1  0  0  0  0
 39 40  1  6  0  0  0
 41 42  1  1  0  0  0
M  CHG  6  12   1  20   1  24   1  29   1  33   1  36   1
M  END
>  <CHROM.1>
46.85156867,-156.33222075,175.55728658,-168.08304535,-176.71889690,-43.31776335
-171.51625589,-172.10600081,88.97770910,115.35173056,-55.33140789,166.80827229
100.27580257,94.94447793,-29.65993244,145.10597902,-62.21326485,-158.62454701
-55.72810906,-135.54735094,111.78501516,-48.67210570,-2.91598361,-2.63992895
1.45876400,-0.18146997,-0.03593517,-2.94869450

>  <Name>
1NEM.B

>  <RI>
0

>  <Rbt.Current_Directory>
/home/itssahil/PROJECTS/Mol_Feturizer/New_Systems/rnas/1nem

>  <Rbt.Executable>
rbdock ($Id: //depot/dev/client3/rdock/2013.1/src/exe/rbdock.cxx#4 $)

>  <Rbt.Library>
libRbt.so (2013.1, Build901 2013/11/27)

>  <Rbt.Parameter_File>
/export/apps/rDock/src/rDock_2013.1_src/data/scripts/dock_solv.prm

>  <Rbt.Receptor>
prm/blind_docking_80.prm

>  <SCORE>
-11.2521

>  <SCORE.INTER>
-46.1044

>  <SCORE.INTER.CONST>
1

>  <SCORE.INTER.POLAR>
-8.96555

>  <SCORE.INTER.ROT>
9

>  <SCORE.INTER.SOLV>
60.5018

>  <SCORE.INTER.VDW>
-30.6184

>  <SCORE.INTER.norm>
-1.09772

>  <SCORE.INTRA>
32.7086

>  <SCORE.INTRA.DIHEDRAL>
21.0981

>  <SCORE.INTRA.DIHEDRAL.0>
22.4324

>  <SCORE.INTRA.POLAR>
0.38658

>  <SCORE.INTRA.POLAR.0>
-1.83749

>  <SCORE.INTRA.REPUL>
0.55894

>  <SCORE.INTRA.REPUL.0>
0

>  <SCORE.INTRA.SOLV>
8.17924

>  <SCORE.INTRA.SOLV.lig_0>
-160.638

>  <SCORE.INTRA.VDW>
13.9608

>  <SCORE.INTRA.VDW.0>
-7.61953

>  <SCORE.INTRA.norm>
0.778775

>  <SCORE.RESTR>
2.14375

>  <SCORE.RESTR.CAVITY>
2.14375

>  <SCORE.RESTR.norm>
0.0510416

>  <SCORE.SYSTEM>
0

>  <SCORE.SYSTEM.CONST>
0

>  <SCORE.SYSTEM.DIHEDRAL>
0

>  <SCORE.SYSTEM.SOLV>
0

>  <SCORE.SYSTEM.norm>
0

>  <SCORE.heavy>
42

>  <SCORE.norm>
-0.267907

>  <RMSD>
6.061

$$$$
1NEM.B
 OpenBabel11021811403D
libRbt.so/2013.1/901 2013/11/27
 42 45  0  0  0  0  0  0  0  0999 V2000
   -0.4677   -6.4625    1.2757 O   0  0  0  0  0  0  0  0  0  0  0  0
   -0.2076   -5.2025    0.6538 C   0  0  0  0  0  0  0  0  0  0  0  0
   -1.0849   -4.0751    1.1962 C   0  0  1  0  0  0  0  0  0  0  0  0
   -2.4638   -4.3646    0.9859 O   0  0  0  0  0  0  0  0  0  0  0  0
   -0.9992   -3.8723    2.7005 C   0  0  1  0  0  0  0  0  0  0  0  0
    0.2734   -3.2834    2.9779 O   0  0  0  0  0  0  0  0  0  0  0  0
   -2.2125   -2.9813    2.8892 C   0  0  1  0  0  0  0  0  0  0  0  0
   -2.0152   -1.6755    2.3369 O   0  0  0  0  0  0  0  0  0  0  0  0
   -3.2187   -3.7674    2.0404 C   0  0  2  0  0  0  0  0  0  0  0  0
    0.6667   -2.2364    2.1374 C   0  0  2  0  0  0  0  0  0  0  0  0
    1.3379   -2.8172    0.8855 C   0  0  2  0  0  0  0  0  0  0  0  0
    2.4338   -3.7425    1.2768 N   0  3  0  0  0  0  0  0  0  0  0  0
    1.8422   -1.6984   -0.0318 C   0  0  1  0  0  0  0  0  0  0  0  0
    0.7359   -1.0373   -0.6314 O   0  0  0  0  0  0  0  0  0  0  0  0
    2.6868   -0.6844    0.7458 C   0  0  2  0  0  0  0  0  0  0  0  0
    3.9121   -1.2760    1.1592 O   0  0  0  0  0  0  0  0  0  0  0  0
    1.9083   -0.1944    1.9635 C   0  0  1  0  0  0  0  0  0  0  0  0
    1.5363   -1.3174    2.7858 O   0  0  0  0  0  0  0  0  0  0  0  0
    2.6943    0.7778    2.8256 C   0  0  0  0  0  0  0  0  0  0  0  0
    2.8376    2.1001    2.1769 N   0  3  0  0  0  0  0  0  0  0  0  0
   -6.5542   -2.4473    5.0872 C   0  0  0  0  0  0  0  0  0  0  0  0
   -6.3887   -2.2752    1.3899 C   0  0  2  0  0  0  0  0  0  0  0  0
   -5.7376   -0.9091    1.1879 C   0  0  2  0  0  0  0  0  0  0  0  0
   -5.1519   -0.8155   -0.1707 N   0  3  0  0  0  0  0  0  0  0  0  0
   -4.6439   -0.6905    2.2248 C   0  0  1  0  0  0  0  0  0  0  0  0
   -4.1001    0.6120    2.0758 O   0  0  0  0  0  0  0  0  0  0  0  0
   -5.2270   -0.8593    3.6260 C   0  0  2  0  0  0  0  0  0  0  0  0
   -4.1978   -0.7253    4.5977 O   0  0  0  0  0  0  0  0  0  0  0  0
   -7.2622   -3.7469    5.1406 N   0  3  0  0  0  0  0  0  0  0  0  0
   -5.8724   -2.2386    3.7462 C   0  0  2  0  0  0  0  0  0  0  0  0
   -6.8744   -2.4081    2.7231 O   0  0  0  0  0  0  0  0  0  0  0  0
   -7.1636   -6.3865    3.4215 C   0  0  2  0  0  0  0  0  0  0  0  0
   -7.5471   -7.7408    3.8819 N   0  3  0  0  0  0  0  0  0  0  0  0
   -7.7468   -6.1219    2.0380 C   0  0  0  0  0  0  0  0  0  0  0  0
   -7.3585   -4.7330    1.5506 C   0  0  2  0  0  0  0  0  0  0  0  0
   -7.9451   -4.5431    0.2315 N   0  3  0  0  0  0  0  0  0  0  0  0
   -5.8375   -4.6115    1.4929 C   0  0  1  0  0  0  0  0  0  0  0  0
   -5.4781   -3.2856    1.0579 O   0  0  0  0  0  0  0  0  0  0  0  0
   -5.2170   -4.8824    2.8704 C   0  0  2  0  0  0  0  0  0  0  0  0
   -3.7811   -4.8632    2.7589 O   0  0  0  0  0  0  0  0  0  0  0  0
   -5.6425   -6.2429    3.4170 C   0  0  1  0  0  0  0  0  0  0  0  0
   -5.1484   -6.3980    4.7407 O   0  0  0  0  0  0  0  0  0  0  0  0
  1  2  1  0  0  0  0
  3  2  1  1  0  0  0
  3  5  1  0  0  0  0
  3  4  1  0  0  0  0
  4  9  1  0  0  0  0
  5  7  1  0  0  0  0
  5  6  1  6  0  0  0
  7  9  1  0  0  0  0
  7  8  1  6  0  0  0
  9 40  1  1  0  0  0
 10  6  1  1  0  0  0
 10 11  1  0  0  0  0
 10 18  1  0  0  0  0
 11 13  1  0  0  0  0
 11 12  1  1  0  0  0
 13 15  1  0  0  0  0
 13 14  1  1  0  0  0
 15 17  1  0  0  0  0
 15 16  1  1  0  0  0
 17 19  1  1  0  0  0
 17 18  1  0  0  0  0
 19 20  1  0  0  0  0
 21 29  1  0  0  0  0
 22 23  1  0  0  0  0
 22 31  1  0  0  0  0
 22 38  1  1  0  0  0
 23 25  1  0  0  0  0
 23 24  1  6  0  0  0
 25 27  1  0  0  0  0
 25 26  1  1  0  0  0
 27 30  1  0  0  0  0
 27 28  1  1  0  0  0
 30 21  1  1  0  0  0
 30 31  1  0  0  0  0
 32 34  1  0  0  0  0
 32 41  1  0  0  0  0
 32 33  1  6  0  0  0
 34 35  1  0  0  0  0
 35 37  1  0  0  0  0
 35 36  1  6  0  0  0
 37 39  1  0  0  0  0
 37 38  1  1  0  0  0
 39 41  1  0  0  0  0
 39 40  1  6  0  0  0
 41 42  1  1  0  0  0
M  CHG  6  12   1  20   1  24   1  29   1  33   1  36   1
M  END
>  <CHROM.1>
-80.23373953,-60.06996337,44.57764545,-85.21786466,-60.69986897,-122.39356773
131.38047574,65.61369464,76.06611161,72.27873889,65.85017667,175.51772662
156.22555069,165.99295357,-165.83774930,-150.55354131,165.87396424,65.19130053
-178.13030292,29.24147763,47.20155439,-51.88583994,-2.84747562,-2.94653721
2.18205358,-0.36398168,-0.16739529,-3.12201687

>  <Name>
1NEM.B

>  <RI>
0

>  <Rbt.Current_Directory>
/home/itssahil/PROJECTS/Mol_Feturizer/New_Systems/rnas/1nem

>  <Rbt.Executable>
rbdock ($Id: //depot/dev/client3/rdock/2013.1/src/exe/rbdock.cxx#4 $)

>  <Rbt.Library>
libRbt.so (2013.1, Build901 2013/11/27)

>  <Rbt.Parameter_File>
/export/apps/rDock/src/rDock_2013.1_src/data/scripts/dock_solv.prm

>  <Rbt.Receptor>
prm/blind_docking_20.prm

>  <SCORE>
15.7893

>  <SCORE.INTER>
-14.0141

>  <SCORE.INTER.CONST>
1

>  <SCORE.INTER.POLAR>
-5.77906

>  <SCORE.INTER.ROT>
9

>  <SCORE.INTER.SOLV>
34.9078

>  <SCORE.INTER.VDW>
-11.3151

>  <SCORE.INTER.norm>
-0.333669

>  <SCORE.INTRA>
25.0817

>  <SCORE.INTRA.DIHEDRAL>
8.32879

>  <SCORE.INTRA.DIHEDRAL.0>
22.4324

>  <SCORE.INTRA.POLAR>
1.30692

>  <SCORE.INTRA.POLAR.0>
-1.83749

>  <SCORE.INTRA.REPUL>
0.0023566

>  <SCORE.INTRA.REPUL.0>
0

>  <SCORE.INTRA.SOLV>
3.51048

>  <SCORE.INTRA.SOLV.lig_0>
-160.638

>  <SCORE.INTRA.VDW>
14.7068

>  <SCORE.INTRA.VDW.0>
-7.61953

>  <SCORE.INTRA.norm>
0.597184

>  <SCORE.RESTR>
4.72168

>  <SCORE.RESTR.CAVITY>
4.72168

>  <SCORE.RESTR.norm>
0.112421

>  <SCORE.SYSTEM>
0

>  <SCORE.SYSTEM.CONST>
0

>  <SCORE.SYSTEM.DIHEDRAL>
0

>  <SCORE.SYSTEM.SOLV>
0

>  <SCORE.SYSTEM.norm>
0

>  <SCORE.heavy>
42

>  <SCORE.norm>
0.375936

>  <RMSD>
6.118

$$$$
1NEM.B
 OpenBabel11021811403D
libRbt.so/2013.1/901 2013/11/27
 42 45  0  0  0  0  0  0  0  0999 V2000
    0.6409   -4.7338   -0.0052 O   0  0  0  0  0  0  0  0  0  0  0  0
   -0.5820   -4.7663    0.7333 C   0  0  0  0  0  0  0  0  0  0  0  0
   -1.6994   -3.9574    0.0761 C   0  0  1  0  0  0  0  0  0  0  0  0
   -2.9448   -4.6411    0.1814 O   0  0  0  0  0  0  0  0  0  0  0  0
   -1.9838   -2.6168    0.7345 C   0  0  1  0  0  0  0  0  0  0  0  0
   -0.8956   -1.7470    0.4143 O   0  0  0  0  0  0  0  0  0  0  0  0
   -3.3146   -2.3063    0.0753 C   0  0  1  0  0  0  0  0  0  0  0  0
   -3.1705   -2.0021   -1.3160 O   0  0  0  0  0  0  0  0  0  0  0  0
   -3.9905   -3.6714    0.2503 C   0  0  2  0  0  0  0  0  0  0  0  0
    0.1703   -1.7307    1.3203 C   0  0  2  0  0  0  0  0  0  0  0  0
    0.9553   -0.4223    1.1547 C   0  0  2  0  0  0  0  0  0  0  0  0
    1.3482   -0.2395   -0.2675 N   0  3  0  0  0  0  0  0  0  0  0  0
    2.1715   -0.3944    2.0861 C   0  0  1  0  0  0  0  0  0  0  0  0
    1.7388   -0.2516    3.4325 O   0  0  0  0  0  0  0  0  0  0  0  0
    3.0041   -1.6725    1.9467 C   0  0  2  0  0  0  0  0  0  0  0  0
    3.6332   -1.7156    0.6721 O   0  0  0  0  0  0  0  0  0  0  0  0
    2.1051   -2.8927    2.1252 C   0  0  1  0  0  0  0  0  0  0  0  0
    1.0326   -2.8501    1.1640 O   0  0  0  0  0  0  0  0  0  0  0  0
    2.8405   -4.2096    1.9487 C   0  0  0  0  0  0  0  0  0  0  0  0
    1.9266   -5.3696    2.0433 N   0  3  0  0  0  0  0  0  0  0  0  0
   -6.2099   -1.2012    3.9879 C   0  0  0  0  0  0  0  0  0  0  0  0
   -4.0037   -4.1608    4.3052 C   0  0  2  0  0  0  0  0  0  0  0  0
   -3.6745   -4.1237    5.7956 C   0  0  2  0  0  0  0  0  0  0  0  0
   -3.1909   -5.4501    6.2474 N   0  3  0  0  0  0  0  0  0  0  0  0
   -4.9108   -3.7380    6.5967 C   0  0  1  0  0  0  0  0  0  0  0  0
   -4.5733   -3.6312    7.9711 O   0  0  0  0  0  0  0  0  0  0  0  0
   -5.4566   -2.4068    6.0848 C   0  0  2  0  0  0  0  0  0  0  0  0
   -6.6506   -2.0736    6.7811 O   0  0  0  0  0  0  0  0  0  0  0  0
   -7.1291   -1.4188    2.8474 N   0  3  0  0  0  0  0  0  0  0  0  0
   -5.7462   -2.5165    4.5890 C   0  0  2  0  0  0  0  0  0  0  0  0
   -4.5551   -2.9168    3.8814 O   0  0  0  0  0  0  0  0  0  0  0  0
   -7.7663   -5.7058    0.9754 C   0  0  2  0  0  0  0  0  0  0  0  0
   -8.9123   -5.4220    0.0813 N   0  3  0  0  0  0  0  0  0  0  0  0
   -8.2276   -5.7101    2.4284 C   0  0  0  0  0  0  0  0  0  0  0  0
   -7.0586   -5.9986    3.3598 C   0  0  2  0  0  0  0  0  0  0  0  0
   -7.5638   -5.9903    4.7254 N   0  3  0  0  0  0  0  0  0  0  0  0
   -5.9751   -4.9391    3.1735 C   0  0  1  0  0  0  0  0  0  0  0  0
   -4.8607   -5.2351    4.0378 O   0  0  0  0  0  0  0  0  0  0  0  0
   -5.4948   -4.9017    1.7161 C   0  0  2  0  0  0  0  0  0  0  0  0
   -4.5520   -3.8252    1.5520 O   0  0  0  0  0  0  0  0  0  0  0  0
   -6.6564   -4.6802    0.7507 C   0  0  1  0  0  0  0  0  0  0  0  0
   -6.1863   -4.7768   -0.5873 O   0  0  0  0  0  0  0  0  0  0  0  0
  1  2  1  0  0  0  0
  3  2  1  1  0  0  0
  3  5  1  0  0  0  0
  3  4  1  0  0  0  0
  4  9  1  0  0  0  0
  5  7  1  0  0  0  0
  5  6  1  6  0  0  0
  7  9  1  0  0  0  0
  7  8  1  6  0  0  0
  9 40  1  1  0  0  0
 10  6  1  6  0  0  0
 10 11  1  0  0  0  0
 10 18  1  0  0  0  0
 11 13  1  0  0  0  0
 11 12  1  6  0  0  0
 13 15  1  0  0  0  0
 13 14  1  1  0  0  0
 15 17  1  0  0  0  0
 15 16  1  6  0  0  0
 17 19  1  6  0  0  0
 17 18  1  0  0  0  0
 19 20  1  0  0  0  0
 21 29  1  0  0  0  0
 22 23  1  0  0  0  0
 22 31  1  0  0  0  0
 22 38  1  1  0  0  0
 23 25  1  0  0  0  0
 23 24  1  1  0  0  0
 25 27  1  0  0  0  0
 25 26  1  1  0  0  0
 27 30  1  0  0  0  0
 27 28  1  1  0  0  0
 30 21  1  6  0  0  0
 30 31  1  0  0  0  0
 32 34  1  0  0  0  0
 32 41  1  0  0  0  0
 32 33  1  6  0  0  0
 34 35  1  0  0  0  0
 35 37  1  0  0  0  0
 35 36  1  1  0  0  0
 37 39  1  0  0  0  0
 37 38  1  1  0  0  0
 39 41  1  0  0  0  0
 39 40  1  1  0  0  0
 41 42  1  6  0  0  0
M  CHG  6  12   1  20   1  24   1  29   1  33   1  36   1
M  END
>  <CHROM.1>
62.83042826,139.94301624,-91.13384322,-158.24602882,55.26279667,-80.86835446
-165.48206771,-161.93777745,78.25006500,-176.41230467,95.00400016,-149.68702833
-56.10517511,135.12046679,112.09655545,69.38690489,-61.76406133,77.21356126
78.28927408,-160.08624649,178.90273669,86.96553328,-2.99670184,-3.40469062
2.37531935,0.23797326,-0.28866778,-1.69559387

>  <Name>
1NEM.B

>  <RI>
0

>  <Rbt.Current_Directory>
/home/itssahil/PROJECTS/Mol_Feturizer/New_Systems/rnas/1nem

>  <Rbt.Executable>
rbdock ($Id: //depot/dev/client3/rdock/2013.1/src/exe/rbdock.cxx#4 $)

>  <Rbt.Library>
libRbt.so (2013.1, Build901 2013/11/27)

>  <Rbt.Parameter_File>
/export/apps/rDock/src/rDock_2013.1_src/data/scripts/dock_solv.prm

>  <Rbt.Receptor>
prm/blind_docking_40.prm

>  <SCORE>
39.2955

>  <SCORE.INTER>
12.8122

>  <SCORE.INTER.CONST>
1

>  <SCORE.INTER.POLAR>
-6.0906

>  <SCORE.INTER.ROT>
9

>  <SCORE.INTER.SOLV>
44.5857

>  <SCORE.INTER.VDW>
4.38152

>  <SCORE.INTER.norm>
0.305052

>  <SCORE.INTRA>
22.6519

>  <SCORE.INTRA.DIHEDRAL>
14.7675

>  <SCORE.INTRA.DIHEDRAL.0>
22.4324

>  <SCORE.INTRA.POLAR>
0.810635

>  <SCORE.INTRA.POLAR.0>
-1.83749

>  <SCORE.INTRA.REPUL>
0

>  <SCORE.INTRA.REPUL.0>
0

>  <SCORE.INTRA.SOLV>
-0.421039

>  <SCORE.INTRA.SOLV.lig_0>
-160.638

>  <SCORE.INTRA.VDW>
12.7225

>  <SCORE.INTRA.VDW.0>
-7.61953

>  <SCORE.INTRA.norm>
0.53933

>  <SCORE.RESTR>
3.83146

>  <SCORE.RESTR.CAVITY>
3.83146

>  <SCORE.RESTR.norm>
0.0912252

>  <SCORE.SYSTEM>
0

>  <SCORE.SYSTEM.CONST>
0

>  <SCORE.SYSTEM.DIHEDRAL>
0

>  <SCORE.SYSTEM.SOLV>
0

>  <SCORE.SYSTEM.norm>
0

>  <SCORE.heavy>
42

>  <SCORE.norm>
0.935607

>  <RMSD>
6.127

$$$$
1NEM.B
 OpenBabel11021811403D
libRbt.so/2013.1/901 2013/11/27
 42 45  0  0  0  0  0  0  0  0999 V2000
   -0.8598   -6.3936    0.6739 O   0  0  0  0  0  0  0  0  0  0  0  0
   -0.3120   -5.2312    1.2992 C   0  0  0  0  0  0  0  0  0  0  0  0
   -1.2493   -4.0256    1.2467 C   0  0  1  0  0  0  0  0  0  0  0  0
   -2.5829   -4.4367    0.9600 O   0  0  0  0  0  0  0  0  0  0  0  0
   -1.3933   -3.2762    2.5617 C   0  0  1  0  0  0  0  0  0  0  0  0
   -0.1718   -2.5674    2.7825 O   0  0  0  0  0  0  0  0  0  0  0  0
   -2.6111   -2.4366    2.2241 C   0  0  1  0  0  0  0  0  0  0  0  0
   -2.3165   -1.4207    1.2596 O   0  0  0  0  0  0  0  0  0  0  0  0
   -3.4839   -3.5275    1.5924 C   0  0  2  0  0  0  0  0  0  0  0  0
    0.5661   -2.2362    1.6409 C   0  0  2  0  0  0  0  0  0  0  0  0
    2.0600   -2.2166    1.9920 C   0  0  2  0  0  0  0  0  0  0  0  0
    2.2977   -1.3306    3.1619 N   0  3  0  0  0  0  0  0  0  0  0  0
    2.8991   -1.7937    0.7819 C   0  0  1  0  0  0  0  0  0  0  0  0
    2.8898   -2.8296   -0.1914 O   0  0  0  0  0  0  0  0  0  0  0  0
    2.3616   -0.5006    0.1611 C   0  0  2  0  0  0  0  0  0  0  0  0
    2.5744    0.5956    1.0415 O   0  0  0  0  0  0  0  0  0  0  0  0
    0.8714   -0.6522   -0.1309 C   0  0  1  0  0  0  0  0  0  0  0  0
    0.1711   -0.9901    1.0821 O   0  0  0  0  0  0  0  0  0  0  0  0
    0.2415    0.6067   -0.7005 C   0  0  0  0  0  0  0  0  0  0  0  0
   -1.1939    0.4164   -1.0063 N   0  3  0  0  0  0  0  0  0  0  0  0
   -6.6419   -2.3776    4.9221 C   0  0  0  0  0  0  0  0  0  0  0  0
   -6.5230   -1.6367    1.2939 C   0  0  2  0  0  0  0  0  0  0  0  0
   -5.8460   -0.2683    1.2952 C   0  0  2  0  0  0  0  0  0  0  0  0
   -5.2769    0.0240   -0.0420 N   0  3  0  0  0  0  0  0  0  0  0  0
   -4.7339   -0.2340    2.3350 C   0  0  1  0  0  0  0  0  0  0  0  0
   -4.1647    1.0654    2.3806 O   0  0  0  0  0  0  0  0  0  0  0  0
   -5.3014   -0.6073    3.7027 C   0  0  2  0  0  0  0  0  0  0  0  0
   -4.2565   -0.6451    4.6661 O   0  0  0  0  0  0  0  0  0  0  0  0
   -7.1620   -3.7629    4.8624 N   0  3  0  0  0  0  0  0  0  0  0  0
   -5.9741   -1.9761    3.6185 C   0  0  2  0  0  0  0  0  0  0  0  0
   -6.9933   -1.9659    2.5983 O   0  0  0  0  0  0  0  0  0  0  0  0
   -7.5486   -5.9575    2.5617 C   0  0  2  0  0  0  0  0  0  0  0  0
   -7.9480   -7.3590    2.8255 N   0  3  0  0  0  0  0  0  0  0  0  0
   -7.9251   -5.5679    1.1367 C   0  0  0  0  0  0  0  0  0  0  0  0
   -7.5182   -4.1293    0.8504 C   0  0  2  0  0  0  0  0  0  0  0  0
   -7.9051   -3.8205   -0.5190 N   0  3  0  0  0  0  0  0  0  0  0  0
   -6.0114   -3.9704    1.0395 C   0  0  1  0  0  0  0  0  0  0  0  0
   -5.6387   -2.6003    0.7943 O   0  0  0  0  0  0  0  0  0  0  0  0
   -5.5968   -4.3650    2.4638 C   0  0  2  0  0  0  0  0  0  0  0  0
   -4.1622   -4.3043    2.5772 O   0  0  0  0  0  0  0  0  0  0  0  0
   -6.0506   -5.7821    2.8053 C   0  0  1  0  0  0  0  0  0  0  0  0
   -5.7570   -6.0587    4.1683 O   0  0  0  0  0  0  0  0  0  0  0  0
  1  2  1  0  0  0  0
  3  2  1  1  0  0  0
  3  5  1  0  0  0  0
  3  4  1  0  0  0  0
  4  9  1  0  0  0  0
  5  7  1  0  0  0  0
  5  6  1  6  0  0  0
  7  9  1  0  0  0  0
  7  8  1  6  0  0  0
  9 40  1  1  0  0  0
 10  6  1  1  0  0  0
 10 11  1  0  0  0  0
 10 18  1  0  0  0  0
 11 13  1  0  0  0  0
 11 12  1  1  0  0  0
 13 15  1  0  0  0  0
 13 14  1  6  0  0  0
 15 17  1  0  0  0  0
 15 16  1  1  0  0  0
 17 19  1  1  0  0  0
 17 18  1  0  0  0  0
 19 20  1  0  0  0  0
 21 29  1  0  0  0  0
 22 23  1  0  0  0  0
 22 31  1  0  0  0  0
 22 38  1  1  0  0  0
 23 25  1  0  0  0  0
 23 24  1  6  0  0  0
 25 27  1  0  0  0  0
 25 26  1  1  0  0  0
 27 30  1  0  0  0  0
 27 28  1  1  0  0  0
 30 21  1  1  0  0  0
 30 31  1  0  0  0  0
 32 34  1  0  0  0  0
 32 41  1  0  0  0  0
 32 33  1  6  0  0  0
 34 35  1  0  0  0  0
 35 37  1  0  0  0  0
 35 36  1  6  0  0  0
 37 39  1  0  0  0  0
 37 38  1  1  0  0  0
 39 41  1  0  0  0  0
 39 40  1  6  0  0  0
 41 42  1  1  0  0  0
M  CHG  6  12   1  20   1  24   1  29   1  33   1  36   1
M  END
>  <CHROM.1>
165.36195225,17.70045714,25.92232918,-149.24479257,-49.33786466,-121.47018168
137.33198920,51.43101405,96.89652017,178.47554309,156.44246304,-173.99855861
-177.33458566,165.22599241,60.54201985,-130.56701558,-64.11584376,177.69014967
173.28953585,40.12154140,19.25140269,161.53425194,-3.17903680,-2.62629555
1.77819361,-0.34210176,-0.15576275,3.05189151

>  <Name>
1NEM.B

>  <RI>
0

>  <Rbt.Current_Directory>
/home/itssahil/PROJECTS/Mol_Feturizer/New_Systems/rnas/1nem

>  <Rbt.Executable>
rbdock ($Id: //depot/dev/client3/rdock/2013.1/src/exe/rbdock.cxx#4 $)

>  <Rbt.Library>
libRbt.so (2013.1, Build901 2013/11/27)

>  <Rbt.Parameter_File>
/export/apps/rDock/src/rDock_2013.1_src/data/scripts/dock_solv.prm

>  <Rbt.Receptor>
prm/blind_docking_80.prm

>  <SCORE>
-7.7283

>  <SCORE.INTER>
-36.6968

>  <SCORE.INTER.CONST>
1

>  <SCORE.INTER.POLAR>
-5.95713

>  <SCORE.INTER.ROT>
9

>  <SCORE.INTER.SOLV>
42.7276

>  <SCORE.INTER.VDW>
-28.45

>  <SCORE.INTER.norm>
-0.873734

>  <SCORE.INTRA>
22.7447

>  <SCORE.INTRA.DIHEDRAL>
25.0687

>  <SCORE.INTRA.DIHEDRAL.0>
22.4324

>  <SCORE.INTRA.POLAR>
-1.81168

>  <SCORE.INTRA.POLAR.0>
-1.83749

>  <SCORE.INTRA.REPUL>
0

>  <SCORE.INTRA.REPUL.0>
0

>  <SCORE.INTRA.SOLV>
4.8103

>  <SCORE.INTRA.SOLV.lig_0>
-160.638

>  <SCORE.INTRA.VDW>
13.9649

>  <SCORE.INTRA.VDW.0>
-7.61953

>  <SCORE.INTRA.norm>
0.54154

>  <SCORE.RESTR>
6.22385

>  <SCORE.RESTR.CAVITY>
6.22385

>  <SCORE.RESTR.norm>
0.148187

>  <SCORE.SYSTEM>
0

>  <SCORE.SYSTEM.CONST>
0

>  <SCORE.SYSTEM.DIHEDRAL>
0

>  <SCORE.SYSTEM.SOLV>
0

>  <SCORE.SYSTEM.norm>
0

>  <SCORE.heavy>
42

>  <SCORE.norm>
-0.184007

>  <RMSD>
6.175

$$$$
1NEM.B
 OpenBabel11021811403D
libRbt.so/2013.1/901 2013/11/27
 42 45  0  0  0  0  0  0  0  0999 V2000
   -0.4700   -6.5007    1.3635 O   0  0  0  0  0  0  0  0  0  0  0  0
    0.0987   -5.2186    1.0898 C   0  0  0  0  0  0  0  0  0  0  0  0
   -0.8543   -4.0639    1.3949 C   0  0  1  0  0  0  0  0  0  0  0  0
   -2.2092   -4.4998    1.3344 O   0  0  0  0  0  0  0  0  0  0  0  0
   -0.7353   -3.4976    2.8009 C   0  0  1  0  0  0  0  0  0  0  0  0
    0.4900   -2.7639    2.8609 O   0  0  0  0  0  0  0  0  0  0  0  0
   -2.0144   -2.6825    2.8373 C   0  0  1  0  0  0  0  0  0  0  0  0
   -1.9504   -1.5378    1.9802 O   0  0  0  0  0  0  0  0  0  0  0  0
   -2.9768   -3.7248    2.2557 C   0  0  2  0  0  0  0  0  0  0  0  0
    0.9985   -2.3084    1.6397 C   0  0  2  0  0  0  0  0  0  0  0  0
    2.4836   -1.9599    1.8084 C   0  0  2  0  0  0  0  0  0  0  0  0
    2.6607   -1.0165    2.9437 N   0  3  0  0  0  0  0  0  0  0  0  0
    3.0624   -1.3947    0.5072 C   0  0  1  0  0  0  0  0  0  0  0  0
    3.1623   -2.4307   -0.4608 O   0  0  0  0  0  0  0  0  0  0  0  0
    2.1884   -0.2622   -0.0405 C   0  0  2  0  0  0  0  0  0  0  0  0
    2.2617    0.8743    0.8110 O   0  0  0  0  0  0  0  0  0  0  0  0
    0.7425   -0.7374   -0.1514 C   0  0  1  0  0  0  0  0  0  0  0  0
    0.2802   -1.1897    1.1361 O   0  0  0  0  0  0  0  0  0  0  0  0
   -0.2076    0.3430   -0.6374 C   0  0  0  0  0  0  0  0  0  0  0  0
   -0.1787    0.4822   -2.1103 N   0  3  0  0  0  0  0  0  0  0  0  0
   -4.8588   -0.8453    3.2636 C   0  0  0  0  0  0  0  0  0  0  0  0
   -6.9020   -3.6539    1.9735 C   0  0  2  0  0  0  0  0  0  0  0  0
   -6.9611   -3.3155    0.4858 C   0  0  2  0  0  0  0  0  0  0  0  0
   -7.3248   -4.5186   -0.3001 N   0  3  0  0  0  0  0  0  0  0  0  0
   -5.6113   -2.7929    0.0125 C   0  0  1  0  0  0  0  0  0  0  0  0
   -5.7009   -2.4093   -1.3511 O   0  0  0  0  0  0  0  0  0  0  0  0
   -5.1974   -1.5978    0.8683 C   0  0  2  0  0  0  0  0  0  0  0  0
   -3.9067   -1.1472    0.4780 O   0  0  0  0  0  0  0  0  0  0  0  0
   -5.9624    0.1417    3.2946 N   0  3  0  0  0  0  0  0  0  0  0  0
   -5.1765   -2.0080    2.3396 C   0  0  2  0  0  0  0  0  0  0  0  0
   -6.4647   -2.5268    2.7281 O   0  0  0  0  0  0  0  0  0  0  0  0
   -5.5139   -4.2551    6.3491 C   0  0  2  0  0  0  0  0  0  0  0  0
   -5.2198   -4.5630    7.7675 N   0  3  0  0  0  0  0  0  0  0  0  0
   -6.6955   -5.0902    5.8687 C   0  0  0  0  0  0  0  0  0  0  0  0
   -7.0079   -4.7855    4.4104 C   0  0  2  0  0  0  0  0  0  0  0  0
   -8.1411   -5.6102    4.0154 N   0  3  0  0  0  0  0  0  0  0  0  0
   -5.7866   -5.0881    3.5455 C   0  0  1  0  0  0  0  0  0  0  0  0
   -6.0811   -4.7706    2.1711 O   0  0  0  0  0  0  0  0  0  0  0  0
   -4.5741   -4.2693    4.0099 C   0  0  2  0  0  0  0  0  0  0  0  0
   -3.4168   -4.6541    3.2436 O   0  0  0  0  0  0  0  0  0  0  0  0
   -4.2758   -4.5027    5.4888 C   0  0  1  0  0  0  0  0  0  0  0  0
   -3.2293   -3.6352    5.9044 O   0  0  0  0  0  0  0  0  0  0  0  0
  1  2  1  0  0  0  0
  3  2  1  1  0  0  0
  3  5  1  0  0  0  0
  3  4  1  0  0  0  0
  4  9  1  0  0  0  0
  5  7  1  0  0  0  0
  5  6  1  6  0  0  0
  7  9  1  0  0  0  0
  7  8  1  6  0  0  0
  9 40  1  1  0  0  0
 10  6  1  1  0  0  0
 10 11  1  0  0  0  0
 10 18  1  0  0  0  0
 11 13  1  0  0  0  0
 11 12  1  1  0  0  0
 13 15  1  0  0  0  0
 13 14  1  6  0  0  0
 15 17  1  0  0  0  0
 15 16  1  1  0  0  0
 17 19  1  1  0  0  0
 17 18  1  0  0  0  0
 19 20  1  0  0  0  0
 21 29  1  0  0  0  0
 22 23  1  0  0  0  0
 22 31  1  0  0  0  0
 22 38  1  6  0  0  0
 23 25  1  0  0  0  0
 23 24  1  6  0  0  0
 25 27  1  0  0  0  0
 25 26  1  6  0  0  0
 27 30  1  0  0  0  0
 27 28  1  6  0  0  0
 30 21  1  1  0  0  0
 30 31  1  0  0  0  0
 32 34  1  0  0  0  0
 32 41  1  0  0  0  0
 32 33  1  1  0  0  0
 34 35  1  0  0  0  0
 35 37  1  0  0  0  0
 35 36  1  6  0  0  0
 37 39  1  0  0  0  0
 37 38  1  6  0  0  0
 39 41  1  0  0  0  0
 39 40  1  6  0  0  0
 41 42  1  1  0  0  0
M  CHG  6  12   1  20   1  24   1  29   1  33   1  36   1
M  END
>  <CHROM.1>
-107.50909655,-24.48888815,22.93004397,-161.88664615,-36.58925835,-158.44322410
136.80275931,68.33493119,-178.06356685,81.72116452,-141.63875043,68.87054334
33.49693289,171.72788414,59.67629207,-55.97541230,-166.41879621,50.20182082
-32.13637478,35.78529874,106.14139371,-52.18889630,-2.78267959,-2.83597535
2.12398762,-0.47920485,0.11991734,2.09453994

>  <Name>
1NEM.B

>  <RI>
0

>  <Rbt.Current_Directory>
/home/itssahil/PROJECTS/Mol_Feturizer/New_Systems/rnas/1nem

>  <Rbt.Executable>
rbdock ($Id: //depot/dev/client3/rdock/2013.1/src/exe/rbdock.cxx#4 $)

>  <Rbt.Library>
libRbt.so (2013.1, Build901 2013/11/27)

>  <Rbt.Parameter_File>
/export/apps/rDock/src/rDock_2013.1_src/data/scripts/dock_solv.prm

>  <Rbt.Receptor>
prm/blind_docking_40.prm

>  <SCORE>
-22.8205

>  <SCORE.INTER>
-49.9299

>  <SCORE.INTER.CONST>
1

>  <SCORE.INTER.POLAR>
-6.89655

>  <SCORE.INTER.ROT>
9

>  <SCORE.INTER.SOLV>
38.2647

>  <SCORE.INTER.VDW>
-32.653

>  <SCORE.INTER.norm>
-1.18881

>  <SCORE.INTRA>
20.3474

>  <SCORE.INTRA.DIHEDRAL>
19.7838

>  <SCORE.INTRA.DIHEDRAL.0>
22.4324

>  <SCORE.INTRA.POLAR>
0.0446651

>  <SCORE.INTRA.POLAR.0>
-1.83749

>  <SCORE.INTRA.REPUL>
0.00671405

>  <SCORE.INTRA.REPUL.0>
0

>  <SCORE.INTRA.SOLV>
-3.87034

>  <SCORE.INTRA.SOLV.lig_0>
-160.638

>  <SCORE.INTRA.VDW>
12.2052

>  <SCORE.INTRA.VDW.0>
-7.61953

>  <SCORE.INTRA.norm>
0.484461

>  <SCORE.RESTR>
6.76206

>  <SCORE.RESTR.CAVITY>
6.76206

>  <SCORE.RESTR.norm>
0.161001

>  <SCORE.SYSTEM>
0

>  <SCORE.SYSTEM.CONST>
0

>  <SCORE.SYSTEM.DIHEDRAL>
0

>  <SCORE.SYSTEM.SOLV>
0

>  <SCORE.SYSTEM.norm>
0

>  <SCORE.heavy>
42

>  <SCORE.norm>
-0.543345

>  <RMSD>
6.227

$$$$
1NEM.B
 OpenBabel11021811403D
libRbt.so/2013.1/901 2013/11/27
 42 45  0  0  0  0  0  0  0  0999 V2000
    2.0152    3.3825    1.9100 O   0  0  0  0  0  0  0  0  0  0  0  0
    2.6765    2.1734    2.2879 C   0  0  0  0  0  0  0  0  0  0  0  0
    3.0815    1.3137    1.0913 C   0  0  1  0  0  0  0  0  0  0  0  0
    2.7578   -0.0544    1.3217 O   0  0  0  0  0  0  0  0  0  0  0  0
    2.3415    1.6321   -0.1981 C   0  0  1  0  0  0  0  0  0  0  0  0
    2.8402    2.8836   -0.6760 O   0  0  0  0  0  0  0  0  0  0  0  0
    2.7219    0.4016   -0.9999 C   0  0  1  0  0  0  0  0  0  0  0  0
    4.1053    0.4026   -1.3677 O   0  0  0  0  0  0  0  0  0  0  0  0
    2.4597   -0.6676    0.0672 C   0  0  2  0  0  0  0  0  0  0  0  0
    2.1672    3.4409   -1.7686 C   0  0  2  0  0  0  0  0  0  0  0  0
    3.1165    4.3839   -2.5202 C   0  0  2  0  0  0  0  0  0  0  0  0
    3.6997    5.3768   -1.5799 N   0  3  0  0  0  0  0  0  0  0  0  0
    2.3962    5.0656   -3.6881 C   0  0  1  0  0  0  0  0  0  0  0  0
    2.1368    4.1130   -4.7108 O   0  0  0  0  0  0  0  0  0  0  0  0
    1.0791    5.7001   -3.2308 C   0  0  2  0  0  0  0  0  0  0  0  0
    1.3349    6.8094   -2.3787 O   0  0  0  0  0  0  0  0  0  0  0  0
    0.2374    4.6614   -2.4949 C   0  0  1  0  0  0  0  0  0  0  0  0
    0.9848    4.1300   -1.3837 O   0  0  0  0  0  0  0  0  0  0  0  0
   -1.0681    5.2204   -1.9571 C   0  0  0  0  0  0  0  0  0  0  0  0
   -1.4761    4.5572   -0.6987 N   0  3  0  0  0  0  0  0  0  0  0  0
   -5.5085   -0.3626    2.6678 C   0  0  0  0  0  0  0  0  0  0  0  0
   -2.7320   -1.1253    0.3362 C   0  0  2  0  0  0  0  0  0  0  0  0
   -2.7199    0.1331   -0.5283 C   0  0  2  0  0  0  0  0  0  0  0  0
   -1.4173    0.2657   -1.2233 N   0  3  0  0  0  0  0  0  0  0  0  0
   -2.9590    1.3649    0.3345 C   0  0  1  0  0  0  0  0  0  0  0  0
   -3.0229    2.5185   -0.4899 O   0  0  0  0  0  0  0  0  0  0  0  0
   -4.2642    1.2003    1.1098 C   0  0  2  0  0  0  0  0  0  0  0  0
   -4.4599    2.3152    1.9701 O   0  0  0  0  0  0  0  0  0  0  0  0
   -6.3865   -1.2672    1.8907 N   0  3  0  0  0  0  0  0  0  0  0  0
   -4.2075   -0.0836    1.9355 C   0  0  2  0  0  0  0  0  0  0  0  0
   -3.9454   -1.2133    1.0784 O   0  0  0  0  0  0  0  0  0  0  0  0
    1.1913   -4.1545    2.2278 C   0  0  2  0  0  0  0  0  0  0  0  0
    2.0558   -5.3535    2.1346 N   0  3  0  0  0  0  0  0  0  0  0  0
   -0.2680   -4.5475    2.0277 C   0  0  0  0  0  0  0  0  0  0  0  0
   -1.1687   -3.3237    2.1188 C   0  0  2  0  0  0  0  0  0  0  0  0
   -2.5422   -3.7652    1.9216 N   0  3  0  0  0  0  0  0  0  0  0  0
   -0.7662   -2.3048    1.0552 C   0  0  1  0  0  0  0  0  0  0  0  0
   -1.6048   -1.1383    1.1664 O   0  0  0  0  0  0  0  0  0  0  0  0
    0.7035   -1.8948    1.2226 C   0  0  2  0  0  0  0  0  0  0  0  0
    1.0792   -1.0161    0.1449 O   0  0  0  0  0  0  0  0  0  0  0  0
    1.6280   -3.1094    1.2025 C   0  0  1  0  0  0  0  0  0  0  0  0
    2.9589   -2.6972    1.4841 O   0  0  0  0  0  0  0  0  0  0  0  0
  1  2  1  0  0  0  0
  3  2  1  1  0  0  0
  3  5  1  0  0  0  0
  3  4  1  0  0  0  0
  4  9  1  0  0  0  0
  5  7  1  0  0  0  0
  5  6  1  6  0  0  0
  7  9  1  0  0  0  0
  7  8  1  1  0  0  0
  9 40  1  1  0  0  0
 10  6  1  1  0  0  0
 10 11  1  0  0  0  0
 10 18  1  0  0  0  0
 11 13  1  0  0  0  0
 11 12  1  1  0  0  0
 13 15  1  0  0  0  0
 13 14  1  6  0  0  0
 15 17  1  0  0  0  0
 15 16  1  1  0  0  0
 17 19  1  1  0  0  0
 17 18  1  0  0  0  0
 19 20  1  0  0  0  0
 21 29  1  0  0  0  0
 22 23  1  0  0  0  0
 22 31  1  0  0  0  0
 22 38  1  1  0  0  0
 23 25  1  0  0  0  0
 23 24  1  1  0  0  0
 25 27  1  0  0  0  0
 25 26  1  6  0  0  0
 27 30  1  0  0  0  0
 27 28  1  1  0  0  0
 30 21  1  6  0  0  0
 30 31  1  0  0  0  0
 32 34  1  0  0  0  0
 32 41  1  0  0  0  0
 32 33  1  6  0  0  0
 34 35  1  0  0  0  0
 35 37  1  0  0  0  0
 35 36  1  6  0  0  0
 37 39  1  0  0  0  0
 37 38  1  1  0  0  0
 39 41  1  0  0  0  0
 39 40  1  6  0  0  0
 41 42  1  1  0  0  0
M  CHG  6  12   1  20   1  24   1  29   1  33   1  36   1
M  END
>  <CHROM.1>
-49.89326766,-135.29517357,-172.19710717,-155.69232562,71.49745741,-58.26283685
-70.02664535,-49.50110550,179.14779660,-147.61324055,39.91696115,94.47670194
159.32547894,-123.89264501,-131.19731026,76.57461426,130.07005141,-48.87658980
-43.90693901,-94.28993774,-172.94786816,57.81863911,0.02284762,0.86750133
0.06768460,-1.11624304,-0.15099145,2.71528481

>  <Name>
1NEM.B

>  <RI>
0

>  <Rbt.Current_Directory>
/home/itssahil/PROJECTS/Mol_Feturizer/New_Systems/rnas/1nem

>  <Rbt.Executable>
rbdock ($Id: //depot/dev/client3/rdock/2013.1/src/exe/rbdock.cxx#4 $)

>  <Rbt.Library>
libRbt.so (2013.1, Build901 2013/11/27)

>  <Rbt.Parameter_File>
/export/apps/rDock/src/rDock_2013.1_src/data/scripts/dock_solv.prm

>  <Rbt.Receptor>
prm/pocket_docking_7.prm

>  <SCORE>
-42.716

>  <SCORE.INTER>
-52.4295

>  <SCORE.INTER.CONST>
1

>  <SCORE.INTER.POLAR>
-7.62135

>  <SCORE.INTER.ROT>
9

>  <SCORE.INTER.SOLV>
36.0237

>  <SCORE.INTER.VDW>
-31.1564

>  <SCORE.INTER.norm>
-1.24832

>  <SCORE.INTRA>
9.10499

>  <SCORE.INTRA.DIHEDRAL>
19.6101

>  <SCORE.INTRA.DIHEDRAL.0>
22.4324

>  <SCORE.INTRA.POLAR>
-2.83461

>  <SCORE.INTRA.POLAR.0>
-1.83749

>  <SCORE.INTRA.REPUL>
0.0498931

>  <SCORE.INTRA.REPUL.0>
0

>  <SCORE.INTRA.SOLV>
3.80927

>  <SCORE.INTRA.SOLV.lig_0>
-160.638

>  <SCORE.INTRA.VDW>
6.78355

>  <SCORE.INTRA.VDW.0>
-7.61953

>  <SCORE.INTRA.norm>
0.216786

>  <SCORE.RESTR>
0.608506

>  <SCORE.RESTR.CAVITY>
0.608506

>  <SCORE.RESTR.norm>
0.0144882

>  <SCORE.SYSTEM>
0

>  <SCORE.SYSTEM.CONST>
0

>  <SCORE.SYSTEM.DIHEDRAL>
0

>  <SCORE.SYSTEM.SOLV>
0

>  <SCORE.SYSTEM.norm>
0

>  <SCORE.heavy>
42

>  <SCORE.norm>
-1.01705

>  <RMSD>
6.240

$$$$
1NEM.B
 OpenBabel11021811403D
libRbt.so/2013.1/901 2013/11/27
 42 45  0  0  0  0  0  0  0  0999 V2000
   -3.2801   -2.7752    4.7222 O   0  0  0  0  0  0  0  0  0  0  0  0
   -2.0182   -3.4236    4.8934 C   0  0  0  0  0  0  0  0  0  0  0  0
   -1.5890   -4.2303    3.6687 C   0  0  1  0  0  0  0  0  0  0  0  0
   -2.6731   -5.0119    3.1754 O   0  0  0  0  0  0  0  0  0  0  0  0
   -1.1906   -3.3920    2.4645 C   0  0  1  0  0  0  0  0  0  0  0  0
    0.0742   -2.7959    2.7617 O   0  0  0  0  0  0  0  0  0  0  0  0
   -1.1941   -4.4796    1.4067 C   0  0  1  0  0  0  0  0  0  0  0  0
   -0.1136   -5.4030    1.5776 O   0  0  0  0  0  0  0  0  0  0  0  0
   -2.5251   -5.1524    1.7623 C   0  0  2  0  0  0  0  0  0  0  0  0
    0.7527   -2.2156    1.6846 C   0  0  2  0  0  0  0  0  0  0  0  0
    1.9629   -3.0863    1.3205 C   0  0  2  0  0  0  0  0  0  0  0  0
    2.8012   -3.3242    2.5251 N   0  3  0  0  0  0  0  0  0  0  0  0
    2.7711   -2.4495    0.1853 C   0  0  1  0  0  0  0  0  0  0  0  0
    2.0361   -2.5318   -1.0287 O   0  0  0  0  0  0  0  0  0  0  0  0
    3.0949   -0.9840    0.4916 C   0  0  2  0  0  0  0  0  0  0  0  0
    4.0177   -0.8971    1.5700 O   0  0  0  0  0  0  0  0  0  0  0  0
    1.8113   -0.2374    0.8432 C   0  0  1  0  0  0  0  0  0  0  0  0
    1.1643   -0.8825    1.9574 O   0  0  0  0  0  0  0  0  0  0  0  0
    2.0463    1.2160    1.2152 C   0  0  0  0  0  0  0  0  0  0  0  0
    2.7401    1.9566    0.1381 N   0  3  0  0  0  0  0  0  0  0  0  0
   -2.2618   -0.2034   -0.8853 C   0  0  0  0  0  0  0  0  0  0  0  0
   -4.2593   -1.8825    1.7449 C   0  0  2  0  0  0  0  0  0  0  0  0
   -4.5216   -0.7215    2.7010 C   0  0  2  0  0  0  0  0  0  0  0  0
   -5.6736   -1.0316    3.5809 N   0  3  0  0  0  0  0  0  0  0  0  0
   -4.8150    0.5495    1.9152 C   0  0  1  0  0  0  0  0  0  0  0  0
   -4.9802    1.6367    2.8126 O   0  0  0  0  0  0  0  0  0  0  0  0
   -3.6635    0.8327    0.9531 C   0  0  2  0  0  0  0  0  0  0  0  0
   -3.9610    1.9791    0.1665 O   0  0  0  0  0  0  0  0  0  0  0  0
   -0.9828   -0.4518   -0.1815 N   0  3  0  0  0  0  0  0  0  0  0  0
   -3.4515   -0.3755    0.0429 C   0  0  2  0  0  0  0  0  0  0  0  0
   -3.2122   -1.5569    0.8346 O   0  0  0  0  0  0  0  0  0  0  0  0
   -6.6169   -5.7753    3.1009 C   0  0  2  0  0  0  0  0  0  0  0  0
   -7.0885   -7.1600    3.3322 N   0  3  0  0  0  0  0  0  0  0  0  0
   -7.6728   -4.9863    2.3350 C   0  0  0  0  0  0  0  0  0  0  0  0
   -7.2003   -3.5605    2.0879 C   0  0  2  0  0  0  0  0  0  0  0  0
   -8.2495   -2.8633    1.3575 N   0  3  0  0  0  0  0  0  0  0  0  0
   -5.8995   -3.5777    1.2886 C   0  0  1  0  0  0  0  0  0  0  0  0
   -5.4443   -2.2260    1.0834 O   0  0  0  0  0  0  0  0  0  0  0  0
   -4.8161   -4.3742    2.0288 C   0  0  2  0  0  0  0  0  0  0  0  0
   -3.6389   -4.4594    1.2033 O   0  0  0  0  0  0  0  0  0  0  0  0
   -5.2860   -5.7906    2.3507 C   0  0  1  0  0  0  0  0  0  0  0  0
   -4.3044   -6.4479    3.1413 O   0  0  0  0  0  0  0  0  0  0  0  0
  1  2  1  0  0  0  0
  3  2  1  1  0  0  0
  3  5  1  0  0  0  0
  3  4  1  0  0  0  0
  4  9  1  0  0  0  0
  5  7  1  0  0  0  0
  5  6  1  1  0  0  0
  7  9  1  0  0  0  0
  7  8  1  1  0  0  0
  9 40  1  6  0  0  0
 10  6  1  1  0  0  0
 10 11  1  0  0  0  0
 10 18  1  0  0  0  0
 11 13  1  0  0  0  0
 11 12  1  1  0  0  0
 13 15  1  0  0  0  0
 13 14  1  6  0  0  0
 15 17  1  0  0  0  0
 15 16  1  1  0  0  0
 17 19  1  1  0  0  0
 17 18  1  0  0  0  0
 19 20  1  0  0  0  0
 21 29  1  0  0  0  0
 22 23  1  0  0  0  0
 22 31  1  0  0  0  0
 22 38  1  6  0  0  0
 23 25  1  0  0  0  0
 23 24  1  1  0  0  0
 25 27  1  0  0  0  0
 25 26  1  1  0  0  0
 27 30  1  0  0  0  0
 27 28  1  6  0  0  0
 30 21  1  6  0  0  0
 30 31  1  0  0  0  0
 32 34  1  0  0  0  0
 32 41  1  0  0  0  0
 32 33  1  6  0  0  0
 34 35  1  0  0  0  0
 35 37  1  0  0  0  0
 35 36  1  6  0  0  0
 37 39  1  0  0  0  0
 37 38  1  1  0  0  0
 39 41  1  0  0  0  0
 39 40  1  6  0  0  0
 41 42  1  1  0  0  0
M  CHG  6  12   1  20   1  24   1  29   1  33   1  36   1
M  END
>  <CHROM.1>
64.74746016,-45.53614339,166.91334248,-108.31494936,-114.77589678,-26.88974436
141.55695357,-36.55934295,175.68331738,56.98654892,-176.82583167,78.49286865
124.09723070,-119.99160309,59.09459241,-55.21373596,66.34314040,-150.31032221
175.82696415,112.64428914,178.89471718,-54.32759636,-2.29890941,-2.42022868
1.78048521,-2.74283098,0.08290568,-0.27224474

>  <Name>
1NEM.B

>  <RI>
0

>  <Rbt.Current_Directory>
/home/itssahil/PROJECTS/Mol_Feturizer/New_Systems/rnas/1nem

>  <Rbt.Executable>
rbdock ($Id: //depot/dev/client3/rdock/2013.1/src/exe/rbdock.cxx#4 $)

>  <Rbt.Library>
libRbt.so (2013.1, Build901 2013/11/27)

>  <Rbt.Parameter_File>
/export/apps/rDock/src/rDock_2013.1_src/data/scripts/dock_solv.prm

>  <Rbt.Receptor>
prm/blind_docking_100.prm

>  <SCORE>
1.28822

>  <SCORE.INTER>
-30.3295

>  <SCORE.INTER.CONST>
1

>  <SCORE.INTER.POLAR>
-6.7273

>  <SCORE.INTER.ROT>
9

>  <SCORE.INTER.SOLV>
41.2472

>  <SCORE.INTER.VDW>
-21.1444

>  <SCORE.INTER.norm>
-0.722131

>  <SCORE.INTRA>
29.4234

>  <SCORE.INTRA.DIHEDRAL>
23.1467

>  <SCORE.INTRA.DIHEDRAL.0>
22.4324

>  <SCORE.INTRA.POLAR>
0.624571

>  <SCORE.INTRA.POLAR.0>
-1.83749

>  <SCORE.INTRA.REPUL>
0.00519924

>  <SCORE.INTRA.REPUL.0>
0

>  <SCORE.INTRA.SOLV>
7.76144

>  <SCORE.INTRA.SOLV.lig_0>
-160.638

>  <SCORE.INTRA.VDW>
11.8198

>  <SCORE.INTRA.VDW.0>
-7.61953

>  <SCORE.INTRA.norm>
0.700557

>  <SCORE.RESTR>
2.19433

>  <SCORE.RESTR.CAVITY>
2.19433

>  <SCORE.RESTR.norm>
0.0522459

>  <SCORE.SYSTEM>
0

>  <SCORE.SYSTEM.CONST>
0

>  <SCORE.SYSTEM.DIHEDRAL>
0

>  <SCORE.SYSTEM.SOLV>
0

>  <SCORE.SYSTEM.norm>
0

>  <SCORE.heavy>
42

>  <SCORE.norm>
0.0306719

>  <RMSD>
6.241

$$$$
1NEM.B
 OpenBabel11021811403D
libRbt.so/2013.1/901 2013/11/27
 42 45  0  0  0  0  0  0  0  0999 V2000
    6.9023   -1.2502    4.4710 O   0  0  0  0  0  0  0  0  0  0  0  0
    5.5591   -0.7821    4.6083 C   0  0  0  0  0  0  0  0  0  0  0  0
    5.1971    0.3030    3.5953 C   0  0  1  0  0  0  0  0  0  0  0  0
    5.4887   -0.1285    2.2693 O   0  0  0  0  0  0  0  0  0  0  0  0
    3.7165    0.6425    3.5311 C   0  0  1  0  0  0  0  0  0  0  0  0
    3.3950    1.3673    4.7205 O   0  0  0  0  0  0  0  0  0  0  0  0
    3.7101    1.4318    2.2354 C   0  0  1  0  0  0  0  0  0  0  0  0
    4.3654    2.6973    2.3703 O   0  0  0  0  0  0  0  0  0  0  0  0
    4.5589    0.4863    1.3772 C   0  0  2  0  0  0  0  0  0  0  0  0
    4.2778    1.2152    5.7950 C   0  0  2  0  0  0  0  0  0  0  0  0
    3.5841    1.6661    7.0876 C   0  0  2  0  0  0  0  0  0  0  0  0
    3.0402    3.0398    6.9224 N   0  3  0  0  0  0  0  0  0  0  0  0
    4.5416    1.5761    8.2804 C   0  0  1  0  0  0  0  0  0  0  0  0
    4.7845    0.2115    8.5959 O   0  0  0  0  0  0  0  0  0  0  0  0
    5.8691    2.2777    7.9779 C   0  0  2  0  0  0  0  0  0  0  0  0
    5.6749    3.6834    7.8850 O   0  0  0  0  0  0  0  0  0  0  0  0
    6.4452    1.7442    6.6693 C   0  0  1  0  0  0  0  0  0  0  0  0
    5.4908    1.9323    5.6065 O   0  0  0  0  0  0  0  0  0  0  0  0
    7.7399    2.4257    6.2627 C   0  0  0  0  0  0  0  0  0  0  0  0
    7.4987    3.7577    5.6646 N   0  3  0  0  0  0  0  0  0  0  0  0
   -1.0865    3.8594   -1.8142 C   0  0  0  0  0  0  0  0  0  0  0  0
    1.6120    1.3220   -1.7330 C   0  0  2  0  0  0  0  0  0  0  0  0
    2.7965    2.1357   -2.2488 C   0  0  2  0  0  0  0  0  0  0  0  0
    4.0719    1.4800   -1.8735 N   0  3  0  0  0  0  0  0  0  0  0  0
    2.7613    3.5416   -1.6647 C   0  0  1  0  0  0  0  0  0  0  0  0
    3.8215    4.3108   -2.2112 O   0  0  0  0  0  0  0  0  0  0  0  0
    1.4187    4.1948   -1.9855 C   0  0  2  0  0  0  0  0  0  0  0  0
    1.3509    5.4816   -1.3846 O   0  0  0  0  0  0  0  0  0  0  0  0
   -2.1483    2.8578   -1.5643 N   0  3  0  0  0  0  0  0  0  0  0  0
    0.2862    3.3181   -1.4544 C   0  0  2  0  0  0  0  0  0  0  0  0
    0.3844    1.9908   -2.0097 O   0  0  0  0  0  0  0  0  0  0  0  0
    0.6153   -2.2068    2.0815 C   0  0  2  0  0  0  0  0  0  0  0  0
    0.3374   -3.5937    2.5205 N   0  3  0  0  0  0  0  0  0  0  0  0
   -0.2380   -1.8643    0.8655 C   0  0  0  0  0  0  0  0  0  0  0  0
    0.0389   -0.4412    0.4015 C   0  0  2  0  0  0  0  0  0  0  0  0
   -0.8044   -0.1775   -0.7559 N   0  3  0  0  0  0  0  0  0  0  0  0
    1.5159   -0.2916    0.0445 C   0  0  1  0  0  0  0  0  0  0  0  0
    1.7754    1.0648   -0.3666 O   0  0  0  0  0  0  0  0  0  0  0  0
    2.4046   -0.6395    1.2468 C   0  0  2  0  0  0  0  0  0  0  0  0
    3.7877   -0.5899    0.8478 O   0  0  0  0  0  0  0  0  0  0  0  0
    2.1031   -2.0386    1.7780 C   0  0  1  0  0  0  0  0  0  0  0  0
    2.8567   -2.2694    2.9609 O   0  0  0  0  0  0  0  0  0  0  0  0
  1  2  1  0  0  0  0
  3  2  1  1  0  0  0
  3  5  1  0  0  0  0
  3  4  1  0  0  0  0
  4  9  1  0  0  0  0
  5  7  1  0  0  0  0
  5  6  1  1  0  0  0
  7  9  1  0  0  0  0
  7  8  1  1  0  0  0
  9 40  1  1  0  0  0
 10  6  1  6  0  0  0
 10 11  1  0  0  0  0
 10 18  1  0  0  0  0
 11 13  1  0  0  0  0
 11 12  1  6  0  0  0
 13 15  1  0  0  0  0
 13 14  1  6  0  0  0
 15 17  1  0  0  0  0
 15 16  1  6  0  0  0
 17 19  1  6  0  0  0
 17 18  1  0  0  0  0
 19 20  1  0  0  0  0
 21 29  1  0  0  0  0
 22 23  1  0  0  0  0
 22 31  1  0  0  0  0
 22 38  1  1  0  0  0
 23 25  1  0  0  0  0
 23 24  1  1  0  0  0
 25 27  1  0  0  0  0
 25 26  1  6  0  0  0
 27 30  1  0  0  0  0
 27 28  1  1  0  0  0
 30 21  1  6  0  0  0
 30 31  1  0  0  0  0
 32 34  1  0  0  0  0
 32 41  1  0  0  0  0
 32 33  1  6  0  0  0
 34 35  1  0  0  0  0
 35 37  1  0  0  0  0
 35 36  1  6  0  0  0
 37 39  1  0  0  0  0
 37 38  1  1  0  0  0
 39 41  1  0  0  0  0
 39 40  1  6  0  0  0
 41 42  1  1  0  0  0
M  CHG  6  12   1  20   1  24   1  29   1  33   1  36   1
M  END
>  <CHROM.1>
-176.52408563,52.87784545,-20.43347701,-162.06507105,-65.57142472,111.88161530
173.61379918,-47.62120921,64.56735572,-78.01972246,26.86595493,167.18906382
-149.85138283,-134.22428099,-169.07577013,-173.38428346,60.42541169,76.40103607
-167.02185484,-89.32689141,109.78155714,-54.74846621,3.14038660,1.20923524
2.33662638,0.57471588,0.91370768,2.50162236

>  <Name>
1NEM.B

>  <RI>
0

>  <Rbt.Current_Directory>
/home/itssahil/PROJECTS/Mol_Feturizer/New_Systems/rnas/1nem

>  <Rbt.Executable>
rbdock ($Id: //depot/dev/client3/rdock/2013.1/src/exe/rbdock.cxx#4 $)

>  <Rbt.Library>
libRbt.so (2013.1, Build901 2013/11/27)

>  <Rbt.Parameter_File>
/export/apps/rDock/src/rDock_2013.1_src/data/scripts/dock_solv.prm

>  <Rbt.Receptor>
prm/pocket_docking_6.prm

>  <SCORE>
-13.9881

>  <SCORE.INTER>
-36.9

>  <SCORE.INTER.CONST>
1

>  <SCORE.INTER.POLAR>
-6.0876

>  <SCORE.INTER.ROT>
9

>  <SCORE.INTER.SOLV>
26.8501

>  <SCORE.INTER.VDW>
-22.858

>  <SCORE.INTER.norm>
-0.878572

>  <SCORE.INTRA>
22.9119

>  <SCORE.INTRA.DIHEDRAL>
16.4223

>  <SCORE.INTRA.DIHEDRAL.0>
22.4324

>  <SCORE.INTRA.POLAR>
-0.563356

>  <SCORE.INTRA.POLAR.0>
-1.83749

>  <SCORE.INTRA.REPUL>
0

>  <SCORE.INTRA.REPUL.0>
0

>  <SCORE.INTRA.SOLV>
4.36754

>  <SCORE.INTRA.SOLV.lig_0>
-160.638

>  <SCORE.INTRA.VDW>
14.4324

>  <SCORE.INTRA.VDW.0>
-7.61953

>  <SCORE.INTRA.norm>
0.545521

>  <SCORE.RESTR>
0

>  <SCORE.RESTR.CAVITY>
0

>  <SCORE.RESTR.norm>
0

>  <SCORE.SYSTEM>
0

>  <SCORE.SYSTEM.CONST>
0

>  <SCORE.SYSTEM.DIHEDRAL>
0

>  <SCORE.SYSTEM.SOLV>
0

>  <SCORE.SYSTEM.norm>
0

>  <SCORE.heavy>
42

>  <SCORE.norm>
-0.333051

>  <RMSD>
6.287

$$$$
1NEM.B
 OpenBabel11021811403D
libRbt.so/2013.1/901 2013/11/27
 42 45  0  0  0  0  0  0  0  0999 V2000
    1.1573   -5.7477    1.5357 O   0  0  0  0  0  0  0  0  0  0  0  0
    0.3150   -4.6147    1.7572 C   0  0  0  0  0  0  0  0  0  0  0  0
   -0.9404   -4.6231    0.8862 C   0  0  1  0  0  0  0  0  0  0  0  0
   -1.8202   -5.6718    1.2809 O   0  0  0  0  0  0  0  0  0  0  0  0
   -1.8066   -3.3797    1.0097 C   0  0  1  0  0  0  0  0  0  0  0  0
   -1.1168   -2.3144    0.3520 O   0  0  0  0  0  0  0  0  0  0  0  0
   -3.0606   -3.8956    0.3292 C   0  0  1  0  0  0  0  0  0  0  0  0
   -2.8780   -4.0701   -1.0798 O   0  0  0  0  0  0  0  0  0  0  0  0
   -3.1624   -5.2598    1.0216 C   0  0  2  0  0  0  0  0  0  0  0  0
    0.2261   -2.1379    0.7023 C   0  0  2  0  0  0  0  0  0  0  0  0
    0.4056   -0.7520    1.3368 C   0  0  2  0  0  0  0  0  0  0  0  0
   -0.1427    0.2963    0.4365 N   0  3  0  0  0  0  0  0  0  0  0  0
    1.8773   -0.4938    1.6758 C   0  0  1  0  0  0  0  0  0  0  0  0
    2.2671   -1.3157    2.7681 O   0  0  0  0  0  0  0  0  0  0  0  0
    2.7801   -0.7777    0.4713 C   0  0  2  0  0  0  0  0  0  0  0  0
    2.5586    0.1865   -0.5501 O   0  0  0  0  0  0  0  0  0  0  0  0
    2.4960   -2.1782   -0.0643 C   0  0  1  0  0  0  0  0  0  0  0  0
    1.1013   -2.2930   -0.4072 O   0  0  0  0  0  0  0  0  0  0  0  0
    3.3119   -2.5249   -1.2973 C   0  0  0  0  0  0  0  0  0  0  0  0
    3.5976   -1.3314   -2.1241 N   0  3  0  0  0  0  0  0  0  0  0  0
   -5.9619   -2.0824    4.1400 C   0  0  0  0  0  0  0  0  0  0  0  0
   -5.6806   -2.3501    0.4554 C   0  0  2  0  0  0  0  0  0  0  0  0
   -4.7088   -1.2125    0.1512 C   0  0  2  0  0  0  0  0  0  0  0  0
   -4.0894   -1.4091   -1.1812 N   0  3  0  0  0  0  0  0  0  0  0  0
   -3.6173   -1.1572    1.2116 C   0  0  1  0  0  0  0  0  0  0  0  0
   -2.7662   -0.0493    0.9614 O   0  0  0  0  0  0  0  0  0  0  0  0
   -4.2536   -1.0292    2.5938 C   0  0  2  0  0  0  0  0  0  0  0  0
   -3.2440   -1.0465    3.5948 O   0  0  0  0  0  0  0  0  0  0  0  0
   -6.8067   -3.2732    4.3877 N   0  3  0  0  0  0  0  0  0  0  0  0
   -5.2214   -2.1894    2.8183 C   0  0  2  0  0  0  0  0  0  0  0  0
   -6.2124   -2.2184    1.7710 O   0  0  0  0  0  0  0  0  0  0  0  0
   -7.4218   -5.8387    2.9638 C   0  0  2  0  0  0  0  0  0  0  0  0
   -8.0973   -6.9915    3.6025 N   0  3  0  0  0  0  0  0  0  0  0  0
   -7.8875   -5.6968    1.5191 C   0  0  0  0  0  0  0  0  0  0  0  0
   -7.1991   -4.5162    0.8488 C   0  0  2  0  0  0  0  0  0  0  0  0
   -7.6861   -4.4350   -0.5210 N   0  3  0  0  0  0  0  0  0  0  0  0
   -5.6855   -4.7153    0.8777 C   0  0  1  0  0  0  0  0  0  0  0  0
   -5.0404   -3.5808    0.2669 O   0  0  0  0  0  0  0  0  0  0  0  0
   -5.1844   -4.8718    2.3201 C   0  0  2  0  0  0  0  0  0  0  0  0
   -3.7735   -5.1614    2.3062 O   0  0  0  0  0  0  0  0  0  0  0  0
   -5.9053   -6.0076    3.0417 C   0  0  1  0  0  0  0  0  0  0  0  0
   -5.5015   -6.0358    4.4043 O   0  0  0  0  0  0  0  0  0  0  0  0
  1  2  1  0  0  0  0
  3  2  1  1  0  0  0
  3  5  1  0  0  0  0
  3  4  1  0  0  0  0
  4  9  1  0  0  0  0
  5  7  1  0  0  0  0
  5  6  1  6  0  0  0
  7  9  1  0  0  0  0
  7  8  1  6  0  0  0
  9 40  1  1  0  0  0
 10  6  1  6  0  0  0
 10 11  1  0  0  0  0
 10 18  1  0  0  0  0
 11 13  1  0  0  0  0
 11 12  1  6  0  0  0
 13 15  1  0  0  0  0
 13 14  1  1  0  0  0
 15 17  1  0  0  0  0
 15 16  1  6  0  0  0
 17 19  1  6  0  0  0
 17 18  1  0  0  0  0
 19 20  1  0  0  0  0
 21 29  1  0  0  0  0
 22 23  1  0  0  0  0
 22 31  1  0  0  0  0
 22 38  1  1  0  0  0
 23 25  1  0  0  0  0
 23 24  1  6  0  0  0
 25 27  1  0  0  0  0
 25 26  1  6  0  0  0
 27 30  1  0  0  0  0
 27 28  1  1  0  0  0
 30 21  1  1  0  0  0
 30 31  1  0  0  0  0
 32 34  1  0  0  0  0
 32 41  1  0  0  0  0
 32 33  1  6  0  0  0
 34 35  1  0  0  0  0
 35 37  1  0  0  0  0
 35 36  1  6  0  0  0
 37 39  1  0  0  0  0
 37 38  1  1  0  0  0
 39 41  1  0  0  0  0
 39 40  1  6  0  0  0
 41 42  1  1  0  0  0
M  CHG  6  12   1  20   1  24   1  29   1  33   1  36   1
M  END
>  <CHROM.1>
-103.99991256,68.52403357,-49.64211670,-117.67965495,-31.31330132,-174.67763579
66.96650012,-55.92510308,70.22513917,-31.45078631,-26.77740289,-175.18331657
65.02293598,162.60432099,-14.87391780,58.21595907,-56.32622696,-42.65443395
-32.98656875,33.62618254,-0.89012049,174.80709451,-2.70893799,-3.05285777
1.24224449,-0.38620040,-0.19004544,2.96915562

>  <Name>
1NEM.B

>  <RI>
0

>  <Rbt.Current_Directory>
/home/itssahil/PROJECTS/Mol_Feturizer/New_Systems/rnas/1nem

>  <Rbt.Executable>
rbdock ($Id: //depot/dev/client3/rdock/2013.1/src/exe/rbdock.cxx#4 $)

>  <Rbt.Library>
libRbt.so (2013.1, Build901 2013/11/27)

>  <Rbt.Parameter_File>
/export/apps/rDock/src/rDock_2013.1_src/data/scripts/dock_solv.prm

>  <Rbt.Receptor>
prm/blind_docking_60.prm

>  <SCORE>
29.0853

>  <SCORE.INTER>
-17.9059

>  <SCORE.INTER.CONST>
1

>  <SCORE.INTER.POLAR>
-5.44479

>  <SCORE.INTER.ROT>
9

>  <SCORE.INTER.SOLV>
40.9467

>  <SCORE.INTER.VDW>
-17.0369

>  <SCORE.INTER.norm>
-0.426331

>  <SCORE.INTRA>
43.153

>  <SCORE.INTRA.DIHEDRAL>
17.9149

>  <SCORE.INTRA.DIHEDRAL.0>
22.4324

>  <SCORE.INTRA.POLAR>
-1.12789

>  <SCORE.INTRA.POLAR.0>
-1.83749

>  <SCORE.INTRA.REPUL>
0

>  <SCORE.INTRA.REPUL.0>
0

>  <SCORE.INTRA.SOLV>
12.9409

>  <SCORE.INTRA.SOLV.lig_0>
-160.638

>  <SCORE.INTRA.VDW>
31.56

>  <SCORE.INTRA.VDW.0>
-7.61953

>  <SCORE.INTRA.norm>
1.02745

>  <SCORE.RESTR>
3.83818

>  <SCORE.RESTR.CAVITY>
3.83818

>  <SCORE.RESTR.norm>
0.0913852

>  <SCORE.SYSTEM>
0

>  <SCORE.SYSTEM.CONST>
0

>  <SCORE.SYSTEM.DIHEDRAL>
0

>  <SCORE.SYSTEM.SOLV>
0

>  <SCORE.SYSTEM.norm>
0

>  <SCORE.heavy>
42

>  <SCORE.norm>
0.692508

>  <RMSD>
6.295

$$$$
1NEM.B
 OpenBabel11021811403D
libRbt.so/2013.1/901 2013/11/27
 42 45  0  0  0  0  0  0  0  0999 V2000
   -0.9391   -6.4514    1.4406 O   0  0  0  0  0  0  0  0  0  0  0  0
   -0.5599   -5.2463    0.7729 C   0  0  0  0  0  0  0  0  0  0  0  0
   -1.7534   -4.4632    0.2279 C   0  0  1  0  0  0  0  0  0  0  0  0
   -2.8895   -5.3109    0.0860 O   0  0  0  0  0  0  0  0  0  0  0  0
   -2.2581   -3.3582    1.1422 C   0  0  1  0  0  0  0  0  0  0  0  0
   -1.2951   -2.3025    1.1042 O   0  0  0  0  0  0  0  0  0  0  0  0
   -3.5899   -3.0835    0.4694 C   0  0  1  0  0  0  0  0  0  0  0  0
   -3.4312   -2.4529   -0.8059 O   0  0  0  0  0  0  0  0  0  0  0  0
   -4.0671   -4.5292    0.2881 C   0  0  2  0  0  0  0  0  0  0  0  0
    0.0300   -2.6825    0.8654 C   0  0  2  0  0  0  0  0  0  0  0  0
    0.6384   -3.2379    2.1603 C   0  0  2  0  0  0  0  0  0  0  0  0
    0.4642   -2.2599    3.2664 N   0  3  0  0  0  0  0  0  0  0  0  0
    2.1118   -3.6056    1.9567 C   0  0  1  0  0  0  0  0  0  0  0  0
    2.2067   -4.7567    1.1282 O   0  0  0  0  0  0  0  0  0  0  0  0
    2.8875   -2.4485    1.3196 C   0  0  2  0  0  0  0  0  0  0  0  0
    2.9970   -1.3648    2.2337 O   0  0  0  0  0  0  0  0  0  0  0  0
    2.1743   -1.9895    0.0509 C   0  0  1  0  0  0  0  0  0  0  0  0
    0.8199   -1.6116    0.3652 O   0  0  0  0  0  0  0  0  0  0  0  0
    2.8477   -0.8051   -0.6197 C   0  0  0  0  0  0  0  0  0  0  0  0
    4.3232   -0.9032   -0.5622 N   0  3  0  0  0  0  0  0  0  0  0  0
   -6.9231   -6.6079    4.4110 C   0  0  0  0  0  0  0  0  0  0  0  0
   -6.2242   -2.9719    4.2771 C   0  0  2  0  0  0  0  0  0  0  0  0
   -5.2819   -2.8095    5.4673 C   0  0  2  0  0  0  0  0  0  0  0  0
   -4.5103   -1.5498    5.3429 N   0  3  0  0  0  0  0  0  0  0  0  0
   -4.3180   -3.9864    5.5380 C   0  0  1  0  0  0  0  0  0  0  0  0
   -3.5000   -3.8632    6.6913 O   0  0  0  0  0  0  0  0  0  0  0  0
   -5.1085   -5.2918    5.5915 C   0  0  2  0  0  0  0  0  0  0  0  0
   -4.2159   -6.3984    5.5877 O   0  0  0  0  0  0  0  0  0  0  0  0
   -7.4941   -6.8346    5.7585 N   0  3  0  0  0  0  0  0  0  0  0  0
   -6.0369   -5.3748    4.3813 C   0  0  2  0  0  0  0  0  0  0  0  0
   -6.9036   -4.2230    4.3412 O   0  0  0  0  0  0  0  0  0  0  0  0
   -8.3056   -4.7981    0.5722 C   0  0  2  0  0  0  0  0  0  0  0  0
   -9.0369   -5.2185   -0.6452 N   0  3  0  0  0  0  0  0  0  0  0  0
   -8.4269   -3.2899    0.7581 C   0  0  0  0  0  0  0  0  0  0  0  0
   -7.6775   -2.8428    2.0054 C   0  0  2  0  0  0  0  0  0  0  0  0
   -7.8331   -1.4001    2.1261 N   0  3  0  0  0  0  0  0  0  0  0  0
   -6.2036   -3.2236    1.8878 C   0  0  1  0  0  0  0  0  0  0  0  0
   -5.5073   -2.8225    3.0838 O   0  0  0  0  0  0  0  0  0  0  0  0
   -6.0466   -4.7376    1.6893 C   0  0  2  0  0  0  0  0  0  0  0  0
   -4.6563   -5.0493    1.4778 O   0  0  0  0  0  0  0  0  0  0  0  0
   -6.8424   -5.2282    0.4824 C   0  0  1  0  0  0  0  0  0  0  0  0
   -6.7692   -6.6460    0.4104 O   0  0  0  0  0  0  0  0  0  0  0  0
  1  2  1  0  0  0  0
  3  2  1  1  0  0  0
  3  5  1  0  0  0  0
  3  4  1  0  0  0  0
  4  9  1  0  0  0  0
  5  7  1  0  0  0  0
  5  6  1  6  0  0  0
  7  9  1  0  0  0  0
  7  8  1  6  0  0  0
  9 40  1  1  0  0  0
 10  6  1  1  0  0  0
 10 11  1  0  0  0  0
 10 18  1  0  0  0  0
 11 13  1  0  0  0  0
 11 12  1  1  0  0  0
 13 15  1  0  0  0  0
 13 14  1  6  0  0  0
 15 17  1  0  0  0  0
 15 16  1  1  0  0  0
 17 19  1  1  0  0  0
 17 18  1  0  0  0  0
 19 20  1  0  0  0  0
 21 29  1  0  0  0  0
 22 23  1  0  0  0  0
 22 31  1  0  0  0  0
 22 38  1  6  0  0  0
 23 25  1  0  0  0  0
 23 24  1  6  0  0  0
 25 27  1  0  0  0  0
 25 26  1  1  0  0  0
 27 30  1  0  0  0  0
 27 28  1  6  0  0  0
 30 21  1  1  0  0  0
 30 31  1  0  0  0  0
 32 34  1  0  0  0  0
 32 41  1  0  0  0  0
 32 33  1  6  0  0  0
 34 35  1  0  0  0  0
 35 37  1  0  0  0  0
 35 36  1  6  0  0  0
 37 39  1  0  0  0  0
 37 38  1  1  0  0  0
 39 41  1  0  0  0  0
 39 40  1  6  0  0  0
 41 42  1  1  0  0  0
M  CHG  6  12   1  20   1  24   1  29   1  33   1  36   1
M  END
>  <CHROM.1>
-153.76385368,-20.66911382,-29.45321389,-78.53515107,39.99126400,-161.34232203
-116.44815662,-56.55464019,167.45444495,38.68432631,103.43454035,43.91711233
51.36362617,167.56252804,63.93542023,-53.19681608,-163.02372212,158.98199720
177.04722827,37.34038722,-65.11167142,-18.23237390,-3.23667032,-3.76392827
2.11525177,0.24619841,-0.22493677,-1.48163987

>  <Name>
1NEM.B

>  <RI>
0

>  <Rbt.Current_Directory>
/home/itssahil/PROJECTS/Mol_Feturizer/New_Systems/rnas/1nem

>  <Rbt.Executable>
rbdock ($Id: //depot/dev/client3/rdock/2013.1/src/exe/rbdock.cxx#4 $)

>  <Rbt.Library>
libRbt.so (2013.1, Build901 2013/11/27)

>  <Rbt.Parameter_File>
/export/apps/rDock/src/rDock_2013.1_src/data/scripts/dock_solv.prm

>  <Rbt.Receptor>
prm/blind_docking_100.prm

>  <SCORE>
59.8298

>  <SCORE.INTER>
23.3014

>  <SCORE.INTER.CONST>
1

>  <SCORE.INTER.POLAR>
-6.90806

>  <SCORE.INTER.ROT>
9

>  <SCORE.INTER.SOLV>
56.141

>  <SCORE.INTER.VDW>
10.2475

>  <SCORE.INTER.norm>
0.554796

>  <SCORE.INTRA>
34.5618

>  <SCORE.INTRA.DIHEDRAL>
14.5813

>  <SCORE.INTRA.DIHEDRAL.0>
22.4324

>  <SCORE.INTRA.POLAR>
1.31465

>  <SCORE.INTRA.POLAR.0>
-1.83749

>  <SCORE.INTRA.REPUL>
0

>  <SCORE.INTRA.REPUL.0>
0

>  <SCORE.INTRA.SOLV>
-2.46778

>  <SCORE.INTRA.SOLV.lig_0>
-160.638

>  <SCORE.INTRA.VDW>
24.0352

>  <SCORE.INTRA.VDW.0>
-7.61953

>  <SCORE.INTRA.norm>
0.822899

>  <SCORE.RESTR>
1.96657

>  <SCORE.RESTR.CAVITY>
1.96657

>  <SCORE.RESTR.norm>
0.046823

>  <SCORE.SYSTEM>
0

>  <SCORE.SYSTEM.CONST>
0

>  <SCORE.SYSTEM.DIHEDRAL>
0

>  <SCORE.SYSTEM.SOLV>
0

>  <SCORE.SYSTEM.norm>
0

>  <SCORE.heavy>
42

>  <SCORE.norm>
1.42452

>  <RMSD>
6.309

$$$$
1NEM.B
 OpenBabel11021811403D
libRbt.so/2013.1/901 2013/11/27
 42 45  0  0  0  0  0  0  0  0999 V2000
   -2.8255   -1.4547    1.3988 O   0  0  0  0  0  0  0  0  0  0  0  0
   -2.2112   -2.2256    2.4333 C   0  0  0  0  0  0  0  0  0  0  0  0
   -2.2490   -3.7289    2.1620 C   0  0  1  0  0  0  0  0  0  0  0  0
   -3.5886   -4.2127    2.1932 O   0  0  0  0  0  0  0  0  0  0  0  0
   -1.7660   -4.1363    0.7791 C   0  0  1  0  0  0  0  0  0  0  0  0
   -0.3467   -3.9672    0.7582 O   0  0  0  0  0  0  0  0  0  0  0  0
   -2.2775   -5.5645    0.7605 C   0  0  1  0  0  0  0  0  0  0  0  0
   -1.5526   -6.4099    1.6599 O   0  0  0  0  0  0  0  0  0  0  0  0
   -3.6934   -5.3166    1.2938 C   0  0  2  0  0  0  0  0  0  0  0  0
    0.1315   -2.7062    1.1302 C   0  0  2  0  0  0  0  0  0  0  0  0
    0.6832   -1.9884   -0.1091 C   0  0  2  0  0  0  0  0  0  0  0  0
    1.6800   -2.8507   -0.7968 N   0  3  0  0  0  0  0  0  0  0  0  0
    1.2768   -0.6272    0.2682 C   0  0  1  0  0  0  0  0  0  0  0  0
    0.2314    0.2676    0.6245 O   0  0  0  0  0  0  0  0  0  0  0  0
    2.2613   -0.7576    1.4345 C   0  0  2  0  0  0  0  0  0  0  0  0
    3.4257   -1.4618    1.0216 O   0  0  0  0  0  0  0  0  0  0  0  0
    1.5914   -1.4924    2.5921 C   0  0  1  0  0  0  0  0  0  0  0  0
    1.1249   -2.7801    2.1444 O   0  0  0  0  0  0  0  0  0  0  0  0
    2.5162   -1.7147    3.7759 C   0  0  0  0  0  0  0  0  0  0  0  0
    3.5219   -2.7649    3.5017 N   0  3  0  0  0  0  0  0  0  0  0  0
   -5.7458   -4.0382    6.4853 C   0  0  0  0  0  0  0  0  0  0  0  0
   -6.9425   -2.8502    3.1862 C   0  0  2  0  0  0  0  0  0  0  0  0
   -6.6286   -1.3590    3.2791 C   0  0  2  0  0  0  0  0  0  0  0  0
   -6.5898   -0.7574    1.9248 N   0  3  0  0  0  0  0  0  0  0  0  0
   -5.2850   -1.1471    3.9638 C   0  0  1  0  0  0  0  0  0  0  0  0
   -5.0410    0.2430    4.1136 O   0  0  0  0  0  0  0  0  0  0  0  0
   -5.2944   -1.8292    5.3300 C   0  0  2  0  0  0  0  0  0  0  0  0
   -4.0202   -1.6952    5.9464 O   0  0  0  0  0  0  0  0  0  0  0  0
   -4.5841   -4.9259    6.7210 N   0  3  0  0  0  0  0  0  0  0  0  0
   -5.6302   -3.3093    5.1579 C   0  0  2  0  0  0  0  0  0  0  0  0
   -6.8922   -3.4555    4.4755 O   0  0  0  0  0  0  0  0  0  0  0  0
   -8.1338   -5.6914   -0.6823 C   0  0  2  0  0  0  0  0  0  0  0  0
   -8.7305   -6.0676   -1.9845 N   0  3  0  0  0  0  0  0  0  0  0  0
   -8.7501   -4.3894   -0.1834 C   0  0  0  0  0  0  0  0  0  0  0  0
   -8.1441   -3.9889    1.1544 C   0  0  2  0  0  0  0  0  0  0  0  0
   -8.7733   -2.7448    1.5744 N   0  3  0  0  0  0  0  0  0  0  0  0
   -6.6346   -3.8130    1.0066 C   0  0  1  0  0  0  0  0  0  0  0  0
   -6.0651   -3.4618    2.2828 O   0  0  0  0  0  0  0  0  0  0  0  0
   -5.9832   -5.1055    0.4954 C   0  0  2  0  0  0  0  0  0  0  0  0
   -4.5798   -4.8747    0.2680 O   0  0  0  0  0  0  0  0  0  0  0  0
   -6.6165   -5.5701   -0.8137 C   0  0  1  0  0  0  0  0  0  0  0  0
   -6.0711   -6.8296   -1.1836 O   0  0  0  0  0  0  0  0  0  0  0  0
  1  2  1  0  0  0  0
  3  2  1  6  0  0  0
  3  5  1  0  0  0  0
  3  4  1  0  0  0  0
  4  9  1  0  0  0  0
  5  7  1  0  0  0  0
  5  6  1  1  0  0  0
  7  9  1  0  0  0  0
  7  8  1  1  0  0  0
  9 40  1  6  0  0  0
 10  6  1  6  0  0  0
 10 11  1  0  0  0  0
 10 18  1  0  0  0  0
 11 13  1  0  0  0  0
 11 12  1  1  0  0  0
 13 15  1  0  0  0  0
 13 14  1  1  0  0  0
 15 17  1  0  0  0  0
 15 16  1  6  0  0  0
 17 19  1  1  0  0  0
 17 18  1  0  0  0  0
 19 20  1  0  0  0  0
 21 29  1  0  0  0  0
 22 23  1  0  0  0  0
 22 31  1  0  0  0  0
 22 38  1  6  0  0  0
 23 25  1  0  0  0  0
 23 24  1  6  0  0  0
 25 27  1  0  0  0  0
 25 26  1  1  0  0  0
 27 30  1  0  0  0  0
 27 28  1  6  0  0  0
 30 21  1  1  0  0  0
 30 31  1  0  0  0  0
 32 34  1  0  0  0  0
 32 41  1  0  0  0  0
 32 33  1  6  0  0  0
 34 35  1  0  0  0  0
 35 37  1  0  0  0  0
 35 36  1  6  0  0  0
 37 39  1  0  0  0  0
 37 38  1  1  0  0  0
 39 41  1  0  0  0  0
 39 40  1  6  0  0  0
 41 42  1  1  0  0  0
M  CHG  6  12   1  20   1  24   1  29   1  33   1  36   1
M  END
>  <CHROM.1>
-67.53485958,-66.47790980,-53.77668912,-109.18767838,79.29462926,-88.75959945
-166.16381233,-67.92534836,54.83408737,-73.33885272,-177.15246456,-106.90482963
-69.37971694,-105.57218300,-26.78448656,53.59442517,-175.35085247,124.46156430
152.21974260,-24.41483252,99.42599132,5.73270115,-3.37805024,-3.17341087
1.94301359,0.12143468,0.20286940,1.06605852

>  <Name>
1NEM.B

>  <RI>
0

>  <Rbt.Current_Directory>
/home/itssahil/PROJECTS/Mol_Feturizer/New_Systems/rnas/1nem

>  <Rbt.Executable>
rbdock ($Id: //depot/dev/client3/rdock/2013.1/src/exe/rbdock.cxx#4 $)

>  <Rbt.Library>
libRbt.so (2013.1, Build901 2013/11/27)

>  <Rbt.Parameter_File>
/export/apps/rDock/src/rDock_2013.1_src/data/scripts/dock_solv.prm

>  <Rbt.Receptor>
prm/blind_docking_80.prm

>  <SCORE>
109.897

>  <SCORE.INTER>
56.5974

>  <SCORE.INTER.CONST>
1

>  <SCORE.INTER.POLAR>
-4.9373

>  <SCORE.INTER.ROT>
9

>  <SCORE.INTER.SOLV>
64.8893

>  <SCORE.INTER.VDW>
22.9595

>  <SCORE.INTER.norm>
1.34756

>  <SCORE.INTRA>
47.4326

>  <SCORE.INTRA.DIHEDRAL>
27.5534

>  <SCORE.INTRA.DIHEDRAL.0>
22.4324

>  <SCORE.INTRA.POLAR>
1.2185

>  <SCORE.INTRA.POLAR.0>
-1.83749

>  <SCORE.INTRA.REPUL>
0.891274

>  <SCORE.INTRA.REPUL.0>
0

>  <SCORE.INTRA.SOLV>
4.91378

>  <SCORE.INTRA.SOLV.lig_0>
-160.638

>  <SCORE.INTRA.VDW>
22.5997

>  <SCORE.INTRA.VDW.0>
-7.61953

>  <SCORE.INTRA.norm>
1.12935

>  <SCORE.RESTR>
5.86682

>  <SCORE.RESTR.CAVITY>
5.86682

>  <SCORE.RESTR.norm>
0.139686

>  <SCORE.SYSTEM>
0

>  <SCORE.SYSTEM.CONST>
0

>  <SCORE.SYSTEM.DIHEDRAL>
0

>  <SCORE.SYSTEM.SOLV>
0

>  <SCORE.SYSTEM.norm>
0

>  <SCORE.heavy>
42

>  <SCORE.norm>
2.61659

>  <RMSD>
6.351

$$$$
1NEM.B
 OpenBabel11021811403D
libRbt.so/2013.1/901 2013/11/27
 42 45  0  0  0  0  0  0  0  0999 V2000
   -3.6785    3.3886   -1.7109 O   0  0  0  0  0  0  0  0  0  0  0  0
   -3.7735    2.0980   -1.1046 C   0  0  0  0  0  0  0  0  0  0  0  0
   -2.4876    1.6732   -0.3971 C   0  0  1  0  0  0  0  0  0  0  0  0
   -2.7335    0.5771    0.4791 O   0  0  0  0  0  0  0  0  0  0  0  0
   -1.4018    1.1422   -1.3193 C   0  0  1  0  0  0  0  0  0  0  0  0
   -0.8722    2.2583   -2.0385 O   0  0  0  0  0  0  0  0  0  0  0  0
   -0.4929    0.5148   -0.2790 C   0  0  1  0  0  0  0  0  0  0  0  0
    0.1660    1.4979    0.5263 O   0  0  0  0  0  0  0  0  0  0  0  0
   -1.5525   -0.2221    0.5486 C   0  0  2  0  0  0  0  0  0  0  0  0
   -0.0357    3.1177   -1.3181 C   0  0  2  0  0  0  0  0  0  0  0  0
   -0.8332    4.3558   -0.8864 C   0  0  2  0  0  0  0  0  0  0  0  0
   -1.4904    4.9765   -2.0666 N   0  3  0  0  0  0  0  0  0  0  0  0
    0.0658    5.3537   -0.1491 C   0  0  1  0  0  0  0  0  0  0  0  0
    0.4151    4.8307    1.1256 O   0  0  0  0  0  0  0  0  0  0  0  0
    1.3379    5.6482   -0.9499 C   0  0  2  0  0  0  0  0  0  0  0  0
    1.0218    6.3792   -2.1280 O   0  0  0  0  0  0  0  0  0  0  0  0
    2.0267    4.3376   -1.3195 C   0  0  1  0  0  0  0  0  0  0  0  0
    1.1152    3.5019   -2.0589 O   0  0  0  0  0  0  0  0  0  0  0  0
    3.2733    4.5333   -2.1643 C   0  0  0  0  0  0  0  0  0  0  0  0
    3.7479    3.2608   -2.7518 N   0  3  0  0  0  0  0  0  0  0  0  0
    2.6304   -0.6196    1.9903 C   0  0  0  0  0  0  0  0  0  0  0  0
   -0.2810   -2.7900    1.2555 C   0  0  2  0  0  0  0  0  0  0  0  0
    0.3840   -4.1628    1.1928 C   0  0  2  0  0  0  0  0  0  0  0  0
   -0.6278   -5.2317    1.3693 N   0  3  0  0  0  0  0  0  0  0  0  0
    1.4411   -4.2841    2.2823 C   0  0  1  0  0  0  0  0  0  0  0  0
    2.1048   -5.5332    2.1647 O   0  0  0  0  0  0  0  0  0  0  0  0
    2.4450   -3.1411    2.1497 C   0  0  2  0  0  0  0  0  0  0  0  0
    3.3957   -3.2073    3.2049 O   0  0  0  0  0  0  0  0  0  0  0  0
    3.7551   -0.6253    2.9537 N   0  3  0  0  0  0  0  0  0  0  0  0
    1.7062   -1.8054    2.2052 C   0  0  2  0  0  0  0  0  0  0  0  0
    0.6954   -1.7547    1.1779 O   0  0  0  0  0  0  0  0  0  0  0  0
   -5.1866   -2.6446    1.4165 C   0  0  2  0  0  0  0  0  0  0  0  0
   -6.5705   -2.1554    1.2195 N   0  3  0  0  0  0  0  0  0  0  0  0
   -4.7865   -2.5005    2.8805 C   0  0  0  0  0  0  0  0  0  0  0  0
   -3.3642   -2.9979    3.0977 C   0  0  2  0  0  0  0  0  0  0  0  0
   -3.0456   -2.8352    4.5091 N   0  3  0  0  0  0  0  0  0  0  0  0
   -2.3981   -2.1993    2.2257 C   0  0  1  0  0  0  0  0  0  0  0  0
   -1.0584   -2.6947    2.4159 O   0  0  0  0  0  0  0  0  0  0  0  0
   -2.7796   -2.3153    0.7434 C   0  0  2  0  0  0  0  0  0  0  0  0
   -1.9153   -1.4696   -0.0391 O   0  0  0  0  0  0  0  0  0  0  0  0
   -4.2248   -1.8861    0.5033 C   0  0  1  0  0  0  0  0  0  0  0  0
   -4.5719   -2.1266   -0.8540 O   0  0  0  0  0  0  0  0  0  0  0  0
  1  2  1  0  0  0  0
  3  2  1  6  0  0  0
  3  5  1  0  0  0  0
  3  4  1  0  0  0  0
  4  9  1  0  0  0  0
  5  7  1  0  0  0  0
  5  6  1  1  0  0  0
  7  9  1  0  0  0  0
  7  8  1  1  0  0  0
  9 40  1  6  0  0  0
 10  6  1  6  0  0  0
 10 11  1  0  0  0  0
 10 18  1  0  0  0  0
 11 13  1  0  0  0  0
 11 12  1  6  0  0  0
 13 15  1  0  0  0  0
 13 14  1  1  0  0  0
 15 17  1  0  0  0  0
 15 16  1  6  0  0  0
 17 19  1  6  0  0  0
 17 18  1  0  0  0  0
 19 20  1  0  0  0  0
 21 29  1  0  0  0  0
 22 23  1  0  0  0  0
 22 31  1  0  0  0  0
 22 38  1  1  0  0  0
 23 25  1  0  0  0  0
 23 24  1  1  0  0  0
 25 27  1  0  0  0  0
 25 26  1  6  0  0  0
 27 30  1  0  0  0  0
 27 28  1  1  0  0  0
 30 21  1  6  0  0  0
 30 31  1  0  0  0  0
 32 34  1  0  0  0  0
 32 41  1  0  0  0  0
 32 33  1  1  0  0  0
 34 35  1  0  0  0  0
 35 37  1  0  0  0  0
 35 36  1  1  0  0  0
 37 39  1  0  0  0  0
 37 38  1  6  0  0  0
 39 41  1  0  0  0  0
 39 40  1  6  0  0  0
 41 42  1  6  0  0  0
M  CHG  6  12   1  20   1  24   1  29   1  33   1  36   1
M  END
>  <CHROM.1>
-81.29980939,164.34339804,74.33911058,-100.21000097,-164.42833046,-72.81456595
88.59198352,-66.57190430,-74.17378200,-167.48205389,-177.78102938,-55.40499894
-62.63539046,-131.54890921,-17.06990717,-77.12874517,-41.84678237,157.16563465
-51.12530767,139.35386274,-37.21408041,104.96907350,-0.66293222,0.11142531
0.47643548,1.34461212,-0.08519066,-0.45222398

>  <Name>
1NEM.B

>  <RI>
0

>  <Rbt.Current_Directory>
/home/itssahil/PROJECTS/Mol_Feturizer/New_Systems/rnas/1nem

>  <Rbt.Executable>
rbdock ($Id: //depot/dev/client3/rdock/2013.1/src/exe/rbdock.cxx#4 $)

>  <Rbt.Library>
libRbt.so (2013.1, Build901 2013/11/27)

>  <Rbt.Parameter_File>
/export/apps/rDock/src/rDock_2013.1_src/data/scripts/dock_solv.prm

>  <Rbt.Receptor>
prm/pocket_docking_8.prm

>  <SCORE>
-29.0533

>  <SCORE.INTER>
-54.6206

>  <SCORE.INTER.CONST>
1

>  <SCORE.INTER.POLAR>
-7.07404

>  <SCORE.INTER.ROT>
9

>  <SCORE.INTER.SOLV>
36.3859

>  <SCORE.INTER.VDW>
-34.5622

>  <SCORE.INTER.norm>
-1.30049

>  <SCORE.INTRA>
25.3528

>  <SCORE.INTRA.DIHEDRAL>
20.3737

>  <SCORE.INTRA.DIHEDRAL.0>
22.4324

>  <SCORE.INTRA.POLAR>
0.150911

>  <SCORE.INTRA.POLAR.0>
-1.83749

>  <SCORE.INTRA.REPUL>
0

>  <SCORE.INTRA.REPUL.0>
0

>  <SCORE.INTRA.SOLV>
-0.061715

>  <SCORE.INTRA.SOLV.lig_0>
-160.638

>  <SCORE.INTRA.VDW>
14.6837

>  <SCORE.INTRA.VDW.0>
-7.61953

>  <SCORE.INTRA.norm>
0.603638

>  <SCORE.RESTR>
0.214439

>  <SCORE.RESTR.CAVITY>
0.214439

>  <SCORE.RESTR.norm>
0.00510568

>  <SCORE.SYSTEM>
0

>  <SCORE.SYSTEM.CONST>
0

>  <SCORE.SYSTEM.DIHEDRAL>
0

>  <SCORE.SYSTEM.SOLV>
0

>  <SCORE.SYSTEM.norm>
0

>  <SCORE.heavy>
42

>  <SCORE.norm>
-0.691746

>  <RMSD>
6.384

$$$$
1NEM.B
 OpenBabel11021811403D
libRbt.so/2013.1/901 2013/11/27
 42 45  0  0  0  0  0  0  0  0999 V2000
    3.9832    4.3704    1.2357 O   0  0  0  0  0  0  0  0  0  0  0  0
    3.0476    3.3325    1.5346 C   0  0  0  0  0  0  0  0  0  0  0  0
    3.6382    1.9317    1.3799 C   0  0  1  0  0  0  0  0  0  0  0  0
    2.8378    0.9698    2.0608 O   0  0  0  0  0  0  0  0  0  0  0  0
    3.6674    1.4096   -0.0477 C   0  0  1  0  0  0  0  0  0  0  0  0
    4.6863    2.1317   -0.7432 O   0  0  0  0  0  0  0  0  0  0  0  0
    3.9512   -0.0527    0.2403 C   0  0  1  0  0  0  0  0  0  0  0  0
    5.2812   -0.2592    0.7278 O   0  0  0  0  0  0  0  0  0  0  0  0
    2.9352   -0.2743    1.3670 C   0  0  2  0  0  0  0  0  0  0  0  0
    4.4324    2.4181   -2.0889 C   0  0  2  0  0  0  0  0  0  0  0  0
    5.7459    2.8094   -2.7795 C   0  0  2  0  0  0  0  0  0  0  0  0
    6.4108    3.9061   -2.0276 N   0  3  0  0  0  0  0  0  0  0  0  0
    5.4994    3.1943   -4.2419 C   0  0  1  0  0  0  0  0  0  0  0  0
    5.1649    2.0337   -4.9914 O   0  0  0  0  0  0  0  0  0  0  0  0
    4.3723    4.2248   -4.3600 C   0  0  2  0  0  0  0  0  0  0  0  0
    4.7830    5.4710   -3.8119 O   0  0  0  0  0  0  0  0  0  0  0  0
    3.1335    3.7168   -3.6277 C   0  0  1  0  0  0  0  0  0  0  0  0
    3.4613    3.4435   -2.2515 O   0  0  0  0  0  0  0  0  0  0  0  0
    1.9792    4.7032   -3.6476 C   0  0  0  0  0  0  0  0  0  0  0  0
    0.9641    4.3864   -2.6184 N   0  3  0  0  0  0  0  0  0  0  0  0
   -5.4418   -0.0103    0.7379 C   0  0  0  0  0  0  0  0  0  0  0  0
   -1.9613   -0.4452   -0.4556 C   0  0  2  0  0  0  0  0  0  0  0  0
   -1.6503    0.9573   -0.9725 C   0  0  2  0  0  0  0  0  0  0  0  0
   -0.1844    1.1539   -1.0728 N   0  3  0  0  0  0  0  0  0  0  0  0
   -2.2366    2.0042   -0.0348 C   0  0  1  0  0  0  0  0  0  0  0  0
   -2.0083    3.3004   -0.5661 O   0  0  0  0  0  0  0  0  0  0  0  0
   -3.7350    1.7605    0.1303 C   0  0  2  0  0  0  0  0  0  0  0  0
   -4.2771    2.6912    1.0584 O   0  0  0  0  0  0  0  0  0  0  0  0
   -5.6426   -1.3650    1.3013 N   0  3  0  0  0  0  0  0  0  0  0  0
   -3.9669    0.3370    0.6334 C   0  0  2  0  0  0  0  0  0  0  0  0
   -3.3644   -0.6124   -0.2695 O   0  0  0  0  0  0  0  0  0  0  0  0
    0.9916   -4.0094    2.1360 C   0  0  2  0  0  0  0  0  0  0  0  0
    1.8524   -5.2145    2.1397 N   0  3  0  0  0  0  0  0  0  0  0  0
   -0.2649   -4.2692    1.3127 C   0  0  0  0  0  0  0  0  0  0  0  0
   -1.1590   -3.0371    1.2981 C   0  0  2  0  0  0  0  0  0  0  0  0
   -2.3363   -3.3500    0.5006 N   0  3  0  0  0  0  0  0  0  0  0  0
   -0.3986   -1.8531    0.7054 C   0  0  1  0  0  0  0  0  0  0  0  0
   -1.2418   -0.6848    0.7212 O   0  0  0  0  0  0  0  0  0  0  0  0
    0.8798   -1.5708    1.5068 C   0  0  2  0  0  0  0  0  0  0  0  0
    1.6244   -0.5197    0.8623 O   0  0  0  0  0  0  0  0  0  0  0  0
    1.7679   -2.8093    1.5963 C   0  0  1  0  0  0  0  0  0  0  0  0
    2.8740   -2.5394    2.4473 O   0  0  0  0  0  0  0  0  0  0  0  0
  1  2  1  0  0  0  0
  3  2  1  6  0  0  0
  3  5  1  0  0  0  0
  3  4  1  0  0  0  0
  4  9  1  0  0  0  0
  5  7  1  0  0  0  0
  5  6  1  6  0  0  0
  7  9  1  0  0  0  0
  7  8  1  1  0  0  0
  9 40  1  6  0  0  0
 10  6  1  1  0  0  0
 10 11  1  0  0  0  0
 10 18  1  0  0  0  0
 11 13  1  0  0  0  0
 11 12  1  1  0  0  0
 13 15  1  0  0  0  0
 13 14  1  6  0  0  0
 15 17  1  0  0  0  0
 15 16  1  1  0  0  0
 17 19  1  1  0  0  0
 17 18  1  0  0  0  0
 19 20  1  0  0  0  0
 21 29  1  0  0  0  0
 22 23  1  0  0  0  0
 22 31  1  0  0  0  0
 22 38  1  1  0  0  0
 23 25  1  0  0  0  0
 23 24  1  1  0  0  0
 25 27  1  0  0  0  0
 25 26  1  6  0  0  0
 27 30  1  0  0  0  0
 27 28  1  1  0  0  0
 30 21  1  6  0  0  0
 30 31  1  0  0  0  0
 32 34  1  0  0  0  0
 32 41  1  0  0  0  0
 32 33  1  6  0  0  0
 34 35  1  0  0  0  0
 35 37  1  0  0  0  0
 35 36  1  6  0  0  0
 37 39  1  0  0  0  0
 37 38  1  1  0  0  0
 39 41  1  0  0  0  0
 39 40  1  6  0  0  0
 41 42  1  1  0  0  0
M  CHG  6  12   1  20   1  24   1  29   1  33   1  36   1
M  END
>  <CHROM.1>
92.40373076,162.26895166,-144.58714219,-163.52610257,66.57673700,-108.05955067
-68.37009955,-73.17203221,171.55659192,-162.84172513,162.95912637,-176.69282218
175.38756933,-124.13499672,84.41239107,-77.66414941,161.37692347,-73.22573102
55.10245747,-94.02167972,-170.89991548,104.78660812,1.19860019,0.83023910
-0.30662335,-0.71286165,-0.06193207,2.59758427

>  <Name>
1NEM.B

>  <RI>
0

>  <Rbt.Current_Directory>
/home/itssahil/PROJECTS/Mol_Feturizer/New_Systems/rnas/1nem

>  <Rbt.Executable>
rbdock ($Id: //depot/dev/client3/rdock/2013.1/src/exe/rbdock.cxx#4 $)

>  <Rbt.Library>
libRbt.so (2013.1, Build901 2013/11/27)

>  <Rbt.Parameter_File>
/export/apps/rDock/src/rDock_2013.1_src/data/scripts/dock_solv.prm

>  <Rbt.Receptor>
prm/pocket_docking_7.prm

>  <SCORE>
-25.8805

>  <SCORE.INTER>
-37.4422

>  <SCORE.INTER.CONST>
1

>  <SCORE.INTER.POLAR>
-5.1946

>  <SCORE.INTER.ROT>
9

>  <SCORE.INTER.SOLV>
27.7429

>  <SCORE.INTER.VDW>
-26.4938

>  <SCORE.INTER.norm>
-0.891481

>  <SCORE.INTRA>
11.5617

>  <SCORE.INTRA.DIHEDRAL>
21.3432

>  <SCORE.INTRA.DIHEDRAL.0>
22.4324

>  <SCORE.INTRA.POLAR>
-0.997972

>  <SCORE.INTRA.POLAR.0>
-1.83749

>  <SCORE.INTRA.REPUL>
0.053714

>  <SCORE.INTRA.REPUL.0>
0

>  <SCORE.INTRA.SOLV>
1.79743

>  <SCORE.INTRA.SOLV.lig_0>
-160.638

>  <SCORE.INTRA.VDW>
3.11589

>  <SCORE.INTRA.VDW.0>
-7.61953

>  <SCORE.INTRA.norm>
0.275278

>  <SCORE.RESTR>
0

>  <SCORE.RESTR.CAVITY>
0

>  <SCORE.RESTR.norm>
0

>  <SCORE.SYSTEM>
0

>  <SCORE.SYSTEM.CONST>
0

>  <SCORE.SYSTEM.DIHEDRAL>
0

>  <SCORE.SYSTEM.SOLV>
0

>  <SCORE.SYSTEM.norm>
0

>  <SCORE.heavy>
42

>  <SCORE.norm>
-0.616203

>  <RMSD>
6.399

$$$$
1NEM.B
 OpenBabel11021811403D
libRbt.so/2013.1/901 2013/11/27
 42 45  0  0  0  0  0  0  0  0999 V2000
    4.6957    0.2270   -0.2003 O   0  0  0  0  0  0  0  0  0  0  0  0
    3.5992    1.1282   -0.0341 C   0  0  0  0  0  0  0  0  0  0  0  0
    2.3293    0.6629   -0.7451 C   0  0  1  0  0  0  0  0  0  0  0  0
    1.8749   -0.5749   -0.2056 O   0  0  0  0  0  0  0  0  0  0  0  0
    1.1297    1.5797   -0.5660 C   0  0  1  0  0  0  0  0  0  0  0  0
    1.3727    2.7540   -1.3439 O   0  0  0  0  0  0  0  0  0  0  0  0
    0.0424    0.6485   -1.0683 C   0  0  1  0  0  0  0  0  0  0  0  0
    0.1251    0.4337   -2.4812 O   0  0  0  0  0  0  0  0  0  0  0  0
    0.4522   -0.6230   -0.3158 C   0  0  2  0  0  0  0  0  0  0  0  0
    2.0440    2.5645   -2.5566 C   0  0  2  0  0  0  0  0  0  0  0  0
    3.2786    3.4752   -2.5994 C   0  0  2  0  0  0  0  0  0  0  0  0
    2.8849    4.8819   -2.3224 N   0  3  0  0  0  0  0  0  0  0  0  0
    4.0063    3.3448   -3.9413 C   0  0  1  0  0  0  0  0  0  0  0  0
    4.6369    2.0734   -4.0211 O   0  0  0  0  0  0  0  0  0  0  0  0
    3.0361    3.5117   -5.1149 C   0  0  2  0  0  0  0  0  0  0  0  0
    2.5694    4.8532   -5.1829 O   0  0  0  0  0  0  0  0  0  0  0  0
    1.8568    2.5581   -4.9455 C   0  0  1  0  0  0  0  0  0  0  0  0
    1.2098    2.8060   -3.6821 O   0  0  0  0  0  0  0  0  0  0  0  0
    0.8139    2.6946   -6.0408 C   0  0  0  0  0  0  0  0  0  0  0  0
    0.5101    1.3946   -6.6793 N   0  3  0  0  0  0  0  0  0  0  0  0
   -5.7957   -4.3290    2.7723 C   0  0  0  0  0  0  0  0  0  0  0  0
   -3.4189   -2.6507    0.4784 C   0  0  2  0  0  0  0  0  0  0  0  0
   -4.2505   -1.4570    0.0153 C   0  0  2  0  0  0  0  0  0  0  0  0
   -3.3690   -0.4014   -0.5382 N   0  3  0  0  0  0  0  0  0  0  0  0
   -5.0473   -0.8882    1.1818 C   0  0  1  0  0  0  0  0  0  0  0  0
   -5.8739    0.1702    0.7226 O   0  0  0  0  0  0  0  0  0  0  0  0
   -5.9019   -1.9909    1.8027 C   0  0  2  0  0  0  0  0  0  0  0  0
   -6.5963   -1.4848    2.9355 O   0  0  0  0  0  0  0  0  0  0  0  0
   -6.4741   -5.0786    1.6902 N   0  3  0  0  0  0  0  0  0  0  0  0
   -5.0053   -3.1531    2.2252 C   0  0  2  0  0  0  0  0  0  0  0  0
   -4.2485   -3.6320    1.0949 O   0  0  0  0  0  0  0  0  0  0  0  0
    1.4016   -3.9330    2.1320 C   0  0  2  0  0  0  0  0  0  0  0  0
    2.7346   -4.5399    1.9129 N   0  3  0  0  0  0  0  0  0  0  0  0
    0.3220   -4.8053    1.5013 C   0  0  0  0  0  0  0  0  0  0  0  0
   -1.0546   -4.1921    1.7170 C   0  0  2  0  0  0  0  0  0  0  0  0
   -2.0361   -5.0698    1.0954 N   0  3  0  0  0  0  0  0  0  0  0  0
   -1.1023   -2.7971    1.0982 C   0  0  1  0  0  0  0  0  0  0  0  0
   -2.3986   -2.2127    1.3312 O   0  0  0  0  0  0  0  0  0  0  0  0
   -0.0191   -1.8947    1.7055 C   0  0  2  0  0  0  0  0  0  0  0  0
   -0.0228   -0.6233    1.0286 O   0  0  0  0  0  0  0  0  0  0  0  0
    1.3686   -2.5151    1.5640 C   0  0  1  0  0  0  0  0  0  0  0  0
    2.3202   -1.7095    2.2465 O   0  0  0  0  0  0  0  0  0  0  0  0
  1  2  1  0  0  0  0
  3  2  1  1  0  0  0
  3  5  1  0  0  0  0
  3  4  1  0  0  0  0
  4  9  1  0  0  0  0
  5  7  1  0  0  0  0
  5  6  1  6  0  0  0
  7  9  1  0  0  0  0
  7  8  1  6  0  0  0
  9 40  1  1  0  0  0
 10  6  1  1  0  0  0
 10 11  1  0  0  0  0
 10 18  1  0  0  0  0
 11 13  1  0  0  0  0
 11 12  1  6  0  0  0
 13 15  1  0  0  0  0
 13 14  1  1  0  0  0
 15 17  1  0  0  0  0
 15 16  1  1  0  0  0
 17 19  1  6  0  0  0
 17 18  1  0  0  0  0
 19 20  1  0  0  0  0
 21 29  1  0  0  0  0
 22 23  1  0  0  0  0
 22 31  1  0  0  0  0
 22 38  1  1  0  0  0
 23 25  1  0  0  0  0
 23 24  1  1  0  0  0
 25 27  1  0  0  0  0
 25 26  1  6  0  0  0
 27 30  1  0  0  0  0
 27 28  1  1  0  0  0
 30 21  1  6  0  0  0
 30 31  1  0  0  0  0
 32 34  1  0  0  0  0
 32 41  1  0  0  0  0
 32 33  1  6  0  0  0
 34 35  1  0  0  0  0
 35 37  1  0  0  0  0
 35 36  1  6  0  0  0
 37 39  1  0  0  0  0
 37 38  1  1  0  0  0
 39 41  1  0  0  0  0
 39 40  1  6  0  0  0
 41 42  1  1  0  0  0
M  CHG  6  12   1  20   1  24   1  29   1  33   1  36   1
M  END
>  <CHROM.1>
-174.55462696,62.49054547,35.90521376,-125.66024604,-161.89200209,-81.78293790
49.53752061,-174.16402240,72.91723146,126.94568079,-80.77629263,74.70688305
22.45660938,-136.16005009,-150.02536503,59.82412926,65.65705433,-79.71501734
55.65373597,-79.19488140,-70.36862499,-61.14130508,-0.28983176,-0.43739683
-0.55429571,-0.87128868,0.01669603,2.40106097

>  <Name>
1NEM.B

>  <RI>
0

>  <Rbt.Current_Directory>
/home/itssahil/PROJECTS/Mol_Feturizer/New_Systems/rnas/1nem

>  <Rbt.Executable>
rbdock ($Id: //depot/dev/client3/rdock/2013.1/src/exe/rbdock.cxx#4 $)

>  <Rbt.Library>
libRbt.so (2013.1, Build901 2013/11/27)

>  <Rbt.Parameter_File>
/export/apps/rDock/src/rDock_2013.1_src/data/scripts/dock_solv.prm

>  <Rbt.Receptor>
prm/pocket_docking_6.prm

>  <SCORE>
-34.0314

>  <SCORE.INTER>
-45.833

>  <SCORE.INTER.CONST>
1

>  <SCORE.INTER.POLAR>
-7.57445

>  <SCORE.INTER.ROT>
9

>  <SCORE.INTER.SOLV>
36.912

>  <SCORE.INTER.VDW>
-27.2112

>  <SCORE.INTER.norm>
-1.09126

>  <SCORE.INTRA>
11.7941

>  <SCORE.INTRA.DIHEDRAL>
12.9047

>  <SCORE.INTRA.DIHEDRAL.0>
22.4324

>  <SCORE.INTRA.POLAR>
-0.216924

>  <SCORE.INTRA.POLAR.0>
-1.83749

>  <SCORE.INTRA.REPUL>
0

>  <SCORE.INTRA.REPUL.0>
0

>  <SCORE.INTRA.SOLV>
-1.74009

>  <SCORE.INTRA.SOLV.lig_0>
-160.638

>  <SCORE.INTRA.VDW>
6.94937

>  <SCORE.INTRA.VDW.0>
-7.61953

>  <SCORE.INTRA.norm>
0.280813

>  <SCORE.RESTR>
0.00741881

>  <SCORE.RESTR.CAVITY>
0.00741881

>  <SCORE.RESTR.norm>
0.000176638

>  <SCORE.SYSTEM>
0

>  <SCORE.SYSTEM.CONST>
0

>  <SCORE.SYSTEM.DIHEDRAL>
0

>  <SCORE.SYSTEM.SOLV>
0

>  <SCORE.SYSTEM.norm>
0

>  <SCORE.heavy>
42

>  <SCORE.norm>
-0.810273

>  <RMSD>
6.458

$$$$
1NEM.B
 OpenBabel11021811403D
libRbt.so/2013.1/901 2013/11/27
 42 45  0  0  0  0  0  0  0  0999 V2000
    3.6840    3.8287   -0.2171 O   0  0  0  0  0  0  0  0  0  0  0  0
    3.7126    2.5527    0.4256 C   0  0  0  0  0  0  0  0  0  0  0  0
    3.2339    1.4169   -0.4775 C   0  0  1  0  0  0  0  0  0  0  0  0
    3.1175    0.2030    0.2589 O   0  0  0  0  0  0  0  0  0  0  0  0
    1.8395    1.6082   -1.0523 C   0  0  1  0  0  0  0  0  0  0  0  0
    1.9272    2.6294   -2.0487 O   0  0  0  0  0  0  0  0  0  0  0  0
    1.5926    0.1965   -1.5504 C   0  0  1  0  0  0  0  0  0  0  0  0
    2.4081   -0.1279   -2.6812 O   0  0  0  0  0  0  0  0  0  0  0  0
    2.0693   -0.5777   -0.3158 C   0  0  2  0  0  0  0  0  0  0  0  0
    0.7131    3.1510   -2.5082 C   0  0  2  0  0  0  0  0  0  0  0  0
    0.9058    4.6267   -2.8830 C   0  0  2  0  0  0  0  0  0  0  0  0
    1.5068    5.3684   -1.7432 N   0  3  0  0  0  0  0  0  0  0  0  0
   -0.4189    5.2532   -3.3304 C   0  0  1  0  0  0  0  0  0  0  0  0
   -0.7932    4.7258   -4.5963 O   0  0  0  0  0  0  0  0  0  0  0  0
   -1.5305    4.9823   -2.3119 C   0  0  2  0  0  0  0  0  0  0  0  0
   -1.2809    5.6951   -1.1070 O   0  0  0  0  0  0  0  0  0  0  0  0
   -1.6098    3.4856   -2.0245 C   0  0  1  0  0  0  0  0  0  0  0  0
   -0.3323    3.0133   -1.5546 O   0  0  0  0  0  0  0  0  0  0  0  0
   -2.6537    3.1305   -0.9804 C   0  0  0  0  0  0  0  0  0  0  0  0
   -3.7377    2.2960   -1.5446 N   0  3  0  0  0  0  0  0  0  0  0  0
   -2.6740   -0.0983    0.7355 C   0  0  0  0  0  0  0  0  0  0  0  0
   -0.9670   -3.2098    1.7992 C   0  0  2  0  0  0  0  0  0  0  0  0
   -2.0443   -4.2512    1.5061 C   0  0  2  0  0  0  0  0  0  0  0  0
   -1.4408   -5.6021    1.4145 N   0  3  0  0  0  0  0  0  0  0  0  0
   -2.7484   -3.9235    0.1962 C   0  0  1  0  0  0  0  0  0  0  0  0
   -3.7978   -4.8531   -0.0258 O   0  0  0  0  0  0  0  0  0  0  0  0
   -3.3082   -2.5041    0.2581 C   0  0  2  0  0  0  0  0  0  0  0  0
   -3.9068   -2.1654   -0.9862 O   0  0  0  0  0  0  0  0  0  0  0  0
   -3.6429    0.0145    1.8497 N   0  3  0  0  0  0  0  0  0  0  0  0
   -2.1785   -1.5244    0.5697 C   0  0  2  0  0  0  0  0  0  0  0  0
   -1.5232   -1.8977    1.7989 O   0  0  0  0  0  0  0  0  0  0  0  0
    3.1182   -2.0233    3.5347 C   0  0  2  0  0  0  0  0  0  0  0  0
    4.4509   -1.6333    4.0499 N   0  3  0  0  0  0  0  0  0  0  0  0
    3.1520   -3.4652    3.0410 C   0  0  0  0  0  0  0  0  0  0  0  0
    1.7883   -3.8793    2.5060 C   0  0  2  0  0  0  0  0  0  0  0  0
    1.8871   -5.2599    2.0540 N   0  3  0  0  0  0  0  0  0  0  0  0
    1.3814   -2.9583    1.3582 C   0  0  1  0  0  0  0  0  0  0  0  0
    0.0778   -3.3391    0.8763 O   0  0  0  0  0  0  0  0  0  0  0  0
    1.3473   -1.4949    1.8202 C   0  0  2  0  0  0  0  0  0  0  0  0
    1.0633   -0.6451    0.6924 O   0  0  0  0  0  0  0  0  0  0  0  0
    2.6830   -1.0686    2.4242 C   0  0  1  0  0  0  0  0  0  0  0  0
    2.5678    0.2473    2.9492 O   0  0  0  0  0  0  0  0  0  0  0  0
  1  2  1  0  0  0  0
  3  2  1  1  0  0  0
  3  5  1  0  0  0  0
  3  4  1  0  0  0  0
  4  9  1  0  0  0  0
  5  7  1  0  0  0  0
  5  6  1  6  0  0  0
  7  9  1  0  0  0  0
  7  8  1  6  0  0  0
  9 40  1  1  0  0  0
 10  6  1  1  0  0  0
 10 11  1  0  0  0  0
 10 18  1  0  0  0  0
 11 13  1  0  0  0  0
 11 12  1  1  0  0  0
 13 15  1  0  0  0  0
 13 14  1  6  0  0  0
 15 17  1  0  0  0  0
 15 16  1  1  0  0  0
 17 19  1  1  0  0  0
 17 18  1  0  0  0  0
 19 20  1  0  0  0  0
 21 29  1  0  0  0  0
 22 23  1  0  0  0  0
 22 31  1  0  0  0  0
 22 38  1  6  0  0  0
 23 25  1  0  0  0  0
 23 24  1  6  0  0  0
 25 27  1  0  0  0  0
 25 26  1  1  0  0  0
 27 30  1  0  0  0  0
 27 28  1  6  0  0  0
 30 21  1  1  0  0  0
 30 31  1  0  0  0  0
 32 34  1  0  0  0  0
 32 41  1  0  0  0  0
 32 33  1  6  0  0  0
 34 35  1  0  0  0  0
 35 37  1  0  0  0  0
 35 36  1  6  0  0  0
 37 39  1  0  0  0  0
 37 38  1  1  0  0  0
 39 41  1  0  0  0  0
 39 40  1  6  0  0  0
 41 42  1  1  0  0  0
M  CHG  6  12   1  20   1  24   1  29   1  33   1  36   1
M  END
>  <CHROM.1>
-136.75437738,-172.47045806,-167.35320687,148.12185790,107.54531999,-73.08126076
167.78566533,62.48068435,-171.43710931,115.88067432,124.33403734,60.56524365
145.82625602,-150.23228357,37.20797306,61.22571821,-179.11000506,167.44670811
-14.11785664,63.16113768,-67.05327848,-59.52110928,0.21112004,0.05646410
0.05374811,-1.55594994,0.28114230,2.66655004

>  <Name>
1NEM.B

>  <RI>
0

>  <Rbt.Current_Directory>
/home/itssahil/PROJECTS/Mol_Feturizer/New_Systems/rnas/1nem

>  <Rbt.Executable>
rbdock ($Id: //depot/dev/client3/rdock/2013.1/src/exe/rbdock.cxx#4 $)

>  <Rbt.Library>
libRbt.so (2013.1, Build901 2013/11/27)

>  <Rbt.Parameter_File>
/export/apps/rDock/src/rDock_2013.1_src/data/scripts/dock_solv.prm

>  <Rbt.Receptor>
prm/pocket_docking_4.prm

>  <SCORE>
-45.3671

>  <SCORE.INTER>
-62.1248

>  <SCORE.INTER.CONST>
1

>  <SCORE.INTER.POLAR>
-10.2508

>  <SCORE.INTER.ROT>
9

>  <SCORE.INTER.SOLV>
51.3383

>  <SCORE.INTER.VDW>
-33.9599

>  <SCORE.INTER.norm>
-1.47916

>  <SCORE.INTRA>
15.7315

>  <SCORE.INTRA.DIHEDRAL>
16.0282

>  <SCORE.INTRA.DIHEDRAL.0>
22.4324

>  <SCORE.INTRA.POLAR>
-0.1563

>  <SCORE.INTRA.POLAR.0>
-1.83749

>  <SCORE.INTRA.REPUL>
0

>  <SCORE.INTRA.REPUL.0>
0

>  <SCORE.INTRA.SOLV>
1.16145

>  <SCORE.INTRA.SOLV.lig_0>
-160.638

>  <SCORE.INTRA.VDW>
7.66804

>  <SCORE.INTRA.VDW.0>
-7.61953

>  <SCORE.INTRA.norm>
0.374559

>  <SCORE.RESTR>
1.02629

>  <SCORE.RESTR.CAVITY>
1.02629

>  <SCORE.RESTR.norm>
0.0244354

>  <SCORE.SYSTEM>
0

>  <SCORE.SYSTEM.CONST>
0

>  <SCORE.SYSTEM.DIHEDRAL>
0

>  <SCORE.SYSTEM.SOLV>
0

>  <SCORE.SYSTEM.norm>
0

>  <SCORE.heavy>
42

>  <SCORE.norm>
-1.08017

>  <RMSD>
6.459

$$$$
1NEM.B
 OpenBabel11021811403D
libRbt.so/2013.1/901 2013/11/27
 42 45  0  0  0  0  0  0  0  0999 V2000
    2.3161    1.4964    7.3320 O   0  0  0  0  0  0  0  0  0  0  0  0
    3.1590    1.7215    6.2002 C   0  0  0  0  0  0  0  0  0  0  0  0
    3.0407    0.6283    5.1392 C   0  0  1  0  0  0  0  0  0  0  0  0
    2.5760    1.1709    3.9067 O   0  0  0  0  0  0  0  0  0  0  0  0
    4.3574   -0.0273    4.7543 C   0  0  1  0  0  0  0  0  0  0  0  0
    4.7550   -0.8563    5.8488 O   0  0  0  0  0  0  0  0  0  0  0  0
    3.9071   -0.7413    3.4936 C   0  0  1  0  0  0  0  0  0  0  0  0
    3.0281   -1.8351    3.7767 O   0  0  0  0  0  0  0  0  0  0  0  0
    3.1294    0.4049    2.8364 C   0  0  2  0  0  0  0  0  0  0  0  0
    5.3715   -0.2073    6.9240 C   0  0  2  0  0  0  0  0  0  0  0  0
    6.7387    0.3270    6.4761 C   0  0  2  0  0  0  0  0  0  0  0  0
    7.5413   -0.7683    5.8710 N   0  3  0  0  0  0  0  0  0  0  0  0
    7.4751    0.9891    7.6452 C   0  0  1  0  0  0  0  0  0  0  0  0
    6.8332    2.2115    7.9832 O   0  0  0  0  0  0  0  0  0  0  0  0
    7.5075    0.0698    8.8700 C   0  0  2  0  0  0  0  0  0  0  0  0
    8.3401   -1.0557    8.6209 O   0  0  0  0  0  0  0  0  0  0  0  0
    6.0917   -0.3931    9.2019 C   0  0  1  0  0  0  0  0  0  0  0  0
    5.5161   -1.0529    8.0576 O   0  0  0  0  0  0  0  0  0  0  0  0
    6.0357   -1.3555   10.3752 C   0  0  0  0  0  0  0  0  0  0  0  0
    4.6558   -1.8160   10.6464 N   0  3  0  0  0  0  0  0  0  0  0  0
    2.2961   -2.5315    0.8110 C   0  0  0  0  0  0  0  0  0  0  0  0
    2.5472    0.4377   -1.3909 C   0  0  2  0  0  0  0  0  0  0  0  0
    1.0932    0.6055   -1.8253 C   0  0  2  0  0  0  0  0  0  0  0  0
    0.8638    1.9802   -2.3302 N   0  3  0  0  0  0  0  0  0  0  0  0
    0.1606    0.3371   -0.6517 C   0  0  1  0  0  0  0  0  0  0  0  0
   -1.1879    0.4200   -1.0866 O   0  0  0  0  0  0  0  0  0  0  0  0
    0.4441   -1.0504   -0.0805 C   0  0  2  0  0  0  0  0  0  0  0  0
   -0.3747   -1.2812    1.0587 O   0  0  0  0  0  0  0  0  0  0  0  0
    1.4598   -2.9455    1.9609 N   0  3  0  0  0  0  0  0  0  0  0  0
    1.9163   -1.1470    0.3152 C   0  0  2  0  0  0  0  0  0  0  0  0
    2.7554   -0.8513   -0.8197 O   0  0  0  0  0  0  0  0  0  0  0  0
    6.9749    0.4021    0.0273 C   0  0  2  0  0  0  0  0  0  0  0  0
    8.4272    0.5223    0.2914 N   0  3  0  0  0  0  0  0  0  0  0  0
    6.5932    1.2496   -1.1811 C   0  0  0  0  0  0  0  0  0  0  0  0
    5.1015    1.1375   -1.4632 C   0  0  2  0  0  0  0  0  0  0  0  0
    4.8038    1.9648   -2.6239 N   0  3  0  0  0  0  0  0  0  0  0  0
    4.3080    1.6030   -0.2446 C   0  0  1  0  0  0  0  0  0  0  0  0
    2.8982    1.4672   -0.5094 O   0  0  0  0  0  0  0  0  0  0  0  0
    4.6768    0.7749    0.9941 C   0  0  2  0  0  0  0  0  0  0  0  0
    3.9912    1.3058    2.1442 O   0  0  0  0  0  0  0  0  0  0  0  0
    6.1788    0.8133    1.2647 C   0  0  1  0  0  0  0  0  0  0  0  0
    6.4895   -0.0627    2.3402 O   0  0  0  0  0  0  0  0  0  0  0  0
  1  2  1  0  0  0  0
  3  2  1  1  0  0  0
  3  5  1  0  0  0  0
  3  4  1  0  0  0  0
  4  9  1  0  0  0  0
  5  7  1  0  0  0  0
  5  6  1  1  0  0  0
  7  9  1  0  0  0  0
  7  8  1  1  0  0  0
  9 40  1  1  0  0  0
 10  6  1  6  0  0  0
 10 11  1  0  0  0  0
 10 18  1  0  0  0  0
 11 13  1  0  0  0  0
 11 12  1  1  0  0  0
 13 15  1  0  0  0  0
 13 14  1  1  0  0  0
 15 17  1  0  0  0  0
 15 16  1  6  0  0  0
 17 19  1  1  0  0  0
 17 18  1  0  0  0  0
 19 20  1  0  0  0  0
 21 29  1  0  0  0  0
 22 23  1  0  0  0  0
 22 31  1  0  0  0  0
 22 38  1  1  0  0  0
 23 25  1  0  0  0  0
 23 24  1  1  0  0  0
 25 27  1  0  0  0  0
 25 26  1  6  0  0  0
 27 30  1  0  0  0  0
 27 28  1  1  0  0  0
 30 21  1  6  0  0  0
 30 31  1  0  0  0  0
 32 34  1  0  0  0  0
 32 41  1  0  0  0  0
 32 33  1  1  0  0  0
 34 35  1  0  0  0  0
 35 37  1  0  0  0  0
 35 36  1  6  0  0  0
 37 39  1  0  0  0  0
 37 38  1  6  0  0  0
 39 41  1  0  0  0  0
 39 40  1  1  0  0  0
 41 42  1  1  0  0  0
M  CHG  6  12   1  20   1  24   1  29   1  33   1  36   1
M  END
>  <CHROM.1>
51.51274641,118.78279883,-80.29818207,-67.55420367,-51.65306113,-179.51296271
-144.62322103,56.42854119,57.36148833,-178.33246670,64.22466660,-57.14974783
157.24477266,-167.18731334,68.49750915,49.72259584,60.47596309,-61.68227258
-165.17480861,29.64220263,121.39971548,-68.98359586,4.14443214,0.07785261
3.14372268,1.16499732,0.21891258,1.73844248

>  <Name>
1NEM.B

>  <RI>
0

>  <Rbt.Current_Directory>
/home/itssahil/PROJECTS/Mol_Feturizer/New_Systems/rnas/1nem

>  <Rbt.Executable>
rbdock ($Id: //depot/dev/client3/rdock/2013.1/src/exe/rbdock.cxx#4 $)

>  <Rbt.Library>
libRbt.so (2013.1, Build901 2013/11/27)

>  <Rbt.Parameter_File>
/export/apps/rDock/src/rDock_2013.1_src/data/scripts/dock_solv.prm

>  <Rbt.Receptor>
prm/pocket_docking_7.prm

>  <SCORE>
-30.1284

>  <SCORE.INTER>
-35.483

>  <SCORE.INTER.CONST>
1

>  <SCORE.INTER.POLAR>
-4.69806

>  <SCORE.INTER.ROT>
9

>  <SCORE.INTER.SOLV>
18.5212

>  <SCORE.INTER.VDW>
-23.7689

>  <SCORE.INTER.norm>
-0.844834

>  <SCORE.INTRA>
5.35457

>  <SCORE.INTRA.DIHEDRAL>
3.17771

>  <SCORE.INTRA.DIHEDRAL.0>
22.4324

>  <SCORE.INTRA.POLAR>
-0.311144

>  <SCORE.INTRA.POLAR.0>
-1.83749

>  <SCORE.INTRA.REPUL>
0.00427717

>  <SCORE.INTRA.REPUL.0>
0

>  <SCORE.INTRA.SOLV>
0.563672

>  <SCORE.INTRA.SOLV.lig_0>
-160.638

>  <SCORE.INTRA.VDW>
4.52038

>  <SCORE.INTRA.VDW.0>
-7.61953

>  <SCORE.INTRA.norm>
0.12749

>  <SCORE.RESTR>
0

>  <SCORE.RESTR.CAVITY>
0

>  <SCORE.RESTR.norm>
0

>  <SCORE.SYSTEM>
0

>  <SCORE.SYSTEM.CONST>
0

>  <SCORE.SYSTEM.DIHEDRAL>
0

>  <SCORE.SYSTEM.SOLV>
0

>  <SCORE.SYSTEM.norm>
0

>  <SCORE.heavy>
42

>  <SCORE.norm>
-0.717344

>  <RMSD>
6.464

$$$$
1NEM.B
 OpenBabel11021811403D
libRbt.so/2013.1/901 2013/11/27
 42 45  0  0  0  0  0  0  0  0999 V2000
   -1.7486   -1.6496    3.0062 O   0  0  0  0  0  0  0  0  0  0  0  0
   -1.1441   -2.8013    3.5981 C   0  0  0  0  0  0  0  0  0  0  0  0
   -1.4372   -4.0909    2.8327 C   0  0  1  0  0  0  0  0  0  0  0  0
   -2.6953   -4.6333    3.2229 O   0  0  0  0  0  0  0  0  0  0  0  0
   -1.5865   -3.9166    1.3297 C   0  0  1  0  0  0  0  0  0  0  0  0
   -0.2831   -3.6640    0.7999 O   0  0  0  0  0  0  0  0  0  0  0  0
   -2.2038   -5.2615    0.9952 C   0  0  1  0  0  0  0  0  0  0  0  0
   -1.2702   -6.3365    1.1432 O   0  0  0  0  0  0  0  0  0  0  0  0
   -3.2589   -5.3215    2.1061 C   0  0  2  0  0  0  0  0  0  0  0  0
    0.2863   -2.4273    1.1216 C   0  0  2  0  0  0  0  0  0  0  0  0
    0.8869   -1.8019   -0.1446 C   0  0  2  0  0  0  0  0  0  0  0  0
    1.8171   -2.7616   -0.7958 N   0  3  0  0  0  0  0  0  0  0  0  0
    1.5788   -0.4737    0.1786 C   0  0  1  0  0  0  0  0  0  0  0  0
    0.6020    0.5086    0.4972 O   0  0  0  0  0  0  0  0  0  0  0  0
    2.5530   -0.6285    1.3504 C   0  0  2  0  0  0  0  0  0  0  0  0
    3.6622   -1.4318    0.9678 O   0  0  0  0  0  0  0  0  0  0  0  0
    1.8331   -1.2656    2.5357 C   0  0  1  0  0  0  0  0  0  0  0  0
    1.2732   -2.5327    2.1394 O   0  0  0  0  0  0  0  0  0  0  0  0
    2.7410   -1.5069    3.7288 C   0  0  0  0  0  0  0  0  0  0  0  0
    2.9777   -0.2679    4.5024 N   0  3  0  0  0  0  0  0  0  0  0  0
   -8.3933   -2.9783    1.1148 C   0  0  0  0  0  0  0  0  0  0  0  0
   -7.8289   -6.1974    2.8600 C   0  0  2  0  0  0  0  0  0  0  0  0
   -8.5032   -7.1745    1.9001 C   0  0  2  0  0  0  0  0  0  0  0  0
   -8.0138   -8.5526    2.1429 N   0  3  0  0  0  0  0  0  0  0  0  0
   -8.2088   -6.7814    0.4586 C   0  0  1  0  0  0  0  0  0  0  0  0
   -8.9037   -7.6500   -0.4231 O   0  0  0  0  0  0  0  0  0  0  0  0
   -8.6438   -5.3366    0.2239 C   0  0  2  0  0  0  0  0  0  0  0  0
   -8.3092   -4.9395   -1.0997 O   0  0  0  0  0  0  0  0  0  0  0  0
   -7.6481   -2.1017    2.0472 N   0  3  0  0  0  0  0  0  0  0  0  0
   -7.9424   -4.4241    1.2282 C   0  0  2  0  0  0  0  0  0  0  0  0
   -8.2245   -4.8584    2.5741 O   0  0  0  0  0  0  0  0  0  0  0  0
   -5.3563   -2.8985    5.0110 C   0  0  2  0  0  0  0  0  0  0  0  0
   -4.5879   -1.9833    5.8858 N   0  3  0  0  0  0  0  0  0  0  0  0
   -5.7112   -4.1711    5.7718 C   0  0  0  0  0  0  0  0  0  0  0  0
   -6.4999   -5.1230    4.8835 C   0  0  2  0  0  0  0  0  0  0  0  0
   -6.8074   -6.3117    5.6662 N   0  3  0  0  0  0  0  0  0  0  0  0
   -5.6755   -5.4817    3.6494 C   0  0  1  0  0  0  0  0  0  0  0  0
   -6.4397   -6.3601    2.8004 O   0  0  0  0  0  0  0  0  0  0  0  0
   -5.2924   -4.2194    2.8647 C   0  0  2  0  0  0  0  0  0  0  0  0
   -4.4305   -4.5820    1.7691 O   0  0  0  0  0  0  0  0  0  0  0  0
   -4.5570   -3.2144    3.7478 C   0  0  1  0  0  0  0  0  0  0  0  0
   -4.3329   -2.0158    3.0173 O   0  0  0  0  0  0  0  0  0  0  0  0
  1  2  1  0  0  0  0
  3  2  1  1  0  0  0
  3  5  1  0  0  0  0
  3  4  1  0  0  0  0
  4  9  1  0  0  0  0
  5  7  1  0  0  0  0
  5  6  1  6  0  0  0
  7  9  1  0  0  0  0
  7  8  1  1  0  0  0
  9 40  1  6  0  0  0
 10  6  1  6  0  0  0
 10 11  1  0  0  0  0
 10 18  1  0  0  0  0
 11 13  1  0  0  0  0
 11 12  1  1  0  0  0
 13 15  1  0  0  0  0
 13 14  1  1  0  0  0
 15 17  1  0  0  0  0
 15 16  1  6  0  0  0
 17 19  1  1  0  0  0
 17 18  1  0  0  0  0
 19 20  1  0  0  0  0
 21 29  1  0  0  0  0
 22 23  1  0  0  0  0
 22 31  1  0  0  0  0
 22 38  1  6  0  0  0
 23 25  1  0  0  0  0
 23 24  1  1  0  0  0
 25 27  1  0  0  0  0
 25 26  1  6  0  0  0
 27 30  1  0  0  0  0
 27 28  1  6  0  0  0
 30 21  1  1  0  0  0
 30 31  1  0  0  0  0
 32 34  1  0  0  0  0
 32 41  1  0  0  0  0
 32 33  1  1  0  0  0
 34 35  1  0  0  0  0
 35 37  1  0  0  0  0
 35 36  1  1  0  0  0
 37 39  1  0  0  0  0
 37 38  1  6  0  0  0
 39 41  1  0  0  0  0
 39 40  1  6  0  0  0
 41 42  1  6  0  0  0
M  CHG  6  12   1  20   1  24   1  29   1  33   1  36   1
M  END
>  <CHROM.1>
59.61443965,-83.88688162,-69.68478293,-134.06527065,46.85389014,-46.62231441
71.34388594,179.92740512,-168.08037903,78.75607346,161.51638423,-176.94864112
57.16298681,179.21286600,-47.06548345,-171.32886523,62.32289360,-6.67006292
-50.01658589,29.49275571,-54.71604466,-38.66595779,-3.44878217,-3.78697642
2.21716073,0.10976143,0.41031040,1.22681251

>  <Name>
1NEM.B

>  <RI>
0

>  <Rbt.Current_Directory>
/home/itssahil/PROJECTS/Mol_Feturizer/New_Systems/rnas/1nem

>  <Rbt.Executable>
rbdock ($Id: //depot/dev/client3/rdock/2013.1/src/exe/rbdock.cxx#4 $)

>  <Rbt.Library>
libRbt.so (2013.1, Build901 2013/11/27)

>  <Rbt.Parameter_File>
/export/apps/rDock/src/rDock_2013.1_src/data/scripts/dock_solv.prm

>  <Rbt.Receptor>
prm/blind_docking_40.prm

>  <SCORE>
22.6529

>  <SCORE.INTER>
2.66541

>  <SCORE.INTER.CONST>
1

>  <SCORE.INTER.POLAR>
-3.55021

>  <SCORE.INTER.ROT>
9

>  <SCORE.INTER.SOLV>
47.3199

>  <SCORE.INTER.VDW>
-11.7623

>  <SCORE.INTER.norm>
0.0634621

>  <SCORE.INTRA>
16.0544

>  <SCORE.INTRA.DIHEDRAL>
1.84569

>  <SCORE.INTRA.DIHEDRAL.0>
22.4324

>  <SCORE.INTRA.POLAR>
0.671135

>  <SCORE.INTRA.POLAR.0>
-1.83749

>  <SCORE.INTRA.REPUL>
0.0607207

>  <SCORE.INTRA.REPUL.0>
0

>  <SCORE.INTRA.SOLV>
0.0500865

>  <SCORE.INTRA.SOLV.lig_0>
-160.638

>  <SCORE.INTRA.VDW>
12.5211

>  <SCORE.INTRA.VDW.0>
-7.61953

>  <SCORE.INTRA.norm>
0.382248

>  <SCORE.RESTR>
3.93307

>  <SCORE.RESTR.CAVITY>
3.93307

>  <SCORE.RESTR.norm>
0.0936446

>  <SCORE.SYSTEM>
0

>  <SCORE.SYSTEM.CONST>
0

>  <SCORE.SYSTEM.DIHEDRAL>
0

>  <SCORE.SYSTEM.SOLV>
0

>  <SCORE.SYSTEM.norm>
0

>  <SCORE.heavy>
42

>  <SCORE.norm>
0.539355

>  <RMSD>
6.472

$$$$
1NEM.B
 OpenBabel11021811403D
libRbt.so/2013.1/901 2013/11/27
 42 45  0  0  0  0  0  0  0  0999 V2000
    4.0497   -1.3935    5.1818 O   0  0  0  0  0  0  0  0  0  0  0  0
    5.3201   -1.0154    4.6478 C   0  0  0  0  0  0  0  0  0  0  0  0
    5.2656    0.2744    3.8304 C   0  0  1  0  0  0  0  0  0  0  0  0
    4.6531    0.0432    2.5651 O   0  0  0  0  0  0  0  0  0  0  0  0
    4.4062    1.3730    4.4353 C   0  0  1  0  0  0  0  0  0  0  0  0
    5.1095    1.8869    5.5687 O   0  0  0  0  0  0  0  0  0  0  0  0
    4.3069    2.2878    3.2291 C   0  0  1  0  0  0  0  0  0  0  0  0
    5.5529    2.9266    2.9312 O   0  0  0  0  0  0  0  0  0  0  0  0
    3.9831    1.2372    2.1603 C   0  0  2  0  0  0  0  0  0  0  0  0
    4.8517    1.2603    6.7927 C   0  0  2  0  0  0  0  0  0  0  0  0
    4.5055    2.3244    7.8430 C   0  0  2  0  0  0  0  0  0  0  0  0
    5.5705    3.3607    7.8898 N   0  3  0  0  0  0  0  0  0  0  0  0
    4.2796    1.6826    9.2158 C   0  0  1  0  0  0  0  0  0  0  0  0
    3.0643    0.9454    9.2042 O   0  0  0  0  0  0  0  0  0  0  0  0
    5.4397    0.7550    9.5901 C   0  0  2  0  0  0  0  0  0  0  0  0
    6.6196    1.5117    9.8297 O   0  0  0  0  0  0  0  0  0  0  0  0
    5.6821   -0.2444    8.4625 C   0  0  1  0  0  0  0  0  0  0  0  0
    5.9427    0.4631    7.2347 O   0  0  0  0  0  0  0  0  0  0  0  0
    6.8547   -1.1725    8.7265 C   0  0  0  0  0  0  0  0  0  0  0  0
    8.1525   -0.5107    8.4666 N   0  3  0  0  0  0  0  0  0  0  0  0
   -0.2427    3.5242    1.4080 C   0  0  0  0  0  0  0  0  0  0  0  0
    1.2815    1.2843   -1.1192 C   0  0  2  0  0  0  0  0  0  0  0  0
    1.1842    2.1480   -2.3745 C   0  0  2  0  0  0  0  0  0  0  0  0
    2.1331    1.6638   -3.4054 N   0  3  0  0  0  0  0  0  0  0  0  0
    1.5013    3.5991   -2.0389 C   0  0  1  0  0  0  0  0  0  0  0  0
    1.3319    4.4033   -3.1961 O   0  0  0  0  0  0  0  0  0  0  0  0
    0.5748    4.0802   -0.9245 C   0  0  2  0  0  0  0  0  0  0  0  0
    0.9104    5.4122   -0.5575 O   0  0  0  0  0  0  0  0  0  0  0  0
   -1.6249    3.0882    1.1039 N   0  3  0  0  0  0  0  0  0  0  0  0
    0.7158    3.1610    0.2873 C   0  0  2  0  0  0  0  0  0  0  0  0
    0.4393    1.7969   -0.0901 O   0  0  0  0  0  0  0  0  0  0  0  0
    2.2482   -2.6747    1.0023 C   0  0  2  0  0  0  0  0  0  0  0  0
    2.6077   -3.9489    1.6661 N   0  3  0  0  0  0  0  0  0  0  0  0
    3.0394   -2.5199   -0.2916 C   0  0  0  0  0  0  0  0  0  0  0  0
    2.6814   -1.2124   -0.9842 C   0  0  2  0  0  0  0  0  0  0  0  0
    3.4661   -1.1265   -2.2077 N   0  3  0  0  0  0  0  0  0  0  0  0
    2.9853   -0.0366   -0.0587 C   0  0  1  0  0  0  0  0  0  0  0  0
    2.6175    1.1947   -0.7105 O   0  0  0  0  0  0  0  0  0  0  0  0
    2.2105   -0.1673    1.2600 C   0  0  2  0  0  0  0  0  0  0  0  0
    2.5982    0.8980    2.1485 O   0  0  0  0  0  0  0  0  0  0  0  0
    2.4977   -1.5001    1.9468 C   0  0  1  0  0  0  0  0  0  0  0  0
    1.6687   -1.6308    3.0941 O   0  0  0  0  0  0  0  0  0  0  0  0
  1  2  1  0  0  0  0
  3  2  1  1  0  0  0
  3  5  1  0  0  0  0
  3  4  1  0  0  0  0
  4  9  1  0  0  0  0
  5  7  1  0  0  0  0
  5  6  1  1  0  0  0
  7  9  1  0  0  0  0
  7  8  1  6  0  0  0
  9 40  1  1  0  0  0
 10  6  1  6  0  0  0
 10 11  1  0  0  0  0
 10 18  1  0  0  0  0
 11 13  1  0  0  0  0
 11 12  1  1  0  0  0
 13 15  1  0  0  0  0
 13 14  1  6  0  0  0
 15 17  1  0  0  0  0
 15 16  1  6  0  0  0
 17 19  1  1  0  0  0
 17 18  1  0  0  0  0
 19 20  1  0  0  0  0
 21 29  1  0  0  0  0
 22 23  1  0  0  0  0
 22 31  1  0  0  0  0
 22 38  1  1  0  0  0
 23 25  1  0  0  0  0
 23 24  1  6  0  0  0
 25 27  1  0  0  0  0
 25 26  1  6  0  0  0
 27 30  1  0  0  0  0
 27 28  1  1  0  0  0
 30 21  1  1  0  0  0
 30 31  1  0  0  0  0
 32 34  1  0  0  0  0
 32 41  1  0  0  0  0
 32 33  1  1  0  0  0
 34 35  1  0  0  0  0
 35 37  1  0  0  0  0
 35 36  1  6  0  0  0
 37 39  1  0  0  0  0
 37 38  1  6  0  0  0
 39 41  1  0  0  0  0
 39 40  1  1  0  0  0
 41 42  1  1  0  0  0
M  CHG  6  12   1  20   1  24   1  29   1  33   1  36   1
M  END
>  <CHROM.1>
62.62810827,-74.39292864,-89.82031476,-129.19092988,74.42412082,-60.08003019
81.27595824,67.32036581,-82.75607630,-78.42274429,89.37628389,75.66922740
-91.12085229,-148.74379441,-166.77585495,178.61477775,71.73453226,-58.45706530
165.06994899,57.20984739,-39.82331538,-157.61689461,3.35666696,0.95108618
2.95061085,-0.44443226,1.09586965,-2.52247535

>  <Name>
1NEM.B

>  <RI>
0

>  <Rbt.Current_Directory>
/home/itssahil/PROJECTS/Mol_Feturizer/New_Systems/rnas/1nem

>  <Rbt.Executable>
rbdock ($Id: //depot/dev/client3/rdock/2013.1/src/exe/rbdock.cxx#4 $)

>  <Rbt.Library>
libRbt.so (2013.1, Build901 2013/11/27)

>  <Rbt.Parameter_File>
/export/apps/rDock/src/rDock_2013.1_src/data/scripts/dock_solv.prm

>  <Rbt.Receptor>
prm/pocket_docking_5.prm

>  <SCORE>
-12.895

>  <SCORE.INTER>
-27.5488

>  <SCORE.INTER.CONST>
1

>  <SCORE.INTER.POLAR>
-5.59057

>  <SCORE.INTER.ROT>
9

>  <SCORE.INTER.SOLV>
34.435

>  <SCORE.INTER.VDW>
-20.809

>  <SCORE.INTER.norm>
-0.655924

>  <SCORE.INTRA>
14.6044

>  <SCORE.INTRA.DIHEDRAL>
8.76006

>  <SCORE.INTRA.DIHEDRAL.0>
22.4324

>  <SCORE.INTRA.POLAR>
1.13882

>  <SCORE.INTRA.POLAR.0>
-1.83749

>  <SCORE.INTRA.REPUL>
0.00402014

>  <SCORE.INTRA.REPUL.0>
0

>  <SCORE.INTRA.SOLV>
1.48462

>  <SCORE.INTRA.SOLV.lig_0>
-160.638

>  <SCORE.INTRA.VDW>
5.58998

>  <SCORE.INTRA.VDW.0>
-7.61953

>  <SCORE.INTRA.norm>
0.347724

>  <SCORE.RESTR>
0.0494453

>  <SCORE.RESTR.CAVITY>
0.0494453

>  <SCORE.RESTR.norm>
0.00117727

>  <SCORE.SYSTEM>
0

>  <SCORE.SYSTEM.CONST>
0

>  <SCORE.SYSTEM.DIHEDRAL>
0

>  <SCORE.SYSTEM.SOLV>
0

>  <SCORE.SYSTEM.norm>
0

>  <SCORE.heavy>
42

>  <SCORE.norm>
-0.307023

>  <RMSD>
6.525

$$$$
1NEM.B
 OpenBabel11021811403D
libRbt.so/2013.1/901 2013/11/27
 42 45  0  0  0  0  0  0  0  0999 V2000
    7.6763   -0.0141    1.6622 O   0  0  0  0  0  0  0  0  0  0  0  0
    7.5677    1.1964    2.4138 C   0  0  0  0  0  0  0  0  0  0  0  0
    6.1560    1.4487    2.9412 C   0  0  1  0  0  0  0  0  0  0  0  0
    5.1966    1.3133    1.8968 O   0  0  0  0  0  0  0  0  0  0  0  0
    5.6790    0.4476    3.9813 C   0  0  1  0  0  0  0  0  0  0  0  0
    6.3927    0.7181    5.1899 O   0  0  0  0  0  0  0  0  0  0  0  0
    4.2006    0.7884    3.9780 C   0  0  1  0  0  0  0  0  0  0  0  0
    3.9399    2.0688    4.5627 O   0  0  0  0  0  0  0  0  0  0  0  0
    3.9729    0.8435    2.4627 C   0  0  2  0  0  0  0  0  0  0  0  0
    5.7086    0.4611    6.3828 C   0  0  2  0  0  0  0  0  0  0  0  0
    5.1717    1.7811    6.9528 C   0  0  2  0  0  0  0  0  0  0  0  0
    6.2741    2.7714    7.0718 N   0  3  0  0  0  0  0  0  0  0  0  0
    4.4707    1.5503    8.2954 C   0  0  1  0  0  0  0  0  0  0  0  0
    3.2467    0.8596    8.0827 O   0  0  0  0  0  0  0  0  0  0  0  0
    5.3565    0.7441    9.2503 C   0  0  2  0  0  0  0  0  0  0  0  0
    6.4792    1.5176    9.6542 O   0  0  0  0  0  0  0  0  0  0  0  0
    5.8256   -0.5334    8.5598 C   0  0  1  0  0  0  0  0  0  0  0  0
    6.5220   -0.1999    7.3433 O   0  0  0  0  0  0  0  0  0  0  0  0
    6.7569   -1.3711    9.4183 C   0  0  0  0  0  0  0  0  0  0  0  0
    8.1665   -0.9405    9.2865 N   0  3  0  0  0  0  0  0  0  0  0  0
    1.7812    0.7096   -3.0729 C   0  0  0  0  0  0  0  0  0  0  0  0
    2.2599    1.6013    0.4912 C   0  0  2  0  0  0  0  0  0  0  0  0
    1.8058    3.0590    0.4932 C   0  0  2  0  0  0  0  0  0  0  0  0
    1.4708    3.4902    1.8714 N   0  3  0  0  0  0  0  0  0  0  0  0
    0.5839    3.2292   -0.3994 C   0  0  1  0  0  0  0  0  0  0  0  0
    0.2189    4.5998   -0.4506 O   0  0  0  0  0  0  0  0  0  0  0  0
    0.9009    2.7171   -1.8027 C   0  0  2  0  0  0  0  0  0  0  0  0
   -0.2562    2.8085   -2.6239 O   0  0  0  0  0  0  0  0  0  0  0  0
    0.6288    0.5979   -3.9962 N   0  3  0  0  0  0  0  0  0  0  0  0
    1.3617    1.2630   -1.7221 C   0  0  2  0  0  0  0  0  0  0  0  0
    2.4969    1.1508   -0.8399 O   0  0  0  0  0  0  0  0  0  0  0  0
    1.3307   -3.2986    2.2272 C   0  0  2  0  0  0  0  0  0  0  0  0
    1.5244   -4.7644    2.1408 N   0  3  0  0  0  0  0  0  0  0  0  0
    0.3799   -2.8331    1.1302 C   0  0  0  0  0  0  0  0  0  0  0  0
    0.1731   -1.3268    1.2055 C   0  0  2  0  0  0  0  0  0  0  0  0
   -0.7414   -0.9484    0.1375 N   0  3  0  0  0  0  0  0  0  0  0  0
    1.5138   -0.6122    1.0533 C   0  0  1  0  0  0  0  0  0  0  0  0
    1.3131    0.8112    1.1539 O   0  0  0  0  0  0  0  0  0  0  0  0
    2.4994   -1.0667    2.1388 C   0  0  2  0  0  0  0  0  0  0  0  0
    3.7821   -0.4548    1.9048 O   0  0  0  0  0  0  0  0  0  0  0  0
    2.6772   -2.5829    2.1323 C   0  0  1  0  0  0  0  0  0  0  0  0
    3.4968   -2.9691    3.2276 O   0  0  0  0  0  0  0  0  0  0  0  0
  1  2  1  0  0  0  0
  3  2  1  6  0  0  0
  3  5  1  0  0  0  0
  3  4  1  0  0  0  0
  4  9  1  0  0  0  0
  5  7  1  0  0  0  0
  5  6  1  1  0  0  0
  7  9  1  0  0  0  0
  7  8  1  1  0  0  0
  9 40  1  6  0  0  0
 10  6  1  6  0  0  0
 10 11  1  0  0  0  0
 10 18  1  0  0  0  0
 11 13  1  0  0  0  0
 11 12  1  1  0  0  0
 13 15  1  0  0  0  0
 13 14  1  6  0  0  0
 15 17  1  0  0  0  0
 15 16  1  6  0  0  0
 17 19  1  1  0  0  0
 17 18  1  0  0  0  0
 19 20  1  0  0  0  0
 21 29  1  0  0  0  0
 22 23  1  0  0  0  0
 22 31  1  0  0  0  0
 22 38  1  6  0  0  0
 23 25  1  0  0  0  0
 23 24  1  1  0  0  0
 25 27  1  0  0  0  0
 25 26  1  6  0  0  0
 27 30  1  0  0  0  0
 27 28  1  6  0  0  0
 30 21  1  6  0  0  0
 30 31  1  0  0  0  0
 32 34  1  0  0  0  0
 32 41  1  0  0  0  0
 32 33  1  6  0  0  0
 34 35  1  0  0  0  0
 35 37  1  0  0  0  0
 35 36  1  6  0  0  0
 37 39  1  0  0  0  0
 37 38  1  1  0  0  0
 39 41  1  0  0  0  0
 39 40  1  6  0  0  0
 41 42  1  1  0  0  0
M  CHG  6  12   1  20   1  24   1  29   1  33   1  36   1
M  END
>  <CHROM.1>
-67.71319299,-49.99539642,148.00576379,-100.63698839,173.43678030,-169.92768643
144.29153386,-179.12097036,169.80826977,-86.11340927,-27.60969533,-66.94004281
-179.75329809,171.06499948,-149.87596897,-172.02750247,-55.39274159,165.50396895
-43.73055079,-153.52217331,86.37753180,-55.84243192,3.47833458,0.50196001
2.99979239,-0.38113271,-0.98519902,-0.37843250

>  <Name>
1NEM.B

>  <RI>
0

>  <Rbt.Current_Directory>
/home/itssahil/PROJECTS/Mol_Feturizer/New_Systems/rnas/1nem

>  <Rbt.Executable>
rbdock ($Id: //depot/dev/client3/rdock/2013.1/src/exe/rbdock.cxx#4 $)

>  <Rbt.Library>
libRbt.so (2013.1, Build901 2013/11/27)

>  <Rbt.Parameter_File>
/export/apps/rDock/src/rDock_2013.1_src/data/scripts/dock_solv.prm

>  <Rbt.Receptor>
prm/pocket_docking_8.prm

>  <SCORE>
-25.5534

>  <SCORE.INTER>
-32.9791

>  <SCORE.INTER.CONST>
1

>  <SCORE.INTER.POLAR>
-5.60032

>  <SCORE.INTER.ROT>
9

>  <SCORE.INTER.SOLV>
28.2929

>  <SCORE.INTER.VDW>
-22.3493

>  <SCORE.INTER.norm>
-0.785216

>  <SCORE.INTRA>
7.31357

>  <SCORE.INTRA.DIHEDRAL>
5.71253

>  <SCORE.INTRA.DIHEDRAL.0>
22.4324

>  <SCORE.INTRA.POLAR>
-0.0604281

>  <SCORE.INTRA.POLAR.0>
-1.83749

>  <SCORE.INTRA.REPUL>
0

>  <SCORE.INTRA.REPUL.0>
0

>  <SCORE.INTRA.SOLV>
-0.113937

>  <SCORE.INTRA.SOLV.lig_0>
-160.638

>  <SCORE.INTRA.VDW>
4.71973

>  <SCORE.INTRA.VDW.0>
-7.61953

>  <SCORE.INTRA.norm>
0.174133

>  <SCORE.RESTR>
0.112155

>  <SCORE.RESTR.CAVITY>
0.112155

>  <SCORE.RESTR.norm>
0.00267035

>  <SCORE.SYSTEM>
0

>  <SCORE.SYSTEM.CONST>
0

>  <SCORE.SYSTEM.DIHEDRAL>
0

>  <SCORE.SYSTEM.SOLV>
0

>  <SCORE.SYSTEM.norm>
0

>  <SCORE.heavy>
42

>  <SCORE.norm>
-0.608413

>  <RMSD>
6.536

$$$$
1NEM.B
 OpenBabel11021811403D
libRbt.so/2013.1/901 2013/11/27
 42 45  0  0  0  0  0  0  0  0999 V2000
   -0.4078   -6.5707    1.1096 O   0  0  0  0  0  0  0  0  0  0  0  0
    0.2086   -5.2831    1.1741 C   0  0  0  0  0  0  0  0  0  0  0  0
   -0.8014   -4.1400    1.2635 C   0  0  1  0  0  0  0  0  0  0  0  0
   -2.1245   -4.6185    1.0400 O   0  0  0  0  0  0  0  0  0  0  0  0
   -0.8972   -3.4836    2.6315 C   0  0  1  0  0  0  0  0  0  0  0  0
    0.2917   -2.7118    2.8164 O   0  0  0  0  0  0  0  0  0  0  0  0
   -2.1844   -2.7058    2.4318 C   0  0  1  0  0  0  0  0  0  0  0  0
   -2.0209   -1.6156    1.5186 O   0  0  0  0  0  0  0  0  0  0  0  0
   -3.0320   -3.8103    1.7895 C   0  0  2  0  0  0  0  0  0  0  0  0
    0.9281   -2.2678    1.6523 C   0  0  2  0  0  0  0  0  0  0  0  0
    2.4215   -2.0611    1.9393 C   0  0  2  0  0  0  0  0  0  0  0  0
    2.5963   -1.1724    3.1183 N   0  3  0  0  0  0  0  0  0  0  0  0
    3.1432   -1.5118    0.7045 C   0  0  1  0  0  0  0  0  0  0  0  0
    3.2229   -2.5230   -0.2914 O   0  0  0  0  0  0  0  0  0  0  0  0
    2.4162   -0.2885    0.1377 C   0  0  2  0  0  0  0  0  0  0  0  0
    2.5262    0.8104    1.0335 O   0  0  0  0  0  0  0  0  0  0  0  0
    0.9461   -0.6267   -0.0936 C   0  0  1  0  0  0  0  0  0  0  0  0
    0.3511   -1.0737    1.1401 O   0  0  0  0  0  0  0  0  0  0  0  0
    0.1342    0.5498   -0.6062 C   0  0  0  0  0  0  0  0  0  0  0  0
   -1.2579    0.1629   -0.9256 N   0  3  0  0  0  0  0  0  0  0  0  0
   -8.6751   -7.5132    2.7101 C   0  0  0  0  0  0  0  0  0  0  0  0
   -6.3393   -4.7321    1.9775 C   0  0  2  0  0  0  0  0  0  0  0  0
   -7.1036   -3.9858    0.8866 C   0  0  2  0  0  0  0  0  0  0  0  0
   -6.5954   -2.5989    0.7611 N   0  3  0  0  0  0  0  0  0  0  0  0
   -8.5897   -3.9504    1.2175 C   0  0  1  0  0  0  0  0  0  0  0  0
   -9.2981   -3.3231    0.1596 O   0  0  0  0  0  0  0  0  0  0  0  0
   -9.1019   -5.3745    1.4210 C   0  0  2  0  0  0  0  0  0  0  0  0
  -10.4725   -5.3464    1.7982 O   0  0  0  0  0  0  0  0  0  0  0  0
   -8.4570   -8.3080    1.4798 N   0  3  0  0  0  0  0  0  0  0  0  0
   -8.2814   -6.0598    2.5120 C   0  0  2  0  0  0  0  0  0  0  0  0
   -6.8811   -6.0364    2.1680 O   0  0  0  0  0  0  0  0  0  0  0  0
   -3.6896   -4.0169    6.4710 C   0  0  2  0  0  0  0  0  0  0  0  0
   -2.8383   -4.5196    7.5736 N   0  3  0  0  0  0  0  0  0  0  0  0
   -5.1342   -4.4531    6.6876 C   0  0  0  0  0  0  0  0  0  0  0  0
   -6.0212   -3.9450    5.5596 C   0  0  2  0  0  0  0  0  0  0  0  0
   -7.3812   -4.3921    5.8257 N   0  3  0  0  0  0  0  0  0  0  0  0
   -5.5210   -4.4884    4.2233 C   0  0  1  0  0  0  0  0  0  0  0  0
   -6.3484   -3.9804    3.1585 O   0  0  0  0  0  0  0  0  0  0  0  0
   -4.0632   -4.0747    3.9785 C   0  0  2  0  0  0  0  0  0  0  0  0
   -3.5906   -4.6884    2.7642 O   0  0  0  0  0  0  0  0  0  0  0  0
   -3.1580   -4.5126    5.1272 C   0  0  1  0  0  0  0  0  0  0  0  0
   -1.8475   -4.0028    4.9193 O   0  0  0  0  0  0  0  0  0  0  0  0
  1  2  1  0  0  0  0
  3  2  1  1  0  0  0
  3  5  1  0  0  0  0
  3  4  1  0  0  0  0
  4  9  1  0  0  0  0
  5  7  1  0  0  0  0
  5  6  1  6  0  0  0
  7  9  1  0  0  0  0
  7  8  1  6  0  0  0
  9 40  1  1  0  0  0
 10  6  1  1  0  0  0
 10 11  1  0  0  0  0
 10 18  1  0  0  0  0
 11 13  1  0  0  0  0
 11 12  1  1  0  0  0
 13 15  1  0  0  0  0
 13 14  1  6  0  0  0
 15 17  1  0  0  0  0
 15 16  1  1  0  0  0
 17 19  1  1  0  0  0
 17 18  1  0  0  0  0
 19 20  1  0  0  0  0
 21 29  1  0  0  0  0
 22 23  1  0  0  0  0
 22 31  1  0  0  0  0
 22 38  1  1  0  0  0
 23 25  1  0  0  0  0
 23 24  1  1  0  0  0
 25 27  1  0  0  0  0
 25 26  1  6  0  0  0
 27 30  1  0  0  0  0
 27 28  1  1  0  0  0
 30 21  1  6  0  0  0
 30 31  1  0  0  0  0
 32 34  1  0  0  0  0
 32 41  1  0  0  0  0
 32 33  1  1  0  0  0
 34 35  1  0  0  0  0
 35 37  1  0  0  0  0
 35 36  1  1  0  0  0
 37 39  1  0  0  0  0
 37 38  1  6  0  0  0
 39 41  1  0  0  0  0
 39 40  1  6  0  0  0
 41 42  1  6  0  0  0
M  CHG  6  12   1  20   1  24   1  29   1  33   1  36   1
M  END
>  <CHROM.1>
137.12863373,-9.57249825,25.71353168,-153.89952930,-44.11033047,153.87117954
15.75794832,171.41044767,170.40458897,175.31069533,151.55672499,61.17367471
156.56847945,-172.54539174,54.90652675,60.44201251,66.59911185,25.09811966
61.17427969,-157.83416713,126.26442484,-45.15843174,-3.16981409,-3.54486749
2.28993104,-0.28699521,0.30846458,1.93805791

>  <Name>
1NEM.B

>  <RI>
0

>  <Rbt.Current_Directory>
/home/itssahil/PROJECTS/Mol_Feturizer/New_Systems/rnas/1nem

>  <Rbt.Executable>
rbdock ($Id: //depot/dev/client3/rdock/2013.1/src/exe/rbdock.cxx#4 $)

>  <Rbt.Library>
libRbt.so (2013.1, Build901 2013/11/27)

>  <Rbt.Parameter_File>
/export/apps/rDock/src/rDock_2013.1_src/data/scripts/dock_solv.prm

>  <Rbt.Receptor>
prm/blind_docking_100.prm

>  <SCORE>
-27.9413

>  <SCORE.INTER>
-46.2995

>  <SCORE.INTER.CONST>
1

>  <SCORE.INTER.POLAR>
-6.81587

>  <SCORE.INTER.ROT>
9

>  <SCORE.INTER.SOLV>
39.2062

>  <SCORE.INTER.VDW>
-30.8155

>  <SCORE.INTER.norm>
-1.10237

>  <SCORE.INTRA>
14.6167

>  <SCORE.INTRA.DIHEDRAL>
19.7067

>  <SCORE.INTRA.DIHEDRAL.0>
22.4324

>  <SCORE.INTRA.POLAR>
-1.04199

>  <SCORE.INTRA.POLAR.0>
-1.83749

>  <SCORE.INTRA.REPUL>
0

>  <SCORE.INTRA.REPUL.0>
0

>  <SCORE.INTRA.SOLV>
-3.26413

>  <SCORE.INTRA.SOLV.lig_0>
-160.638

>  <SCORE.INTRA.VDW>
9.93817

>  <SCORE.INTRA.VDW.0>
-7.61953

>  <SCORE.INTRA.norm>
0.348016

>  <SCORE.RESTR>
3.74145

>  <SCORE.RESTR.CAVITY>
3.74145

>  <SCORE.RESTR.norm>
0.0890822

>  <SCORE.SYSTEM>
0

>  <SCORE.SYSTEM.CONST>
0

>  <SCORE.SYSTEM.DIHEDRAL>
0

>  <SCORE.SYSTEM.SOLV>
0

>  <SCORE.SYSTEM.norm>
0

>  <SCORE.heavy>
42

>  <SCORE.norm>
-0.665269

>  <RMSD>
6.539

$$$$
1NEM.B
 OpenBabel11021811403D
libRbt.so/2013.1/901 2013/11/27
 42 45  0  0  0  0  0  0  0  0999 V2000
   -1.7527   -4.0735    6.4488 O   0  0  0  0  0  0  0  0  0  0  0  0
   -2.3843   -3.5262    5.2897 C   0  0  0  0  0  0  0  0  0  0  0  0
   -2.0732   -4.3072    4.0138 C   0  0  1  0  0  0  0  0  0  0  0  0
   -3.2515   -4.9205    3.4989 O   0  0  0  0  0  0  0  0  0  0  0  0
   -1.5897   -3.4557    2.8507 C   0  0  1  0  0  0  0  0  0  0  0  0
   -0.2575   -3.0370    3.1559 O   0  0  0  0  0  0  0  0  0  0  0  0
   -1.7404   -4.4718    1.7341 C   0  0  1  0  0  0  0  0  0  0  0  0
   -0.7799   -5.5287    1.8320 O   0  0  0  0  0  0  0  0  0  0  0  0
   -3.1397   -4.9962    2.0776 C   0  0  2  0  0  0  0  0  0  0  0  0
    0.2974   -2.0730    2.3073 C   0  0  2  0  0  0  0  0  0  0  0  0
    0.4172   -2.6536    0.8917 C   0  0  2  0  0  0  0  0  0  0  0  0
    1.1551   -3.9437    0.9300 N   0  3  0  0  0  0  0  0  0  0  0  0
    1.0820   -1.6492   -0.0552 C   0  0  1  0  0  0  0  0  0  0  0  0
    0.1923   -0.5697   -0.3077 O   0  0  0  0  0  0  0  0  0  0  0  0
    2.3877   -1.1109    0.5378 C   0  0  2  0  0  0  0  0  0  0  0  0
    3.3697   -2.1385    0.5842 O   0  0  0  0  0  0  0  0  0  0  0  0
    2.1302   -0.5731    1.9425 C   0  0  1  0  0  0  0  0  0  0  0  0
    1.5626   -1.6122    2.7636 O   0  0  0  0  0  0  0  0  0  0  0  0
    3.3860   -0.0664    2.6296 C   0  0  0  0  0  0  0  0  0  0  0  0
    4.5732   -0.1623    1.7513 N   0  3  0  0  0  0  0  0  0  0  0  0
   -3.2014   -0.1530   -0.9594 C   0  0  0  0  0  0  0  0  0  0  0  0
   -4.8449   -1.7703    1.9406 C   0  0  2  0  0  0  0  0  0  0  0  0
   -4.8981   -0.6110    2.9327 C   0  0  2  0  0  0  0  0  0  0  0  0
   -5.9129   -0.8778    3.9799 N   0  3  0  0  0  0  0  0  0  0  0  0
   -5.2476    0.6828    2.2097 C   0  0  1  0  0  0  0  0  0  0  0  0
   -5.2176    1.7645    3.1282 O   0  0  0  0  0  0  0  0  0  0  0  0
   -4.2474    0.9239    1.0813 C   0  0  2  0  0  0  0  0  0  0  0  0
   -4.6072    2.0935    0.3575 O   0  0  0  0  0  0  0  0  0  0  0  0
   -3.1183    1.2348   -1.4696 N   0  3  0  0  0  0  0  0  0  0  0  0
   -4.2391   -0.2808    0.1422 C   0  0  2  0  0  0  0  0  0  0  0  0
   -3.9376   -1.4826    0.8799 O   0  0  0  0  0  0  0  0  0  0  0  0
   -7.2591   -5.9295    2.7793 C   0  0  2  0  0  0  0  0  0  0  0  0
   -7.6288   -7.3631    2.7443 N   0  3  0  0  0  0  0  0  0  0  0  0
   -8.2574   -5.1138    1.9657 C   0  0  0  0  0  0  0  0  0  0  0  0
   -7.8883   -3.6372    1.9909 C   0  0  2  0  0  0  0  0  0  0  0  0
   -8.8767   -2.9169    1.2008 N   0  3  0  0  0  0  0  0  0  0  0  0
   -6.4867   -3.4444    1.4168 C   0  0  1  0  0  0  0  0  0  0  0  0
   -6.1339   -2.0484    1.4702 O   0  0  0  0  0  0  0  0  0  0  0  0
   -5.4567   -4.2618    2.2088 C   0  0  2  0  0  0  0  0  0  0  0  0
   -4.1665   -4.1411    1.5800 O   0  0  0  0  0  0  0  0  0  0  0  0
   -5.8354   -5.7399    2.2583 C   0  0  1  0  0  0  0  0  0  0  0  0
   -4.9262   -6.4345    3.1018 O   0  0  0  0  0  0  0  0  0  0  0  0
  1  2  1  0  0  0  0
  3  2  1  1  0  0  0
  3  5  1  0  0  0  0
  3  4  1  0  0  0  0
  4  9  1  0  0  0  0
  5  7  1  0  0  0  0
  5  6  1  1  0  0  0
  7  9  1  0  0  0  0
  7  8  1  1  0  0  0
  9 40  1  6  0  0  0
 10  6  1  1  0  0  0
 10 11  1  0  0  0  0
 10 18  1  0  0  0  0
 11 13  1  0  0  0  0
 11 12  1  1  0  0  0
 13 15  1  0  0  0  0
 13 14  1  1  0  0  0
 15 17  1  0  0  0  0
 15 16  1  1  0  0  0
 17 19  1  1  0  0  0
 17 18  1  0  0  0  0
 19 20  1  0  0  0  0
 21 29  1  0  0  0  0
 22 23  1  0  0  0  0
 22 31  1  0  0  0  0
 22 38  1  6  0  0  0
 23 25  1  0  0  0  0
 23 24  1  1  0  0  0
 25 27  1  0  0  0  0
 25 26  1  1  0  0  0
 27 30  1  0  0  0  0
 27 28  1  6  0  0  0
 30 21  1  6  0  0  0
 30 31  1  0  0  0  0
 32 34  1  0  0  0  0
 32 41  1  0  0  0  0
 32 33  1  6  0  0  0
 34 35  1  0  0  0  0
 35 37  1  0  0  0  0
 35 36  1  6  0  0  0
 37 39  1  0  0  0  0
 37 38  1  1  0  0  0
 39 41  1  0  0  0  0
 39 40  1  6  0  0  0
 41 42  1  1  0  0  0
M  CHG  6  12   1  20   1  24   1  29   1  33   1  36   1
M  END
>  <CHROM.1>
-160.37717518,114.38663160,-170.47931847,-63.27963334,87.96615858,-44.76212776
93.58734190,-52.76491525,-64.56105084,2.26447292,67.28426101,-39.01127290
-0.32022330,-135.50479346,-60.76443001,175.77568312,76.99326245,64.27417668
-81.28026637,134.87889669,-171.12691039,-50.20530803,-2.80643976,-2.47313126
1.95402604,-0.31083562,0.01662666,2.76360155

>  <Name>
1NEM.B

>  <RI>
0

>  <Rbt.Current_Directory>
/home/itssahil/PROJECTS/Mol_Feturizer/New_Systems/rnas/1nem

>  <Rbt.Executable>
rbdock ($Id: //depot/dev/client3/rdock/2013.1/src/exe/rbdock.cxx#4 $)

>  <Rbt.Library>
libRbt.so (2013.1, Build901 2013/11/27)

>  <Rbt.Parameter_File>
/export/apps/rDock/src/rDock_2013.1_src/data/scripts/dock_solv.prm

>  <Rbt.Receptor>
prm/blind_docking_20.prm

>  <SCORE>
34.4061

>  <SCORE.INTER>
4.03017

>  <SCORE.INTER.CONST>
1

>  <SCORE.INTER.POLAR>
-5.47886

>  <SCORE.INTER.ROT>
9

>  <SCORE.INTER.SOLV>
51.8047

>  <SCORE.INTER.VDW>
-5.91859

>  <SCORE.INTER.norm>
0.0959565

>  <SCORE.INTRA>
27.6972

>  <SCORE.INTRA.DIHEDRAL>
18.1799

>  <SCORE.INTRA.DIHEDRAL.0>
22.4324

>  <SCORE.INTRA.POLAR>
-0.673031

>  <SCORE.INTRA.POLAR.0>
-1.83749

>  <SCORE.INTRA.REPUL>
0

>  <SCORE.INTRA.REPUL.0>
0

>  <SCORE.INTRA.SOLV>
2.78467

>  <SCORE.INTRA.SOLV.lig_0>
-160.638

>  <SCORE.INTRA.VDW>
19.5032

>  <SCORE.INTRA.VDW.0>
-7.61953

>  <SCORE.INTRA.norm>
0.659456

>  <SCORE.RESTR>
2.6788

>  <SCORE.RESTR.CAVITY>
2.6788

>  <SCORE.RESTR.norm>
0.0637809

>  <SCORE.SYSTEM>
0

>  <SCORE.SYSTEM.CONST>
0

>  <SCORE.SYSTEM.DIHEDRAL>
0

>  <SCORE.SYSTEM.SOLV>
0

>  <SCORE.SYSTEM.norm>
0

>  <SCORE.heavy>
42

>  <SCORE.norm>
0.819194

>  <RMSD>
6.542

$$$$
1NEM.B
 OpenBabel11021811403D
libRbt.so/2013.1/901 2013/11/27
 42 45  0  0  0  0  0  0  0  0999 V2000
   -0.7960   -5.0397    1.3850 O   0  0  0  0  0  0  0  0  0  0  0  0
   -1.3300   -3.8469    1.9632 C   0  0  0  0  0  0  0  0  0  0  0  0
   -2.3943   -3.1835    1.0903 C   0  0  1  0  0  0  0  0  0  0  0  0
   -3.6987   -3.4474    1.5986 O   0  0  0  0  0  0  0  0  0  0  0  0
   -2.3348   -1.6645    1.0617 C   0  0  1  0  0  0  0  0  0  0  0  0
   -1.1892   -1.2989    0.2888 O   0  0  0  0  0  0  0  0  0  0  0  0
   -3.6891   -1.3858    0.4372 C   0  0  1  0  0  0  0  0  0  0  0  0
   -3.7386   -1.7715   -0.9405 O   0  0  0  0  0  0  0  0  0  0  0  0
   -4.5414   -2.3388    1.2835 C   0  0  2  0  0  0  0  0  0  0  0  0
    0.0144   -1.1699    0.9902 C   0  0  2  0  0  0  0  0  0  0  0  0
    0.8891   -0.1119    0.3040 C   0  0  2  0  0  0  0  0  0  0  0  0
    1.0444   -0.4356   -1.1387 N   0  3  0  0  0  0  0  0  0  0  0  0
    2.2456    0.0126    1.0054 C   0  0  1  0  0  0  0  0  0  0  0  0
    2.0718    0.6252    2.2763 O   0  0  0  0  0  0  0  0  0  0  0  0
    2.9047   -1.3588    1.1818 C   0  0  2  0  0  0  0  0  0  0  0  0
    3.2937   -1.8859   -0.0803 O   0  0  0  0  0  0  0  0  0  0  0  0
    1.9297   -2.3126    1.8664 C   0  0  1  0  0  0  0  0  0  0  0  0
    0.7160   -2.4019    1.0951 O   0  0  0  0  0  0  0  0  0  0  0  0
    2.4832   -3.7168    2.0336 C   0  0  0  0  0  0  0  0  0  0  0  0
    1.5378   -4.6013    2.7504 N   0  3  0  0  0  0  0  0  0  0  0  0
   -9.5119   -7.0638    2.9320 C   0  0  0  0  0  0  0  0  0  0  0  0
   -6.8431   -5.0806    1.2974 C   0  0  2  0  0  0  0  0  0  0  0  0
   -7.5627   -4.5992    0.0399 C   0  0  2  0  0  0  0  0  0  0  0  0
   -6.8621   -3.4262   -0.5351 N   0  3  0  0  0  0  0  0  0  0  0  0
   -8.9989   -4.2163    0.3713 C   0  0  1  0  0  0  0  0  0  0  0  0
   -9.6790   -3.8449   -0.8179 O   0  0  0  0  0  0  0  0  0  0  0  0
   -9.7036   -5.3988    1.0321 C   0  0  2  0  0  0  0  0  0  0  0  0
  -11.0237   -5.0272    1.4074 O   0  0  0  0  0  0  0  0  0  0  0  0
   -9.3933   -8.2582    2.0647 N   0  3  0  0  0  0  0  0  0  0  0  0
   -8.9193   -5.8324    2.2691 C   0  0  2  0  0  0  0  0  0  0  0  0
   -7.5598   -6.1504    1.9081 O   0  0  0  0  0  0  0  0  0  0  0  0
   -4.1893   -3.8168    5.6281 C   0  0  2  0  0  0  0  0  0  0  0  0
   -2.9910   -3.8920    6.4951 N   0  3  0  0  0  0  0  0  0  0  0  0
   -4.4626   -5.1777    4.9977 C   0  0  0  0  0  0  0  0  0  0  0  0
   -5.6913   -5.1149    4.1013 C   0  0  2  0  0  0  0  0  0  0  0  0
   -5.8977   -6.4400    3.5341 N   0  3  0  0  0  0  0  0  0  0  0  0
   -5.4763   -4.0788    3.0006 C   0  0  1  0  0  0  0  0  0  0  0  0
   -6.6542   -4.0053    2.1739 O   0  0  0  0  0  0  0  0  0  0  0  0
   -5.1883   -2.6965    3.6027 C   0  0  2  0  0  0  0  0  0  0  0  0
   -4.8878   -1.7680    2.5434 O   0  0  0  0  0  0  0  0  0  0  0  0
   -3.9999   -2.7408    4.5601 C   0  0  1  0  0  0  0  0  0  0  0  0
   -3.8477   -1.4739    5.1862 O   0  0  0  0  0  0  0  0  0  0  0  0
  1  2  1  0  0  0  0
  3  2  1  1  0  0  0
  3  5  1  0  0  0  0
  3  4  1  0  0  0  0
  4  9  1  0  0  0  0
  5  7  1  0  0  0  0
  5  6  1  6  0  0  0
  7  9  1  0  0  0  0
  7  8  1  6  0  0  0
  9 40  1  1  0  0  0
 10  6  1  6  0  0  0
 10 11  1  0  0  0  0
 10 18  1  0  0  0  0
 11 13  1  0  0  0  0
 11 12  1  6  0  0  0
 13 15  1  0  0  0  0
 13 14  1  1  0  0  0
 15 17  1  0  0  0  0
 15 16  1  6  0  0  0
 17 19  1  6  0  0  0
 17 18  1  0  0  0  0
 19 20  1  0  0  0  0
 21 29  1  0  0  0  0
 22 23  1  0  0  0  0
 22 31  1  0  0  0  0
 22 38  1  1  0  0  0
 23 25  1  0  0  0  0
 23 24  1  1  0  0  0
 25 27  1  0  0  0  0
 25 26  1  6  0  0  0
 27 30  1  0  0  0  0
 27 28  1  1  0  0  0
 30 21  1  6  0  0  0
 30 31  1  0  0  0  0
 32 34  1  0  0  0  0
 32 41  1  0  0  0  0
 32 33  1  6  0  0  0
 34 35  1  0  0  0  0
 35 37  1  0  0  0  0
 35 36  1  6  0  0  0
 37 39  1  0  0  0  0
 37 38  1  1  0  0  0
 39 41  1  0  0  0  0
 39 40  1  6  0  0  0
 41 42  1  1  0  0  0
M  CHG  6  12   1  20   1  24   1  29   1  33   1  36   1
M  END
>  <CHROM.1>
29.84780308,102.98675499,-88.99431842,-149.42249813,-154.84894620,-40.92673872
50.14341342,-176.04890059,173.77594664,177.60005528,87.46763541,66.33066322
77.02491690,-149.05830948,156.53957276,-43.57052377,-171.25249437,-152.24422577
24.30055189,-74.16720724,-17.26699879,-65.95339574,-3.65818265,-3.38643129
1.84308003,-0.21571199,0.30659535,2.03159496

>  <Name>
1NEM.B

>  <RI>
0

>  <Rbt.Current_Directory>
/home/itssahil/PROJECTS/Mol_Feturizer/New_Systems/rnas/1nem

>  <Rbt.Executable>
rbdock ($Id: //depot/dev/client3/rdock/2013.1/src/exe/rbdock.cxx#4 $)

>  <Rbt.Library>
libRbt.so (2013.1, Build901 2013/11/27)

>  <Rbt.Parameter_File>
/export/apps/rDock/src/rDock_2013.1_src/data/scripts/dock_solv.prm

>  <Rbt.Receptor>
prm/blind_docking_20.prm

>  <SCORE>
-3.70578

>  <SCORE.INTER>
-33.2692

>  <SCORE.INTER.CONST>
1

>  <SCORE.INTER.POLAR>
-5.81533

>  <SCORE.INTER.ROT>
9

>  <SCORE.INTER.SOLV>
45.2215

>  <SCORE.INTER.VDW>
-27.4689

>  <SCORE.INTER.norm>
-0.792124

>  <SCORE.INTRA>
26.9448

>  <SCORE.INTRA.DIHEDRAL>
17.5431

>  <SCORE.INTRA.DIHEDRAL.0>
22.4324

>  <SCORE.INTRA.POLAR>
-0.218616

>  <SCORE.INTRA.POLAR.0>
-1.83749

>  <SCORE.INTRA.REPUL>
0

>  <SCORE.INTRA.REPUL.0>
0

>  <SCORE.INTRA.SOLV>
4.9827

>  <SCORE.INTRA.SOLV.lig_0>
-160.638

>  <SCORE.INTRA.VDW>
16.4252

>  <SCORE.INTRA.VDW.0>
-7.61953

>  <SCORE.INTRA.norm>
0.641542

>  <SCORE.RESTR>
2.61867

>  <SCORE.RESTR.CAVITY>
2.61867

>  <SCORE.RESTR.norm>
0.0623492

>  <SCORE.SYSTEM>
0

>  <SCORE.SYSTEM.CONST>
0

>  <SCORE.SYSTEM.DIHEDRAL>
0

>  <SCORE.SYSTEM.SOLV>
0

>  <SCORE.SYSTEM.norm>
0

>  <SCORE.heavy>
42

>  <SCORE.norm>
-0.0882327

>  <RMSD>
6.579

$$$$
1NEM.B
 OpenBabel11021811403D
libRbt.so/2013.1/901 2013/11/27
 42 45  0  0  0  0  0  0  0  0999 V2000
    4.5835   -0.8424    5.2600 O   0  0  0  0  0  0  0  0  0  0  0  0
    5.9032   -0.5226    4.8149 C   0  0  0  0  0  0  0  0  0  0  0  0
    5.9543    0.7355    3.9492 C   0  0  1  0  0  0  0  0  0  0  0  0
    5.1590    0.5736    2.7783 O   0  0  0  0  0  0  0  0  0  0  0  0
    5.3648    1.9771    4.5990 C   0  0  1  0  0  0  0  0  0  0  0  0
    6.2779    2.3990    5.6148 O   0  0  0  0  0  0  0  0  0  0  0  0
    5.2632    2.8621    3.3709 C   0  0  1  0  0  0  0  0  0  0  0  0
    6.5482    3.2780    2.8966 O   0  0  0  0  0  0  0  0  0  0  0  0
    4.6437    1.8502    2.3997 C   0  0  2  0  0  0  0  0  0  0  0  0
    5.9041    2.1250    6.9348 C   0  0  2  0  0  0  0  0  0  0  0  0
    6.6934    3.0370    7.8839 C   0  0  2  0  0  0  0  0  0  0  0  0
    8.1504    2.9150    7.6146 N   0  3  0  0  0  0  0  0  0  0  0  0
    6.3597    2.7222    9.3457 C   0  0  1  0  0  0  0  0  0  0  0  0
    5.0365    3.1521    9.6369 O   0  0  0  0  0  0  0  0  0  0  0  0
    6.4873    1.2227    9.6314 C   0  0  2  0  0  0  0  0  0  0  0  0
    7.8501    0.8217    9.5667 O   0  0  0  0  0  0  0  0  0  0  0  0
    5.6640    0.4349    8.6164 C   0  0  1  0  0  0  0  0  0  0  0  0
    6.0987    0.7601    7.2817 O   0  0  0  0  0  0  0  0  0  0  0  0
    5.7760   -1.0693    8.7922 C   0  0  0  0  0  0  0  0  0  0  0  0
    4.7447   -1.5961    9.7135 N   0  3  0  0  0  0  0  0  0  0  0  0
    0.8765   -0.0514   -1.6471 C   0  0  0  0  0  0  0  0  0  0  0  0
    3.6398    1.9749   -0.2382 C   0  0  2  0  0  0  0  0  0  0  0  0
    4.5212    2.1671   -1.4700 C   0  0  2  0  0  0  0  0  0  0  0  0
    5.4360    3.3167   -1.2721 N   0  3  0  0  0  0  0  0  0  0  0  0
    3.6577    2.4155   -2.6995 C   0  0  1  0  0  0  0  0  0  0  0  0
    4.4840    2.5150   -3.8493 O   0  0  0  0  0  0  0  0  0  0  0  0
    2.6627    1.2691   -2.8652 C   0  0  2  0  0  0  0  0  0  0  0  0
    1.8068    1.5273   -3.9708 O   0  0  0  0  0  0  0  0  0  0  0  0
    0.0916   -0.1748   -0.3975 N   0  3  0  0  0  0  0  0  0  0  0  0
    1.8310    1.1286   -1.5918 C   0  0  2  0  0  0  0  0  0  0  0  0
    2.6951    0.9300   -0.4545 O   0  0  0  0  0  0  0  0  0  0  0  0
    0.4349    4.1551    3.3203 C   0  0  2  0  0  0  0  0  0  0  0  0
   -0.6854    4.0749    4.2856 N   0  3  0  0  0  0  0  0  0  0  0  0
   -0.1077    4.2394    1.8981 C   0  0  0  0  0  0  0  0  0  0  0  0
    1.0337    4.3201    0.8941 C   0  0  2  0  0  0  0  0  0  0  0  0
    0.4511    4.3997   -0.4380 N   0  3  0  0  0  0  0  0  0  0  0  0
    1.9262    3.0882    1.0254 C   0  0  1  0  0  0  0  0  0  0  0  0
    3.0193    3.1858    0.0917 O   0  0  0  0  0  0  0  0  0  0  0  0
    2.4820    2.9680    2.4511 C   0  0  2  0  0  0  0  0  0  0  0  0
    3.2319    1.7440    2.5692 O   0  0  0  0  0  0  0  0  0  0  0  0
    1.3616    2.9520    3.4879 C   0  0  1  0  0  0  0  0  0  0  0  0
    1.9233    2.9654    4.7937 O   0  0  0  0  0  0  0  0  0  0  0  0
  1  2  1  0  0  0  0
  3  2  1  1  0  0  0
  3  5  1  0  0  0  0
  3  4  1  0  0  0  0
  4  9  1  0  0  0  0
  5  7  1  0  0  0  0
  5  6  1  1  0  0  0
  7  9  1  0  0  0  0
  7  8  1  6  0  0  0
  9 40  1  1  0  0  0
 10  6  1  6  0  0  0
 10 11  1  0  0  0  0
 10 18  1  0  0  0  0
 11 13  1  0  0  0  0
 11 12  1  1  0  0  0
 13 15  1  0  0  0  0
 13 14  1  6  0  0  0
 15 17  1  0  0  0  0
 15 16  1  6  0  0  0
 17 19  1  1  0  0  0
 17 18  1  0  0  0  0
 19 20  1  0  0  0  0
 21 29  1  0  0  0  0
 22 23  1  0  0  0  0
 22 31  1  0  0  0  0
 22 38  1  6  0  0  0
 23 25  1  0  0  0  0
 23 24  1  1  0  0  0
 25 27  1  0  0  0  0
 25 26  1  6  0  0  0
 27 30  1  0  0  0  0
 27 28  1  6  0  0  0
 30 21  1  6  0  0  0
 30 31  1  0  0  0  0
 32 34  1  0  0  0  0
 32 41  1  0  0  0  0
 32 33  1  1  0  0  0
 34 35  1  0  0  0  0
 35 37  1  0  0  0  0
 35 36  1  6  0  0  0
 37 39  1  0  0  0  0
 37 38  1  6  0  0  0
 39 41  1  0  0  0  0
 39 40  1  6  0  0  0
 41 42  1  1  0  0  0
M  CHG  6  12   1  20   1  24   1  29   1  33   1  36   1
M  END
>  <CHROM.1>
164.39025715,-60.53683730,-104.58007383,-160.35212822,175.64339914,170.71057696
-19.02536755,65.60427035,-66.68631724,89.88986434,68.26062479,179.43750175
-172.80541102,165.89078258,-158.82132651,67.45988631,-63.64880809,-73.12236487
-51.31704347,-158.75048373,96.50031620,66.21081037,3.93448687,1.93759585
3.21431995,-1.15878192,0.35023474,-1.61289258

>  <Name>
1NEM.B

>  <RI>
0

>  <Rbt.Current_Directory>
/home/itssahil/PROJECTS/Mol_Feturizer/New_Systems/rnas/1nem

>  <Rbt.Executable>
rbdock ($Id: //depot/dev/client3/rdock/2013.1/src/exe/rbdock.cxx#4 $)

>  <Rbt.Library>
libRbt.so (2013.1, Build901 2013/11/27)

>  <Rbt.Parameter_File>
/export/apps/rDock/src/rDock_2013.1_src/data/scripts/dock_solv.prm

>  <Rbt.Receptor>
prm/pocket_docking_7.prm

>  <SCORE>
-22.0412

>  <SCORE.INTER>
-30.3119

>  <SCORE.INTER.CONST>
1

>  <SCORE.INTER.POLAR>
-5.16887

>  <SCORE.INTER.ROT>
9

>  <SCORE.INTER.SOLV>
26.3698

>  <SCORE.INTER.VDW>
-21.3683

>  <SCORE.INTER.norm>
-0.721711

>  <SCORE.INTRA>
8.23783

>  <SCORE.INTRA.DIHEDRAL>
3.30444

>  <SCORE.INTRA.DIHEDRAL.0>
22.4324

>  <SCORE.INTRA.POLAR>
1.68906

>  <SCORE.INTRA.POLAR.0>
-1.83749

>  <SCORE.INTRA.REPUL>
0.00265724

>  <SCORE.INTRA.REPUL.0>
0

>  <SCORE.INTRA.SOLV>
-6.52433

>  <SCORE.INTRA.SOLV.lig_0>
-160.638

>  <SCORE.INTRA.VDW>
4.09169

>  <SCORE.INTRA.VDW.0>
-7.61953

>  <SCORE.INTRA.norm>
0.196139

>  <SCORE.RESTR>
0.0328314

>  <SCORE.RESTR.CAVITY>
0.0328314

>  <SCORE.RESTR.norm>
0.0007817

>  <SCORE.SYSTEM>
0

>  <SCORE.SYSTEM.CONST>
0

>  <SCORE.SYSTEM.DIHEDRAL>
0

>  <SCORE.SYSTEM.SOLV>
0

>  <SCORE.SYSTEM.norm>
0

>  <SCORE.heavy>
42

>  <SCORE.norm>
-0.524791

>  <RMSD>
6.635

$$$$
1NEM.B
 OpenBabel11021811403D
libRbt.so/2013.1/901 2013/11/27
 42 45  0  0  0  0  0  0  0  0999 V2000
   -2.0981    3.3967   -2.2457 O   0  0  0  0  0  0  0  0  0  0  0  0
   -1.9975    2.2287   -1.4285 C   0  0  0  0  0  0  0  0  0  0  0  0
   -0.5969    2.0185   -0.8550 C   0  0  1  0  0  0  0  0  0  0  0  0
   -0.6324    1.1070    0.2393 O   0  0  0  0  0  0  0  0  0  0  0  0
    0.3903    1.3709   -1.8130 C   0  0  1  0  0  0  0  0  0  0  0  0
    0.7259    2.3476   -2.8014 O   0  0  0  0  0  0  0  0  0  0  0  0
    1.4804    1.0094   -0.8217 C   0  0  1  0  0  0  0  0  0  0  0  0
    2.1640    2.1649   -0.3250 O   0  0  0  0  0  0  0  0  0  0  0  0
    0.6065    0.3984    0.2800 C   0  0  2  0  0  0  0  0  0  0  0  0
    2.0143    2.2647   -3.3401 C   0  0  2  0  0  0  0  0  0  0  0  0
    2.9170    3.2993   -2.6544 C   0  0  2  0  0  0  0  0  0  0  0  0
    2.2981    4.6487   -2.7334 N   0  3  0  0  0  0  0  0  0  0  0  0
    4.3230    3.2849   -3.2630 C   0  0  1  0  0  0  0  0  0  0  0  0
    4.9933    2.0886   -2.8887 O   0  0  0  0  0  0  0  0  0  0  0  0
    4.2654    3.3853   -4.7904 C   0  0  2  0  0  0  0  0  0  0  0  0
    3.8072    4.6727   -5.1839 O   0  0  0  0  0  0  0  0  0  0  0  0
    3.3326    2.3100   -5.3406 C   0  0  1  0  0  0  0  0  0  0  0  0
    2.0264    2.4519   -4.7493 O   0  0  0  0  0  0  0  0  0  0  0  0
    3.1731    2.3702   -6.8495 C   0  0  0  0  0  0  0  0  0  0  0  0
    1.8101    2.7898   -7.2446 N   0  3  0  0  0  0  0  0  0  0  0  0
   -4.6588   -1.7992    4.7059 C   0  0  0  0  0  0  0  0  0  0  0  0
   -3.3718   -2.5368    1.3108 C   0  0  2  0  0  0  0  0  0  0  0  0
   -4.3794   -1.7850    0.4446 C   0  0  2  0  0  0  0  0  0  0  0  0
   -3.8184   -1.5482   -0.9070 N   0  3  0  0  0  0  0  0  0  0  0  0
   -4.7295   -0.4491    1.0864 C   0  0  1  0  0  0  0  0  0  0  0  0
   -5.7237    0.2048    0.3127 O   0  0  0  0  0  0  0  0  0  0  0  0
   -5.2386   -0.6825    2.5070 C   0  0  2  0  0  0  0  0  0  0  0  0
   -5.5022    0.5643    3.1375 O   0  0  0  0  0  0  0  0  0  0  0  0
   -5.9717   -2.4839    4.6827 N   0  3  0  0  0  0  0  0  0  0  0  0
   -4.1869   -1.4509    3.3050 C   0  0  2  0  0  0  0  0  0  0  0  0
   -3.8658   -2.6891    2.6389 O   0  0  0  0  0  0  0  0  0  0  0  0
    1.5544   -3.8110    2.0973 C   0  0  2  0  0  0  0  0  0  0  0  0
    2.7429   -4.6793    1.9335 N   0  3  0  0  0  0  0  0  0  0  0  0
    0.2838   -4.6517    2.0454 C   0  0  0  0  0  0  0  0  0  0  0  0
   -0.9471   -3.7713    2.2103 C   0  0  2  0  0  0  0  0  0  0  0  0
   -2.1210   -4.6309    2.1535 N   0  3  0  0  0  0  0  0  0  0  0  0
   -0.9856   -2.7229    1.1010 C   0  0  1  0  0  0  0  0  0  0  0  0
   -2.1378   -1.8763    1.2804 O   0  0  0  0  0  0  0  0  0  0  0  0
    0.2865   -1.8641    1.1190 C   0  0  2  0  0  0  0  0  0  0  0  0
    0.2660   -0.9576   -0.0002 O   0  0  0  0  0  0  0  0  0  0  0  0
    1.5433   -2.7253    1.0224 C   0  0  1  0  0  0  0  0  0  0  0  0
    2.6939   -1.9035    1.1676 O   0  0  0  0  0  0  0  0  0  0  0  0
  1  2  1  0  0  0  0
  3  2  1  6  0  0  0
  3  5  1  0  0  0  0
  3  4  1  0  0  0  0
  4  9  1  0  0  0  0
  5  7  1  0  0  0  0
  5  6  1  6  0  0  0
  7  9  1  0  0  0  0
  7  8  1  1  0  0  0
  9 40  1  6  0  0  0
 10  6  1  1  0  0  0
 10 11  1  0  0  0  0
 10 18  1  0  0  0  0
 11 13  1  0  0  0  0
 11 12  1  6  0  0  0
 13 15  1  0  0  0  0
 13 14  1  6  0  0  0
 15 17  1  0  0  0  0
 15 16  1  1  0  0  0
 17 19  1  6  0  0  0
 17 18  1  0  0  0  0
 19 20  1  0  0  0  0
 21 29  1  0  0  0  0
 22 23  1  0  0  0  0
 22 31  1  0  0  0  0
 22 38  1  1  0  0  0
 23 25  1  0  0  0  0
 23 24  1  6  0  0  0
 25 27  1  0  0  0  0
 25 26  1  6  0  0  0
 27 30  1  0  0  0  0
 27 28  1  1  0  0  0
 30 21  1  1  0  0  0
 30 31  1  0  0  0  0
 32 34  1  0  0  0  0
 32 41  1  0  0  0  0
 32 33  1  6  0  0  0
 34 35  1  0  0  0  0
 35 37  1  0  0  0  0
 35 36  1  6  0  0  0
 37 39  1  0  0  0  0
 37 38  1  1  0  0  0
 39 41  1  0  0  0  0
 39 40  1  6  0  0  0
 41 42  1  1  0  0  0
M  CHG  6  12   1  20   1  24   1  29   1  33   1  36   1
M  END
>  <CHROM.1>
169.02033987,162.74761894,149.04499519,-99.78907712,66.95602678,-105.54508959
-73.87166245,170.40602920,-175.52789927,-111.48119748,-21.12706587,52.19249538
-61.49393167,-135.03637349,75.84140738,-172.52962567,23.99948643,58.70365539
36.41361785,-57.22040309,133.80370391,60.15802975,-0.33475978,0.06303818
-0.48446333,0.89910513,0.28064418,-0.69035596

>  <Name>
1NEM.B

>  <RI>
0

>  <Rbt.Current_Directory>
/home/itssahil/PROJECTS/Mol_Feturizer/New_Systems/rnas/1nem

>  <Rbt.Executable>
rbdock ($Id: //depot/dev/client3/rdock/2013.1/src/exe/rbdock.cxx#4 $)

>  <Rbt.Library>
libRbt.so (2013.1, Build901 2013/11/27)

>  <Rbt.Parameter_File>
/export/apps/rDock/src/rDock_2013.1_src/data/scripts/dock_solv.prm

>  <Rbt.Receptor>
prm/pocket_docking_8.prm

>  <SCORE>
-33.4329

>  <SCORE.INTER>
-55.3494

>  <SCORE.INTER.CONST>
1

>  <SCORE.INTER.POLAR>
-9.25142

>  <SCORE.INTER.ROT>
9

>  <SCORE.INTER.SOLV>
33.9119

>  <SCORE.INTER.VDW>
-26.9655

>  <SCORE.INTER.norm>
-1.31784

>  <SCORE.INTRA>
21.9165

>  <SCORE.INTRA.DIHEDRAL>
23.1522

>  <SCORE.INTRA.DIHEDRAL.0>
22.4324

>  <SCORE.INTRA.POLAR>
-0.360275

>  <SCORE.INTRA.POLAR.0>
-1.83749

>  <SCORE.INTRA.REPUL>
0.253836

>  <SCORE.INTRA.REPUL.0>
0

>  <SCORE.INTRA.SOLV>
0.20582

>  <SCORE.INTRA.SOLV.lig_0>
-160.638

>  <SCORE.INTRA.VDW>
10.1932

>  <SCORE.INTRA.VDW.0>
-7.61953

>  <SCORE.INTRA.norm>
0.521821

>  <SCORE.RESTR>
0

>  <SCORE.RESTR.CAVITY>
0

>  <SCORE.RESTR.norm>
0

>  <SCORE.SYSTEM>
0

>  <SCORE.SYSTEM.CONST>
0

>  <SCORE.SYSTEM.DIHEDRAL>
0

>  <SCORE.SYSTEM.SOLV>
0

>  <SCORE.SYSTEM.norm>
0

>  <SCORE.heavy>
42

>  <SCORE.norm>
-0.796021

>  <RMSD>
6.689

$$$$
1NEM.B
 OpenBabel11021811403D
libRbt.so/2013.1/901 2013/11/27
 42 45  0  0  0  0  0  0  0  0999 V2000
    2.5040    3.0954    1.0045 O   0  0  0  0  0  0  0  0  0  0  0  0
    3.3696    2.8412   -0.1038 C   0  0  0  0  0  0  0  0  0  0  0  0
    2.9517    1.6199   -0.9214 C   0  0  1  0  0  0  0  0  0  0  0  0
    2.8586    0.4660   -0.0912 O   0  0  0  0  0  0  0  0  0  0  0  0
    1.5660    1.7142   -1.5398 C   0  0  1  0  0  0  0  0  0  0  0  0
    1.6433    2.6542   -2.6139 O   0  0  0  0  0  0  0  0  0  0  0  0
    1.3792    0.2591   -1.9264 C   0  0  1  0  0  0  0  0  0  0  0  0
    2.2325   -0.1262   -3.0092 O   0  0  0  0  0  0  0  0  0  0  0  0
    1.8517   -0.3955   -0.6228 C   0  0  2  0  0  0  0  0  0  0  0  0
    1.0680    3.9080   -2.3811 C   0  0  2  0  0  0  0  0  0  0  0  0
   -0.3569    3.7191   -1.8432 C   0  0  2  0  0  0  0  0  0  0  0  0
   -1.1346    2.8406   -2.7563 N   0  3  0  0  0  0  0  0  0  0  0  0
   -1.0456    5.0720   -1.6365 C   0  0  1  0  0  0  0  0  0  0  0  0
   -0.4545    5.7452   -0.5330 O   0  0  0  0  0  0  0  0  0  0  0  0
   -0.9359    5.9455   -2.8901 C   0  0  2  0  0  0  0  0  0  0  0  0
   -1.7162    5.3965   -3.9445 O   0  0  0  0  0  0  0  0  0  0  0  0
    0.5249    6.0445   -3.3204 C   0  0  1  0  0  0  0  0  0  0  0  0
    1.0551    4.7238   -3.5454 O   0  0  0  0  0  0  0  0  0  0  0  0
    0.7214    6.8512   -4.5919 C   0  0  0  0  0  0  0  0  0  0  0  0
    0.0999    8.1908   -4.4977 N   0  3  0  0  0  0  0  0  0  0  0  0
   -2.9488    0.3124    0.2104 C   0  0  0  0  0  0  0  0  0  0  0  0
   -1.3867   -2.8099    1.4505 C   0  0  2  0  0  0  0  0  0  0  0  0
   -2.5093   -3.8163    1.2096 C   0  0  2  0  0  0  0  0  0  0  0  0
   -1.9673   -5.1959    1.1947 N   0  3  0  0  0  0  0  0  0  0  0  0
   -3.1949   -3.5294   -0.1196 C   0  0  1  0  0  0  0  0  0  0  0  0
   -4.2847   -4.4215   -0.2955 O   0  0  0  0  0  0  0  0  0  0  0  0
   -3.6901   -2.0850   -0.1379 C   0  0  2  0  0  0  0  0  0  0  0  0
   -4.2699   -1.7883   -1.4018 O   0  0  0  0  0  0  0  0  0  0  0  0
   -3.7747    0.5649    1.4133 N   0  3  0  0  0  0  0  0  0  0  0  0
   -2.5180   -1.1415    0.1251 C   0  0  2  0  0  0  0  0  0  0  0  0
   -1.8830   -1.4761    1.3760 O   0  0  0  0  0  0  0  0  0  0  0  0
    2.7654   -1.9381    3.2153 C   0  0  2  0  0  0  0  0  0  0  0  0
    4.1195   -1.6422    3.7371 N   0  3  0  0  0  0  0  0  0  0  0  0
    2.7012   -3.3783    2.7195 C   0  0  0  0  0  0  0  0  0  0  0  0
    1.3146   -3.6961    2.1777 C   0  0  2  0  0  0  0  0  0  0  0  0
    1.3194   -5.0797    1.7241 N   0  3  0  0  0  0  0  0  0  0  0  0
    0.9779   -2.7477    1.0294 C   0  0  1  0  0  0  0  0  0  0  0  0
   -0.3467   -3.0365    0.5411 O   0  0  0  0  0  0  0  0  0  0  0  0
    1.0434   -1.2860    1.4935 C   0  0  2  0  0  0  0  0  0  0  0  0
    0.8243   -0.4172    0.3657 O   0  0  0  0  0  0  0  0  0  0  0  0
    2.4026   -0.9542    2.1041 C   0  0  1  0  0  0  0  0  0  0  0  0
    2.3767    0.3659    2.6306 O   0  0  0  0  0  0  0  0  0  0  0  0
  1  2  1  0  0  0  0
  3  2  1  1  0  0  0
  3  5  1  0  0  0  0
  3  4  1  0  0  0  0
  4  9  1  0  0  0  0
  5  7  1  0  0  0  0
  5  6  1  6  0  0  0
  7  9  1  0  0  0  0
  7  8  1  6  0  0  0
  9 40  1  1  0  0  0
 10  6  1  6  0  0  0
 10 11  1  0  0  0  0
 10 18  1  0  0  0  0
 11 13  1  0  0  0  0
 11 12  1  6  0  0  0
 13 15  1  0  0  0  0
 13 14  1  1  0  0  0
 15 17  1  0  0  0  0
 15 16  1  6  0  0  0
 17 19  1  6  0  0  0
 17 18  1  0  0  0  0
 19 20  1  0  0  0  0
 21 29  1  0  0  0  0
 22 23  1  0  0  0  0
 22 31  1  0  0  0  0
 22 38  1  6  0  0  0
 23 25  1  0  0  0  0
 23 24  1  6  0  0  0
 25 27  1  0  0  0  0
 25 26  1  1  0  0  0
 27 30  1  0  0  0  0
 27 28  1  6  0  0  0
 30 21  1  1  0  0  0
 30 31  1  0  0  0  0
 32 34  1  0  0  0  0
 32 41  1  0  0  0  0
 32 33  1  6  0  0  0
 34 35  1  0  0  0  0
 35 37  1  0  0  0  0
 35 36  1  6  0  0  0
 37 39  1  0  0  0  0
 37 38  1  1  0  0  0
 39 41  1  0  0  0  0
 39 40  1  6  0  0  0
 41 42  1  1  0  0  0
M  CHG  6  12   1  20   1  24   1  29   1  33   1  36   1
M  END
>  <CHROM.1>
-59.87199674,-55.63131970,-105.67010066,-50.35712855,62.88529067,-80.05530928
169.80420510,58.05294982,70.48782618,53.37615103,-71.31153244,67.88612328
-11.39730973,-147.45827461,168.82008133,61.43307900,171.28643779,53.29358767
72.79167714,64.41477367,-68.44950758,67.56339685,0.10389538,0.52484273,-0.36487562
-1.49369431,0.31536887,2.64600930

>  <Name>
1NEM.B

>  <RI>
0

>  <Rbt.Current_Directory>
/home/itssahil/PROJECTS/Mol_Feturizer/New_Systems/rnas/1nem

>  <Rbt.Executable>
rbdock ($Id: //depot/dev/client3/rdock/2013.1/src/exe/rbdock.cxx#4 $)

>  <Rbt.Library>
libRbt.so (2013.1, Build901 2013/11/27)

>  <Rbt.Parameter_File>
/export/apps/rDock/src/rDock_2013.1_src/data/scripts/dock_solv.prm

>  <Rbt.Receptor>
prm/pocket_docking_7.prm

>  <SCORE>
-36.9692

>  <SCORE.INTER>
-45.237

>  <SCORE.INTER.CONST>
1

>  <SCORE.INTER.POLAR>
-7.02155

>  <SCORE.INTER.ROT>
9

>  <SCORE.INTER.SOLV>
40.8944

>  <SCORE.INTER.VDW>
-29.9843

>  <SCORE.INTER.norm>
-1.07707

>  <SCORE.INTRA>
8.26782

>  <SCORE.INTRA.DIHEDRAL>
-2.74049

>  <SCORE.INTRA.DIHEDRAL.0>
22.4324

>  <SCORE.INTRA.POLAR>
1.32555

>  <SCORE.INTRA.POLAR.0>
-1.83749

>  <SCORE.INTRA.REPUL>
0

>  <SCORE.INTRA.REPUL.0>
0

>  <SCORE.INTRA.SOLV>
0.158304

>  <SCORE.INTRA.SOLV.lig_0>
-160.638

>  <SCORE.INTRA.VDW>
5.05202

>  <SCORE.INTRA.VDW.0>
-7.61953

>  <SCORE.INTRA.norm>
0.196853

>  <SCORE.RESTR>
0

>  <SCORE.RESTR.CAVITY>
0

>  <SCORE.RESTR.norm>
0

>  <SCORE.SYSTEM>
0

>  <SCORE.SYSTEM.CONST>
0

>  <SCORE.SYSTEM.DIHEDRAL>
0

>  <SCORE.SYSTEM.SOLV>
0

>  <SCORE.SYSTEM.norm>
0

>  <SCORE.heavy>
42

>  <SCORE.norm>
-0.880219

>  <RMSD>
6.728

$$$$
1NEM.B
 OpenBabel11021811403D
libRbt.so/2013.1/901 2013/11/27
 42 45  0  0  0  0  0  0  0  0999 V2000
   -3.0373   -3.8486   -0.9459 O   0  0  0  0  0  0  0  0  0  0  0  0
   -3.3151   -2.4565   -1.1103 C   0  0  0  0  0  0  0  0  0  0  0  0
   -3.5375   -1.7302    0.2155 C   0  0  1  0  0  0  0  0  0  0  0  0
   -4.6551   -2.2780    0.9085 O   0  0  0  0  0  0  0  0  0  0  0  0
   -2.4032   -1.8766    1.2172 C   0  0  1  0  0  0  0  0  0  0  0  0
   -1.3108   -1.0876    0.7403 O   0  0  0  0  0  0  0  0  0  0  0  0
   -3.1146   -1.3680    2.4570 C   0  0  1  0  0  0  0  0  0  0  0  0
   -3.3642    0.0402    2.3974 O   0  0  0  0  0  0  0  0  0  0  0  0
   -4.4289   -2.1442    2.3119 C   0  0  2  0  0  0  0  0  0  0  0  0
   -0.0699   -1.3211    1.3427 C   0  0  2  0  0  0  0  0  0  0  0  0
    0.9789   -0.3910    0.7179 C   0  0  2  0  0  0  0  0  0  0  0  0
    0.9717   -0.5348   -0.7618 N   0  3  0  0  0  0  0  0  0  0  0  0
    2.3675   -0.6618    1.3062 C   0  0  1  0  0  0  0  0  0  0  0  0
    2.4117   -0.2108    2.6535 O   0  0  0  0  0  0  0  0  0  0  0  0
    2.7093   -2.1540    1.2524 C   0  0  2  0  0  0  0  0  0  0  0  0
    2.8941   -2.5701   -0.0948 O   0  0  0  0  0  0  0  0  0  0  0  0
    1.5864   -2.9614    1.8973 C   0  0  1  0  0  0  0  0  0  0  0  0
    0.3405   -2.6777    1.2316 O   0  0  0  0  0  0  0  0  0  0  0  0
    1.8175   -4.4612    1.8397 C   0  0  0  0  0  0  0  0  0  0  0  0
    0.5847   -5.1967    1.4806 N   0  3  0  0  0  0  0  0  0  0  0  0
   -7.2852   -1.9868    1.8001 C   0  0  0  0  0  0  0  0  0  0  0  0
   -7.3193   -5.3786    3.2907 C   0  0  2  0  0  0  0  0  0  0  0  0
   -8.1592   -6.1406    2.2685 C   0  0  2  0  0  0  0  0  0  0  0  0
   -7.9296   -7.5991    2.4007 N   0  3  0  0  0  0  0  0  0  0  0  0
   -7.7962   -5.6988    0.8571 C   0  0  1  0  0  0  0  0  0  0  0  0
   -8.6366   -6.3566   -0.0786 O   0  0  0  0  0  0  0  0  0  0  0  0
   -7.9602   -4.1853    0.7374 C   0  0  2  0  0  0  0  0  0  0  0  0
   -7.5571   -3.7558   -0.5566 O   0  0  0  0  0  0  0  0  0  0  0  0
   -7.3458   -1.4479    3.1781 N   0  3  0  0  0  0  0  0  0  0  0  0
   -7.1055   -3.4949    1.7986 C   0  0  2  0  0  0  0  0  0  0  0  0
   -7.4639   -3.9722    3.1115 O   0  0  0  0  0  0  0  0  0  0  0  0
   -4.6536   -3.5360    6.5499 C   0  0  2  0  0  0  0  0  0  0  0  0
   -3.7722   -3.0028    7.6140 N   0  3  0  0  0  0  0  0  0  0  0  0
   -4.7830   -5.0485    6.6898 C   0  0  0  0  0  0  0  0  0  0  0  0
   -5.6851   -5.6111    5.6003 C   0  0  2  0  0  0  0  0  0  0  0  0
   -5.7681   -7.0524    5.7901 N   0  3  0  0  0  0  0  0  0  0  0  0
   -5.1090   -5.2750    4.2268 C   0  0  1  0  0  0  0  0  0  0  0  0
   -5.9830   -5.7862    3.2015 O   0  0  0  0  0  0  0  0  0  0  0  0
   -4.9563   -3.7571    4.0570 C   0  0  2  0  0  0  0  0  0  0  0  0
   -4.3155   -3.4802    2.7971 O   0  0  0  0  0  0  0  0  0  0  0  0
   -4.1101   -3.1524    5.1745 C   0  0  1  0  0  0  0  0  0  0  0  0
   -4.0987   -1.7367    5.0479 O   0  0  0  0  0  0  0  0  0  0  0  0
  1  2  1  0  0  0  0
  3  2  1  6  0  0  0
  3  5  1  0  0  0  0
  3  4  1  0  0  0  0
  4  9  1  0  0  0  0
  5  7  1  0  0  0  0
  5  6  1  6  0  0  0
  7  9  1  0  0  0  0
  7  8  1  6  0  0  0
  9 40  1  1  0  0  0
 10  6  1  6  0  0  0
 10 11  1  0  0  0  0
 10 18  1  0  0  0  0
 11 13  1  0  0  0  0
 11 12  1  6  0  0  0
 13 15  1  0  0  0  0
 13 14  1  1  0  0  0
 15 17  1  0  0  0  0
 15 16  1  6  0  0  0
 17 19  1  6  0  0  0
 17 18  1  0  0  0  0
 19 20  1  0  0  0  0
 21 29  1  0  0  0  0
 22 23  1  0  0  0  0
 22 31  1  0  0  0  0
 22 38  1  6  0  0  0
 23 25  1  0  0  0  0
 23 24  1  6  0  0  0
 25 27  1  0  0  0  0
 25 26  1  6  0  0  0
 27 30  1  0  0  0  0
 27 28  1  6  0  0  0
 30 21  1  1  0  0  0
 30 31  1  0  0  0  0
 32 34  1  0  0  0  0
 32 41  1  0  0  0  0
 32 33  1  1  0  0  0
 34 35  1  0  0  0  0
 35 37  1  0  0  0  0
 35 36  1  1  0  0  0
 37 39  1  0  0  0  0
 37 38  1  6  0  0  0
 39 41  1  0  0  0  0
 39 40  1  6  0  0  0
 41 42  1  6  0  0  0
M  CHG  6  12   1  20   1  24   1  29   1  33   1  36   1
M  END
>  <CHROM.1>
-157.19708346,-61.05856425,-165.76057243,-179.79011159,-31.04126304,-139.28808616
-77.27834897,56.79323085,58.59446325,-137.26862410,109.53898211,138.89294483
-168.21407274,-172.23537434,-42.60207722,68.67310463,-166.82729392,55.82357573
65.65220941,54.29538932,163.11796123,-41.05106942,-3.57701505,-3.27501878
2.28030126,0.27752355,-0.33523108,-1.38580298

>  <Name>
1NEM.B

>  <RI>
0

>  <Rbt.Current_Directory>
/home/itssahil/PROJECTS/Mol_Feturizer/New_Systems/rnas/1nem

>  <Rbt.Executable>
rbdock ($Id: //depot/dev/client3/rdock/2013.1/src/exe/rbdock.cxx#4 $)

>  <Rbt.Library>
libRbt.so (2013.1, Build901 2013/11/27)

>  <Rbt.Parameter_File>
/export/apps/rDock/src/rDock_2013.1_src/data/scripts/dock_solv.prm

>  <Rbt.Receptor>
prm/blind_docking_100.prm

>  <SCORE>
-16.3625

>  <SCORE.INTER>
-31.0368

>  <SCORE.INTER.CONST>
1

>  <SCORE.INTER.POLAR>
-6.04573

>  <SCORE.INTER.ROT>
9

>  <SCORE.INTER.SOLV>
38.7244

>  <SCORE.INTER.VDW>
-23.0469

>  <SCORE.INTER.norm>
-0.738972

>  <SCORE.INTRA>
13.2502

>  <SCORE.INTRA.DIHEDRAL>
8.27378

>  <SCORE.INTRA.DIHEDRAL.0>
22.4324

>  <SCORE.INTRA.POLAR>
0.909869

>  <SCORE.INTRA.POLAR.0>
-1.83749

>  <SCORE.INTRA.REPUL>
0.0538544

>  <SCORE.INTRA.REPUL.0>
0

>  <SCORE.INTRA.SOLV>
-0.484231

>  <SCORE.INTRA.SOLV.lig_0>
-160.638

>  <SCORE.INTRA.VDW>
5.99255

>  <SCORE.INTRA.VDW.0>
-7.61953

>  <SCORE.INTRA.norm>
0.31548

>  <SCORE.RESTR>
1.42412

>  <SCORE.RESTR.CAVITY>
1.42412

>  <SCORE.RESTR.norm>
0.0339076

>  <SCORE.SYSTEM>
0

>  <SCORE.SYSTEM.CONST>
0

>  <SCORE.SYSTEM.DIHEDRAL>
0

>  <SCORE.SYSTEM.SOLV>
0

>  <SCORE.SYSTEM.norm>
0

>  <SCORE.heavy>
42

>  <SCORE.norm>
-0.389584

>  <RMSD>
6.729

$$$$
1NEM.B
 OpenBabel11021811403D
libRbt.so/2013.1/901 2013/11/27
 42 45  0  0  0  0  0  0  0  0999 V2000
   -0.0741   -5.0342    1.3012 O   0  0  0  0  0  0  0  0  0  0  0  0
   -0.7372   -4.1921    0.3561 C   0  0  0  0  0  0  0  0  0  0  0  0
   -1.6855   -3.1886    1.0108 C   0  0  1  0  0  0  0  0  0  0  0  0
   -2.8969   -3.8251    1.4070 O   0  0  0  0  0  0  0  0  0  0  0  0
   -1.1721   -2.5836    2.3077 C   0  0  1  0  0  0  0  0  0  0  0  0
   -0.1252   -1.6723    1.9661 O   0  0  0  0  0  0  0  0  0  0  0  0
   -2.4652   -1.9703    2.8115 C   0  0  1  0  0  0  0  0  0  0  0  0
   -2.8725   -0.8460    2.0247 O   0  0  0  0  0  0  0  0  0  0  0  0
   -3.4036   -3.1570    2.5626 C   0  0  2  0  0  0  0  0  0  0  0  0
    1.0224   -2.2343    1.3965 C   0  0  2  0  0  0  0  0  0  0  0  0
    2.1057   -2.3745    2.4746 C   0  0  2  0  0  0  0  0  0  0  0  0
    2.3254   -1.0686    3.1503 N   0  3  0  0  0  0  0  0  0  0  0  0
    3.4031   -2.9271    1.8754 C   0  0  1  0  0  0  0  0  0  0  0  0
    3.2246   -4.2939    1.5282 O   0  0  0  0  0  0  0  0  0  0  0  0
    3.8216   -2.1322    0.6348 C   0  0  2  0  0  0  0  0  0  0  0  0
    4.2245   -0.8189    1.0023 O   0  0  0  0  0  0  0  0  0  0  0  0
    2.6562   -2.0633   -0.3480 C   0  0  1  0  0  0  0  0  0  0  0  0
    1.5106   -1.4751    0.2981 O   0  0  0  0  0  0  0  0  0  0  0  0
    2.9663   -1.2444   -1.5887 C   0  0  0  0  0  0  0  0  0  0  0  0
    3.4506    0.1119   -1.2485 N   0  3  0  0  0  0  0  0  0  0  0  0
   -8.1248   -7.6619    2.7309 C   0  0  0  0  0  0  0  0  0  0  0  0
   -6.0807   -4.6197    2.1886 C   0  0  2  0  0  0  0  0  0  0  0  0
   -6.8976   -3.9038    1.1158 C   0  0  2  0  0  0  0  0  0  0  0  0
   -6.5358   -2.4670    1.0687 N   0  3  0  0  0  0  0  0  0  0  0  0
   -8.3854   -4.0398    1.4111 C   0  0  1  0  0  0  0  0  0  0  0  0
   -9.1350   -3.4379    0.3670 O   0  0  0  0  0  0  0  0  0  0  0  0
   -8.7489   -5.5179    1.5343 C   0  0  2  0  0  0  0  0  0  0  0  0
  -10.1219   -5.6513    1.8784 O   0  0  0  0  0  0  0  0  0  0  0  0
   -7.0437   -8.3289    3.4919 N   0  3  0  0  0  0  0  0  0  0  0  0
   -7.8824   -6.1673    2.6116 C   0  0  2  0  0  0  0  0  0  0  0  0
   -6.4859   -5.9812    2.3038 O   0  0  0  0  0  0  0  0  0  0  0  0
   -4.3796   -4.3617    7.2210 C   0  0  2  0  0  0  0  0  0  0  0  0
   -3.7116   -4.9809    8.3888 N   0  3  0  0  0  0  0  0  0  0  0  0
   -5.7209   -5.0404    6.9675 C   0  0  0  0  0  0  0  0  0  0  0  0
   -6.4184   -4.4151    5.7676 C   0  0  2  0  0  0  0  0  0  0  0  0
   -7.6877   -5.1037    5.5808 N   0  3  0  0  0  0  0  0  0  0  0  0
   -5.5373   -4.5516    4.5280 C   0  0  1  0  0  0  0  0  0  0  0  0
   -6.1919   -3.9327    3.4034 O   0  0  0  0  0  0  0  0  0  0  0  0
   -4.1727   -3.8860    4.7540 C   0  0  2  0  0  0  0  0  0  0  0  0
   -3.3312   -4.1227    3.6092 O   0  0  0  0  0  0  0  0  0  0  0  0
   -3.4763   -4.4460    5.9917 C   0  0  1  0  0  0  0  0  0  0  0  0
   -2.2795   -3.7179    6.2328 O   0  0  0  0  0  0  0  0  0  0  0  0
  1  2  1  0  0  0  0
  3  2  1  1  0  0  0
  3  5  1  0  0  0  0
  3  4  1  0  0  0  0
  4  9  1  0  0  0  0
  5  7  1  0  0  0  0
  5  6  1  6  0  0  0
  7  9  1  0  0  0  0
  7  8  1  6  0  0  0
  9 40  1  1  0  0  0
 10  6  1  1  0  0  0
 10 11  1  0  0  0  0
 10 18  1  0  0  0  0
 11 13  1  0  0  0  0
 11 12  1  6  0  0  0
 13 15  1  0  0  0  0
 13 14  1  6  0  0  0
 15 17  1  0  0  0  0
 15 16  1  1  0  0  0
 17 19  1  6  0  0  0
 17 18  1  0  0  0  0
 19 20  1  0  0  0  0
 21 29  1  0  0  0  0
 22 23  1  0  0  0  0
 22 31  1  0  0  0  0
 22 38  1  1  0  0  0
 23 25  1  0  0  0  0
 23 24  1  1  0  0  0
 25 27  1  0  0  0  0
 25 26  1  6  0  0  0
 27 30  1  0  0  0  0
 27 28  1  1  0  0  0
 30 21  1  6  0  0  0
 30 31  1  0  0  0  0
 32 34  1  0  0  0  0
 32 41  1  0  0  0  0
 32 33  1  1  0  0  0
 34 35  1  0  0  0  0
 35 37  1  0  0  0  0
 35 36  1  6  0  0  0
 37 39  1  0  0  0  0
 37 38  1  6  0  0  0
 39 41  1  0  0  0  0
 39 40  1  6  0  0  0
 41 42  1  1  0  0  0
M  CHG  6  12   1  20   1  24   1  29   1  33   1  36   1
M  END
>  <CHROM.1>
-165.10840172,-77.17781562,-65.03482511,-99.86473783,-177.14065255,-159.78976041
-176.77074855,162.65326220,67.48375651,-53.76470858,40.57047808,164.37922557
-157.43856182,176.09830167,-54.56629815,-157.32256381,78.73043244,-168.63296719
47.18448065,-139.87103583,89.58803808,156.57982795,-2.91503126,-3.63856178
2.56805365,0.31206373,-0.26599427,-1.33204626

>  <Name>
1NEM.B

>  <RI>
0

>  <Rbt.Current_Directory>
/home/itssahil/PROJECTS/Mol_Feturizer/New_Systems/rnas/1nem

>  <Rbt.Executable>
rbdock ($Id: //depot/dev/client3/rdock/2013.1/src/exe/rbdock.cxx#4 $)

>  <Rbt.Library>
libRbt.so (2013.1, Build901 2013/11/27)

>  <Rbt.Parameter_File>
/export/apps/rDock/src/rDock_2013.1_src/data/scripts/dock_solv.prm

>  <Rbt.Receptor>
prm/blind_docking_100.prm

>  <SCORE>
23.2394

>  <SCORE.INTER>
11.2999

>  <SCORE.INTER.CONST>
1

>  <SCORE.INTER.POLAR>
-6.24939

>  <SCORE.INTER.ROT>
9

>  <SCORE.INTER.SOLV>
34.1548

>  <SCORE.INTER.VDW>
7.37964

>  <SCORE.INTER.norm>
0.269046

>  <SCORE.INTRA>
8.647

>  <SCORE.INTRA.DIHEDRAL>
8.45855

>  <SCORE.INTRA.DIHEDRAL.0>
22.4324

>  <SCORE.INTRA.POLAR>
0.472193

>  <SCORE.INTRA.POLAR.0>
-1.83749

>  <SCORE.INTRA.REPUL>
0.00868425

>  <SCORE.INTRA.REPUL.0>
0

>  <SCORE.INTRA.SOLV>
1.30085

>  <SCORE.INTRA.SOLV.lig_0>
-160.638

>  <SCORE.INTRA.VDW>
2.11843

>  <SCORE.INTRA.VDW.0>
-7.61953

>  <SCORE.INTRA.norm>
0.205881

>  <SCORE.RESTR>
3.29249

>  <SCORE.RESTR.CAVITY>
3.29249

>  <SCORE.RESTR.norm>
0.0783926

>  <SCORE.SYSTEM>
0

>  <SCORE.SYSTEM.CONST>
0

>  <SCORE.SYSTEM.DIHEDRAL>
0

>  <SCORE.SYSTEM.SOLV>
0

>  <SCORE.SYSTEM.norm>
0

>  <SCORE.heavy>
42

>  <SCORE.norm>
0.55332

>  <RMSD>
6.735

$$$$
1NEM.B
 OpenBabel11021811403D
libRbt.so/2013.1/901 2013/11/27
 42 45  0  0  0  0  0  0  0  0999 V2000
   -2.6201   -4.3275   -0.5042 O   0  0  0  0  0  0  0  0  0  0  0  0
   -2.0577   -4.7305    0.7462 C   0  0  0  0  0  0  0  0  0  0  0  0
   -2.4608   -3.8195    1.9048 C   0  0  1  0  0  0  0  0  0  0  0  0
   -3.8786   -3.7072    1.9873 O   0  0  0  0  0  0  0  0  0  0  0  0
   -2.0737   -4.3352    3.2817 C   0  0  1  0  0  0  0  0  0  0  0  0
   -0.6564   -4.1957    3.4044 O   0  0  0  0  0  0  0  0  0  0  0  0
   -2.9210   -3.4056    4.1300 C   0  0  1  0  0  0  0  0  0  0  0  0
   -2.4394   -2.0578    4.1005 O   0  0  0  0  0  0  0  0  0  0  0  0
   -4.2396   -3.5124    3.3549 C   0  0  2  0  0  0  0  0  0  0  0  0
   -0.0735   -3.1474    2.6844 C   0  0  2  0  0  0  0  0  0  0  0  0
    0.1422   -3.5903    1.2309 C   0  0  2  0  0  0  0  0  0  0  0  0
    0.9044   -4.8662    1.1940 N   0  3  0  0  0  0  0  0  0  0  0  0
    0.8396   -2.4908    0.4235 C   0  0  1  0  0  0  0  0  0  0  0  0
   -0.0569   -1.4069    0.2187 O   0  0  0  0  0  0  0  0  0  0  0  0
    2.0961   -1.9896    1.1422 C   0  0  2  0  0  0  0  0  0  0  0  0
    3.0957   -3.0009    1.1525 O   0  0  0  0  0  0  0  0  0  0  0  0
    1.7444   -1.5904    2.5725 C   0  0  1  0  0  0  0  0  0  0  0  0
    1.1522   -2.7111    3.2575 O   0  0  0  0  0  0  0  0  0  0  0  0
    2.9462   -1.1303    3.3787 C   0  0  0  0  0  0  0  0  0  0  0  0
    3.7765   -2.2686    3.8312 N   0  3  0  0  0  0  0  0  0  0  0  0
   -6.5676   -1.0637    3.8102 C   0  0  0  0  0  0  0  0  0  0  0  0
   -6.5289   -3.0314    0.6711 C   0  0  2  0  0  0  0  0  0  0  0  0
   -5.7426   -2.1012   -0.2494 C   0  0  2  0  0  0  0  0  0  0  0  0
   -5.2036   -2.8577   -1.4047 N   0  3  0  0  0  0  0  0  0  0  0  0
   -4.5920   -1.4579    0.5131 C   0  0  1  0  0  0  0  0  0  0  0  0
   -3.9170   -0.5378   -0.3309 O   0  0  0  0  0  0  0  0  0  0  0  0
   -5.1348   -0.7390    1.7462 C   0  0  2  0  0  0  0  0  0  0  0  0
   -4.0600   -0.1944    2.5010 O   0  0  0  0  0  0  0  0  0  0  0  0
   -6.7643   -2.0243    4.9199 N   0  3  0  0  0  0  0  0  0  0  0  0
   -5.9201   -1.7268    2.6069 C   0  0  2  0  0  0  0  0  0  0  0  0
   -6.9737   -2.3325    1.8307 O   0  0  0  0  0  0  0  0  0  0  0  0
   -8.5322   -5.9239    3.6643 C   0  0  2  0  0  0  0  0  0  0  0  0
   -9.2187   -6.9404    4.4943 N   0  3  0  0  0  0  0  0  0  0  0  0
   -8.5468   -6.3501    2.2007 C   0  0  0  0  0  0  0  0  0  0  0  0
   -7.8421   -5.3149    1.3352 C   0  0  2  0  0  0  0  0  0  0  0  0
   -7.8920   -5.7784   -0.0442 N   0  3  0  0  0  0  0  0  0  0  0  0
   -6.3979   -5.1474    1.8015 C   0  0  1  0  0  0  0  0  0  0  0  0
   -5.7464   -4.1460    0.9958 O   0  0  0  0  0  0  0  0  0  0  0  0
   -6.3474   -4.7275    3.2771 C   0  0  2  0  0  0  0  0  0  0  0  0
   -4.9753   -4.6802    3.7129 O   0  0  0  0  0  0  0  0  0  0  0  0
   -7.1041   -5.7126    4.1644 C   0  0  1  0  0  0  0  0  0  0  0  0
   -7.1373   -5.2213    5.4978 O   0  0  0  0  0  0  0  0  0  0  0  0
  1  2  1  0  0  0  0
  3  2  1  6  0  0  0
  3  5  1  0  0  0  0
  3  4  1  0  0  0  0
  4  9  1  0  0  0  0
  5  7  1  0  0  0  0
  5  6  1  1  0  0  0
  7  9  1  0  0  0  0
  7  8  1  6  0  0  0
  9 40  1  1  0  0  0
 10  6  1  1  0  0  0
 10 11  1  0  0  0  0
 10 18  1  0  0  0  0
 11 13  1  0  0  0  0
 11 12  1  1  0  0  0
 13 15  1  0  0  0  0
 13 14  1  1  0  0  0
 15 17  1  0  0  0  0
 15 16  1  1  0  0  0
 17 19  1  1  0  0  0
 17 18  1  0  0  0  0
 19 20  1  0  0  0  0
 21 29  1  0  0  0  0
 22 23  1  0  0  0  0
 22 31  1  0  0  0  0
 22 38  1  1  0  0  0
 23 25  1  0  0  0  0
 23 24  1  6  0  0  0
 25 27  1  0  0  0  0
 25 26  1  6  0  0  0
 27 30  1  0  0  0  0
 27 28  1  1  0  0  0
 30 21  1  1  0  0  0
 30 31  1  0  0  0  0
 32 34  1  0  0  0  0
 32 41  1  0  0  0  0
 32 33  1  1  0  0  0
 34 35  1  0  0  0  0
 35 37  1  0  0  0  0
 35 36  1  6  0  0  0
 37 39  1  0  0  0  0
 37 38  1  6  0  0  0
 39 41  1  0  0  0  0
 39 40  1  1  0  0  0
 41 42  1  1  0  0  0
M  CHG  6  12   1  20   1  24   1  29   1  33   1  36   1
M  END
>  <CHROM.1>
71.10631481,54.35392768,29.48783413,-82.13319826,91.18862456,-78.80587352
42.13932613,71.84971097,156.29643643,-77.04134274,-48.15468791,-153.57217490
-86.85181746,-176.58254473,62.61871541,14.62276780,75.90553697,-174.63473915
65.66395324,39.63098879,80.00623775,-48.12376741,-3.49363557,-3.33608168
2.16530803,0.16908893,-0.17350651,-1.07843268

>  <Name>
1NEM.B

>  <RI>
0

>  <Rbt.Current_Directory>
/home/itssahil/PROJECTS/Mol_Feturizer/New_Systems/rnas/1nem

>  <Rbt.Executable>
rbdock ($Id: //depot/dev/client3/rdock/2013.1/src/exe/rbdock.cxx#4 $)

>  <Rbt.Library>
libRbt.so (2013.1, Build901 2013/11/27)

>  <Rbt.Parameter_File>
/export/apps/rDock/src/rDock_2013.1_src/data/scripts/dock_solv.prm

>  <Rbt.Receptor>
prm/blind_docking_20.prm

>  <SCORE>
-2.59563

>  <SCORE.INTER>
-40.9569

>  <SCORE.INTER.CONST>
1

>  <SCORE.INTER.POLAR>
-8.0737

>  <SCORE.INTER.ROT>
9

>  <SCORE.INTER.SOLV>
50.0853

>  <SCORE.INTER.VDW>
-26.6874

>  <SCORE.INTER.norm>
-0.975165

>  <SCORE.INTRA>
32.9064

>  <SCORE.INTRA.DIHEDRAL>
10.4826

>  <SCORE.INTRA.DIHEDRAL.0>
22.4324

>  <SCORE.INTRA.POLAR>
-1.06781

>  <SCORE.INTRA.POLAR.0>
-1.83749

>  <SCORE.INTRA.REPUL>
0.492027

>  <SCORE.INTRA.REPUL.0>
0

>  <SCORE.INTRA.SOLV>
9.07041

>  <SCORE.INTRA.SOLV.lig_0>
-160.638

>  <SCORE.INTRA.VDW>
24.3003

>  <SCORE.INTRA.VDW.0>
-7.61953

>  <SCORE.INTRA.norm>
0.783486

>  <SCORE.RESTR>
5.45489

>  <SCORE.RESTR.CAVITY>
5.45489

>  <SCORE.RESTR.norm>
0.129878

>  <SCORE.SYSTEM>
0

>  <SCORE.SYSTEM.CONST>
0

>  <SCORE.SYSTEM.DIHEDRAL>
0

>  <SCORE.SYSTEM.SOLV>
0

>  <SCORE.SYSTEM.norm>
0

>  <SCORE.heavy>
42

>  <SCORE.norm>
-0.0618008

>  <RMSD>
6.753

$$$$
1NEM.B
 OpenBabel11021811403D
libRbt.so/2013.1/901 2013/11/27
 42 45  0  0  0  0  0  0  0  0999 V2000
   -4.6278   -3.2867   -0.7461 O   0  0  0  0  0  0  0  0  0  0  0  0
   -3.6475   -2.2524   -0.6406 C   0  0  0  0  0  0  0  0  0  0  0  0
   -4.1188   -1.0646    0.1972 C   0  0  1  0  0  0  0  0  0  0  0  0
   -4.8402   -1.5105    1.3419 O   0  0  0  0  0  0  0  0  0  0  0  0
   -3.0002   -0.2279    0.7973 C   0  0  1  0  0  0  0  0  0  0  0  0
   -2.4011    0.5091   -0.2710 O   0  0  0  0  0  0  0  0  0  0  0  0
   -3.8129    0.5717    1.7983 C   0  0  1  0  0  0  0  0  0  0  0  0
   -4.6725    1.5220    1.1603 O   0  0  0  0  0  0  0  0  0  0  0  0
   -4.6413   -0.5706    2.3981 C   0  0  2  0  0  0  0  0  0  0  0  0
   -1.3387    1.3501    0.0775 C   0  0  2  0  0  0  0  0  0  0  0  0
   -1.8297    2.8040    0.0972 C   0  0  2  0  0  0  0  0  0  0  0  0
   -2.4867    3.1384   -1.1939 N   0  3  0  0  0  0  0  0  0  0  0  0
   -0.6780    3.7643    0.4116 C   0  0  1  0  0  0  0  0  0  0  0  0
   -0.2916    3.6178    1.7717 O   0  0  0  0  0  0  0  0  0  0  0  0
    0.5268    3.4987   -0.4963 C   0  0  2  0  0  0  0  0  0  0  0  0
    0.2237    3.8607   -1.8377 O   0  0  0  0  0  0  0  0  0  0  0  0
    0.9051    2.0219   -0.4283 C   0  0  1  0  0  0  0  0  0  0  0  0
   -0.2281    1.2131   -0.7993 O   0  0  0  0  0  0  0  0  0  0  0  0
    2.0611    1.6568   -1.3429 C   0  0  0  0  0  0  0  0  0  0  0  0
    1.7285    1.8764   -2.7680 N   0  3  0  0  0  0  0  0  0  0  0  0
    1.4725   -3.0630    2.4037 C   0  0  0  0  0  0  0  0  0  0  0  0
   -2.2051   -2.9552    2.8404 C   0  0  2  0  0  0  0  0  0  0  0  0
   -2.6660   -3.8146    1.6658 C   0  0  2  0  0  0  0  0  0  0  0  0
   -4.0497   -4.2955    1.8936 N   0  3  0  0  0  0  0  0  0  0  0  0
   -1.7385   -5.0102    1.4944 C   0  0  1  0  0  0  0  0  0  0  0  0
   -2.1311   -5.7577    0.3535 O   0  0  0  0  0  0  0  0  0  0  0  0
   -0.3004   -4.5223    1.3335 C   0  0  2  0  0  0  0  0  0  0  0  0
    0.5805   -5.6345    1.2424 O   0  0  0  0  0  0  0  0  0  0  0  0
    1.4492   -1.7911    1.6455 N   0  3  0  0  0  0  0  0  0  0  0  0
    0.0820   -3.6595    2.5346 C   0  0  2  0  0  0  0  0  0  0  0  0
   -0.8450   -2.5635    2.6732 O   0  0  0  0  0  0  0  0  0  0  0  0
   -6.4419   -3.3067    5.3335 C   0  0  2  0  0  0  0  0  0  0  0  0
   -7.6273   -2.8895    6.1173 N   0  3  0  0  0  0  0  0  0  0  0  0
   -5.4400   -4.0127    6.2400 C   0  0  0  0  0  0  0  0  0  0  0  0
   -4.2143   -4.4455    5.4477 C   0  0  2  0  0  0  0  0  0  0  0  0
   -3.3017   -5.1114    6.3663 N   0  3  0  0  0  0  0  0  0  0  0  0
   -3.5524   -3.2256    4.8112 C   0  0  1  0  0  0  0  0  0  0  0  0
   -2.4102   -3.6467    4.0403 O   0  0  0  0  0  0  0  0  0  0  0  0
   -4.5394   -2.4849    3.8982 C   0  0  2  0  0  0  0  0  0  0  0  0
   -3.9183   -1.2855    3.3978 O   0  0  0  0  0  0  0  0  0  0  0  0
   -5.8104   -2.0956    4.6489 C   0  0  1  0  0  0  0  0  0  0  0  0
   -6.7428   -1.5262    3.7396 O   0  0  0  0  0  0  0  0  0  0  0  0
  1  2  1  0  0  0  0
  3  2  1  1  0  0  0
  3  5  1  0  0  0  0
  3  4  1  0  0  0  0
  4  9  1  0  0  0  0
  5  7  1  0  0  0  0
  5  6  1  6  0  0  0
  7  9  1  0  0  0  0
  7  8  1  6  0  0  0
  9 40  1  1  0  0  0
 10  6  1  6  0  0  0
 10 11  1  0  0  0  0
 10 18  1  0  0  0  0
 11 13  1  0  0  0  0
 11 12  1  6  0  0  0
 13 15  1  0  0  0  0
 13 14  1  1  0  0  0
 15 17  1  0  0  0  0
 15 16  1  6  0  0  0
 17 19  1  6  0  0  0
 17 18  1  0  0  0  0
 19 20  1  0  0  0  0
 21 29  1  0  0  0  0
 22 23  1  0  0  0  0
 22 31  1  0  0  0  0
 22 38  1  1  0  0  0
 23 25  1  0  0  0  0
 23 24  1  1  0  0  0
 25 27  1  0  0  0  0
 25 26  1  6  0  0  0
 27 30  1  0  0  0  0
 27 28  1  1  0  0  0
 30 21  1  6  0  0  0
 30 31  1  0  0  0  0
 32 34  1  0  0  0  0
 32 41  1  0  0  0  0
 32 33  1  1  0  0  0
 34 35  1  0  0  0  0
 35 37  1  0  0  0  0
 35 36  1  1  0  0  0
 37 39  1  0  0  0  0
 37 38  1  6  0  0  0
 39 41  1  0  0  0  0
 39 40  1  1  0  0  0
 41 42  1  6  0  0  0
M  CHG  6  12   1  20   1  24   1  29   1  33   1  36   1
M  END
>  <CHROM.1>
65.11078186,40.65854903,179.99201601,-103.58972611,-51.04953591,-57.46055753
81.79616767,-62.51461375,75.68148713,-62.81224868,-69.56794650,85.85248814
-37.77333042,-103.04331240,70.85830847,-64.60979989,150.39580358,-41.22928321
-48.87708303,142.15248643,172.22338189,-56.29774071,-2.41968162,-1.29444267
1.71553029,-2.15859601,0.48383967,-0.38971192

>  <Name>
1NEM.B

>  <RI>
0

>  <Rbt.Current_Directory>
/home/itssahil/PROJECTS/Mol_Feturizer/New_Systems/rnas/1nem

>  <Rbt.Executable>
rbdock ($Id: //depot/dev/client3/rdock/2013.1/src/exe/rbdock.cxx#4 $)

>  <Rbt.Library>
libRbt.so (2013.1, Build901 2013/11/27)

>  <Rbt.Parameter_File>
/export/apps/rDock/src/rDock_2013.1_src/data/scripts/dock_solv.prm

>  <Rbt.Receptor>
prm/pocket_docking_4.prm

>  <SCORE>
-25.2245

>  <SCORE.INTER>
-41.3583

>  <SCORE.INTER.CONST>
1

>  <SCORE.INTER.POLAR>
-3.93539

>  <SCORE.INTER.ROT>
9

>  <SCORE.INTER.SOLV>
34.3422

>  <SCORE.INTER.VDW>
-35.5016

>  <SCORE.INTER.norm>
-0.984721

>  <SCORE.INTRA>
15.7163

>  <SCORE.INTRA.DIHEDRAL>
8.03145

>  <SCORE.INTRA.DIHEDRAL.0>
22.4324

>  <SCORE.INTRA.POLAR>
0.035781

>  <SCORE.INTRA.POLAR.0>
-1.83749

>  <SCORE.INTRA.REPUL>
0

>  <SCORE.INTRA.REPUL.0>
0

>  <SCORE.INTRA.SOLV>
5.61616

>  <SCORE.INTRA.SOLV.lig_0>
-160.638

>  <SCORE.INTRA.VDW>
8.77086

>  <SCORE.INTRA.VDW.0>
-7.61953

>  <SCORE.INTRA.norm>
0.374198

>  <SCORE.RESTR>
0.417426

>  <SCORE.RESTR.CAVITY>
0.417426

>  <SCORE.RESTR.norm>
0.00993872

>  <SCORE.SYSTEM>
0

>  <SCORE.SYSTEM.CONST>
0

>  <SCORE.SYSTEM.DIHEDRAL>
0

>  <SCORE.SYSTEM.SOLV>
0

>  <SCORE.SYSTEM.norm>
0

>  <SCORE.heavy>
42

>  <SCORE.norm>
-0.600584

>  <RMSD>
6.754

$$$$
1NEM.B
 OpenBabel11021811403D
libRbt.so/2013.1/901 2013/11/27
 42 45  0  0  0  0  0  0  0  0999 V2000
   -3.9124    3.1017   -0.6853 O   0  0  0  0  0  0  0  0  0  0  0  0
   -3.1049    2.2974   -1.5474 C   0  0  0  0  0  0  0  0  0  0  0  0
   -1.8379    1.7790   -0.8686 C   0  0  1  0  0  0  0  0  0  0  0  0
   -2.1592    1.0773    0.3289 O   0  0  0  0  0  0  0  0  0  0  0  0
   -1.0617    0.7501   -1.6751 C   0  0  1  0  0  0  0  0  0  0  0  0
   -0.4365    1.4429   -2.7579 O   0  0  0  0  0  0  0  0  0  0  0  0
   -0.1443    0.2349   -0.5820 C   0  0  1  0  0  0  0  0  0  0  0  0
    0.8350    1.2053   -0.1965 O   0  0  0  0  0  0  0  0  0  0  0  0
   -1.1806    0.0581    0.5340 C   0  0  2  0  0  0  0  0  0  0  0  0
    0.3959    2.5121   -2.4097 C   0  0  2  0  0  0  0  0  0  0  0  0
   -0.3647    3.8304   -2.6065 C   0  0  2  0  0  0  0  0  0  0  0  0
   -0.9181    3.8995   -3.9846 N   0  3  0  0  0  0  0  0  0  0  0  0
    0.5357    5.0309   -2.2972 C   0  0  1  0  0  0  0  0  0  0  0  0
    0.7812    5.0961   -0.8986 O   0  0  0  0  0  0  0  0  0  0  0  0
    1.8669    4.9316   -3.0485 C   0  0  2  0  0  0  0  0  0  0  0  0
    1.6590    5.0949   -4.4457 O   0  0  0  0  0  0  0  0  0  0  0  0
    2.5119    3.5762   -2.7730 C   0  0  1  0  0  0  0  0  0  0  0  0
    1.6070    2.5217   -3.1541 O   0  0  0  0  0  0  0  0  0  0  0  0
    3.8154    3.3693   -3.5239 C   0  0  0  0  0  0  0  0  0  0  0  0
    4.5597    2.1918   -3.0245 N   0  3  0  0  0  0  0  0  0  0  0  0
   -6.8106   -4.9546   -0.6122 C   0  0  0  0  0  0  0  0  0  0  0  0
   -4.7098   -2.1208    0.5205 C   0  0  2  0  0  0  0  0  0  0  0  0
   -5.7763   -1.1279    0.9763 C   0  0  2  0  0  0  0  0  0  0  0  0
   -5.1829   -0.1190    1.8859 N   0  3  0  0  0  0  0  0  0  0  0  0
   -6.8998   -1.8593    1.6986 C   0  0  1  0  0  0  0  0  0  0  0  0
   -7.9206   -0.9372    2.0483 O   0  0  0  0  0  0  0  0  0  0  0  0
   -7.4654   -2.9500    0.7917 C   0  0  2  0  0  0  0  0  0  0  0  0
   -8.4680   -3.6830    1.4839 O   0  0  0  0  0  0  0  0  0  0  0  0
   -7.8431   -5.8290   -0.0100 N   0  3  0  0  0  0  0  0  0  0  0  0
   -6.3407   -3.8918    0.3656 C   0  0  2  0  0  0  0  0  0  0  0  0
   -5.2887   -3.1471   -0.2811 O   0  0  0  0  0  0  0  0  0  0  0  0
   -0.0238   -3.8888    2.2286 C   0  0  2  0  0  0  0  0  0  0  0  0
    1.3028   -4.4954    1.9729 N   0  3  0  0  0  0  0  0  0  0  0  0
   -1.1121   -4.9507    2.1196 C   0  0  0  0  0  0  0  0  0  0  0  0
   -2.4826   -4.3405    2.3781 C   0  0  2  0  0  0  0  0  0  0  0  0
   -3.4725   -5.4019    2.2611 N   0  3  0  0  0  0  0  0  0  0  0  0
   -2.7533   -3.2294    1.3664 C   0  0  1  0  0  0  0  0  0  0  0  0
   -4.0396   -2.6384    1.6354 O   0  0  0  0  0  0  0  0  0  0  0  0
   -1.6680   -2.1466    1.4434 C   0  0  2  0  0  0  0  0  0  0  0  0
   -1.8943   -1.1700    0.4091 O   0  0  0  0  0  0  0  0  0  0  0  0
   -0.2737   -2.7389    1.2542 C   0  0  1  0  0  0  0  0  0  0  0  0
    0.7032   -1.7263    1.4562 O   0  0  0  0  0  0  0  0  0  0  0  0
  1  2  1  0  0  0  0
  3  2  1  6  0  0  0
  3  5  1  0  0  0  0
  3  4  1  0  0  0  0
  4  9  1  0  0  0  0
  5  7  1  0  0  0  0
  5  6  1  6  0  0  0
  7  9  1  0  0  0  0
  7  8  1  1  0  0  0
  9 40  1  6  0  0  0
 10  6  1  6  0  0  0
 10 11  1  0  0  0  0
 10 18  1  0  0  0  0
 11 13  1  0  0  0  0
 11 12  1  6  0  0  0
 13 15  1  0  0  0  0
 13 14  1  1  0  0  0
 15 17  1  0  0  0  0
 15 16  1  6  0  0  0
 17 19  1  6  0  0  0
 17 18  1  0  0  0  0
 19 20  1  0  0  0  0
 21 29  1  0  0  0  0
 22 23  1  0  0  0  0
 22 31  1  0  0  0  0
 22 38  1  1  0  0  0
 23 25  1  0  0  0  0
 23 24  1  1  0  0  0
 25 27  1  0  0  0  0
 25 26  1  6  0  0  0
 27 30  1  0  0  0  0
 27 28  1  1  0  0  0
 30 21  1  6  0  0  0
 30 31  1  0  0  0  0
 32 34  1  0  0  0  0
 32 41  1  0  0  0  0
 32 33  1  6  0  0  0
 34 35  1  0  0  0  0
 35 37  1  0  0  0  0
 35 36  1  6  0  0  0
 37 39  1  0  0  0  0
 37 38  1  1  0  0  0
 39 41  1  0  0  0  0
 39 40  1  6  0  0  0
 41 42  1  1  0  0  0
M  CHG  6  12   1  20   1  24   1  29   1  33   1  36   1
M  END
>  <CHROM.1>
-50.68351756,54.84067178,56.17066168,-100.26999964,-168.91406655,-132.05611779
54.75655126,-52.99534296,75.50104604,167.70525436,-145.80384304,-61.99521756
-85.08710248,-160.47949438,38.34790708,-65.15303474,71.34099858,-45.43088468
63.01199116,-150.14993552,165.51539002,-57.65138202,-2.03364677,-0.30711756
-0.28856603,0.86091784,0.03065614,-0.47832646

>  <Name>
1NEM.B

>  <RI>
0

>  <Rbt.Current_Directory>
/home/itssahil/PROJECTS/Mol_Feturizer/New_Systems/rnas/1nem

>  <Rbt.Executable>
rbdock ($Id: //depot/dev/client3/rdock/2013.1/src/exe/rbdock.cxx#4 $)

>  <Rbt.Library>
libRbt.so (2013.1, Build901 2013/11/27)

>  <Rbt.Parameter_File>
/export/apps/rDock/src/rDock_2013.1_src/data/scripts/dock_solv.prm

>  <Rbt.Receptor>
prm/pocket_docking_8.prm

>  <SCORE>
-43.6357

>  <SCORE.INTER>
-49.8505

>  <SCORE.INTER.CONST>
1

>  <SCORE.INTER.POLAR>
-8.42123

>  <SCORE.INTER.ROT>
9

>  <SCORE.INTER.SOLV>
35.5723

>  <SCORE.INTER.VDW>
-26.6203

>  <SCORE.INTER.norm>
-1.18692

>  <SCORE.INTRA>
6.21484

>  <SCORE.INTRA.DIHEDRAL>
5.50433

>  <SCORE.INTRA.DIHEDRAL.0>
22.4324

>  <SCORE.INTRA.POLAR>
0.364628

>  <SCORE.INTRA.POLAR.0>
-1.83749

>  <SCORE.INTRA.REPUL>
0

>  <SCORE.INTRA.REPUL.0>
0

>  <SCORE.INTRA.SOLV>
-2.8992

>  <SCORE.INTRA.SOLV.lig_0>
-160.638

>  <SCORE.INTRA.VDW>
3.67254

>  <SCORE.INTRA.VDW.0>
-7.61953

>  <SCORE.INTRA.norm>
0.147972

>  <SCORE.RESTR>
0

>  <SCORE.RESTR.CAVITY>
0

>  <SCORE.RESTR.norm>
0

>  <SCORE.SYSTEM>
0

>  <SCORE.SYSTEM.CONST>
0

>  <SCORE.SYSTEM.DIHEDRAL>
0

>  <SCORE.SYSTEM.SOLV>
0

>  <SCORE.SYSTEM.norm>
0

>  <SCORE.heavy>
42

>  <SCORE.norm>
-1.03894

>  <RMSD>
6.773

$$$$
1NEM.B
 OpenBabel11021811403D
libRbt.so/2013.1/901 2013/11/27
 42 45  0  0  0  0  0  0  0  0999 V2000
   -3.0477   -4.4122    6.5127 O   0  0  0  0  0  0  0  0  0  0  0  0
   -3.5019   -3.8702    5.2709 C   0  0  0  0  0  0  0  0  0  0  0  0
   -3.1405   -4.7424    4.0695 C   0  0  1  0  0  0  0  0  0  0  0  0
   -4.3149   -5.2640    3.4545 O   0  0  0  0  0  0  0  0  0  0  0  0
   -2.4534   -4.0031    2.9325 C   0  0  1  0  0  0  0  0  0  0  0  0
   -1.1247   -3.7008    3.3641 O   0  0  0  0  0  0  0  0  0  0  0  0
   -2.5896   -5.0559    1.8485 C   0  0  1  0  0  0  0  0  0  0  0  0
   -1.7577   -6.1947    2.0937 O   0  0  0  0  0  0  0  0  0  0  0  0
   -4.0633   -5.4233    2.0581 C   0  0  2  0  0  0  0  0  0  0  0  0
   -0.3997   -2.8149    2.5598 C   0  0  2  0  0  0  0  0  0  0  0  0
   -0.1867   -3.4455    1.1769 C   0  0  2  0  0  0  0  0  0  0  0  0
    0.4234   -4.7937    1.3193 N   0  3  0  0  0  0  0  0  0  0  0  0
    0.6609   -2.5319    0.2856 C   0  0  1  0  0  0  0  0  0  0  0  0
   -0.0965   -1.3864   -0.0815 O   0  0  0  0  0  0  0  0  0  0  0  0
    1.9413   -2.0931    1.0027 C   0  0  2  0  0  0  0  0  0  0  0  0
    2.8161   -3.2011    1.1737 O   0  0  0  0  0  0  0  0  0  0  0  0
    1.5891   -1.4933    2.3610 C   0  0  1  0  0  0  0  0  0  0  0  0
    0.8477   -2.4537    3.1381 O   0  0  0  0  0  0  0  0  0  0  0  0
    2.8076   -1.0787    3.1669 C   0  0  0  0  0  0  0  0  0  0  0  0
    3.5647   -2.2487    3.6649 N   0  3  0  0  0  0  0  0  0  0  0  0
   -8.0892   -4.5100   -0.5722 C   0  0  0  0  0  0  0  0  0  0  0  0
   -8.1265   -5.4474    3.0121 C   0  0  2  0  0  0  0  0  0  0  0  0
   -8.8445   -6.7937    2.9565 C   0  0  2  0  0  0  0  0  0  0  0  0
   -8.5727   -7.5715    4.1889 N   0  3  0  0  0  0  0  0  0  0  0  0
   -8.3761   -7.5885    1.7449 C   0  0  1  0  0  0  0  0  0  0  0  0
   -9.1061   -8.8029    1.6610 O   0  0  0  0  0  0  0  0  0  0  0  0
   -8.5856   -6.7610    0.4787 C   0  0  2  0  0  0  0  0  0  0  0  0
   -8.0871   -7.4682   -0.6494 O   0  0  0  0  0  0  0  0  0  0  0  0
   -7.0787   -3.4291   -0.6329 N   0  3  0  0  0  0  0  0  0  0  0  0
   -7.8537   -5.4273    0.6152 C   0  0  2  0  0  0  0  0  0  0  0  0
   -8.3074   -4.7308    1.7936 O   0  0  0  0  0  0  0  0  0  0  0  0
   -5.7836   -1.5237    3.5699 C   0  0  2  0  0  0  0  0  0  0  0  0
   -5.0253   -0.2843    3.8569 N   0  3  0  0  0  0  0  0  0  0  0  0
   -6.0153   -2.3031    4.8595 C   0  0  0  0  0  0  0  0  0  0  0  0
   -6.7923   -3.5817    4.5793 C   0  0  2  0  0  0  0  0  0  0  0  0
   -6.9808   -4.2755    5.8455 N   0  3  0  0  0  0  0  0  0  0  0  0
   -6.0182   -4.4516    3.5917 C   0  0  1  0  0  0  0  0  0  0  0  0
   -6.7731   -5.6463    3.3101 O   0  0  0  0  0  0  0  0  0  0  0  0
   -5.7591   -3.6915    2.2835 C   0  0  2  0  0  0  0  0  0  0  0  0
   -4.9396   -4.4991    1.4169 O   0  0  0  0  0  0  0  0  0  0  0  0
   -5.0388   -2.3699    2.5387 C   0  0  1  0  0  0  0  0  0  0  0  0
   -4.9311   -1.6454    1.3205 O   0  0  0  0  0  0  0  0  0  0  0  0
  1  2  1  0  0  0  0
  3  2  1  1  0  0  0
  3  5  1  0  0  0  0
  3  4  1  0  0  0  0
  4  9  1  0  0  0  0
  5  7  1  0  0  0  0
  5  6  1  1  0  0  0
  7  9  1  0  0  0  0
  7  8  1  1  0  0  0
  9 40  1  6  0  0  0
 10  6  1  1  0  0  0
 10 11  1  0  0  0  0
 10 18  1  0  0  0  0
 11 13  1  0  0  0  0
 11 12  1  1  0  0  0
 13 15  1  0  0  0  0
 13 14  1  1  0  0  0
 15 17  1  0  0  0  0
 15 16  1  1  0  0  0
 17 19  1  1  0  0  0
 17 18  1  0  0  0  0
 19 20  1  0  0  0  0
 21 29  1  0  0  0  0
 22 23  1  0  0  0  0
 22 31  1  0  0  0  0
 22 38  1  6  0  0  0
 23 25  1  0  0  0  0
 23 24  1  1  0  0  0
 25 27  1  0  0  0  0
 25 26  1  6  0  0  0
 27 30  1  0  0  0  0
 27 28  1  6  0  0  0
 30 21  1  6  0  0  0
 30 31  1  0  0  0  0
 32 34  1  0  0  0  0
 32 41  1  0  0  0  0
 32 33  1  1  0  0  0
 34 35  1  0  0  0  0
 35 37  1  0  0  0  0
 35 36  1  1  0  0  0
 37 39  1  0  0  0  0
 37 38  1  6  0  0  0
 39 41  1  0  0  0  0
 39 40  1  6  0  0  0
 41 42  1  6  0  0  0
M  CHG  6  12   1  20   1  24   1  29   1  33   1  36   1
M  END
>  <CHROM.1>
-164.52211278,114.71640262,-168.98480494,-63.66314551,-137.24040220,1.30088289
-75.57352763,-68.05598563,145.51912232,-71.07133274,-165.93212688,-162.61888670
27.02463094,-171.04150060,64.86961625,-65.42962585,56.44894704,76.13363114
55.56171978,47.35008234,-28.02241679,-69.88455488,-3.95378089,-4.13674344
2.46132610,0.14502212,0.32898365,1.17280162

>  <Name>
1NEM.B

>  <RI>
0

>  <Rbt.Current_Directory>
/home/itssahil/PROJECTS/Mol_Feturizer/New_Systems/rnas/1nem

>  <Rbt.Executable>
rbdock ($Id: //depot/dev/client3/rdock/2013.1/src/exe/rbdock.cxx#4 $)

>  <Rbt.Library>
libRbt.so (2013.1, Build901 2013/11/27)

>  <Rbt.Parameter_File>
/export/apps/rDock/src/rDock_2013.1_src/data/scripts/dock_solv.prm

>  <Rbt.Receptor>
prm/blind_docking_100.prm

>  <SCORE>
-2.38481

>  <SCORE.INTER>
-37.1012

>  <SCORE.INTER.CONST>
1

>  <SCORE.INTER.POLAR>
-6.77011

>  <SCORE.INTER.ROT>
9

>  <SCORE.INTER.SOLV>
46.8317

>  <SCORE.INTER.VDW>
-27.3777

>  <SCORE.INTER.norm>
-0.883363

>  <SCORE.INTRA>
33.7918

>  <SCORE.INTRA.DIHEDRAL>
13.4308

>  <SCORE.INTRA.DIHEDRAL.0>
22.4324

>  <SCORE.INTRA.POLAR>
-0.220967

>  <SCORE.INTRA.POLAR.0>
-1.83749

>  <SCORE.INTRA.REPUL>
0

>  <SCORE.INTRA.REPUL.0>
0

>  <SCORE.INTRA.SOLV>
6.8762

>  <SCORE.INTRA.SOLV.lig_0>
-160.638

>  <SCORE.INTRA.VDW>
24.3896

>  <SCORE.INTRA.VDW.0>
-7.61953

>  <SCORE.INTRA.norm>
0.804566

>  <SCORE.RESTR>
0.924663

>  <SCORE.RESTR.CAVITY>
0.924663

>  <SCORE.RESTR.norm>
0.0220158

>  <SCORE.SYSTEM>
0

>  <SCORE.SYSTEM.CONST>
0

>  <SCORE.SYSTEM.DIHEDRAL>
0

>  <SCORE.SYSTEM.SOLV>
0

>  <SCORE.SYSTEM.norm>
0

>  <SCORE.heavy>
42

>  <SCORE.norm>
-0.0567811

>  <RMSD>
6.792

$$$$
1NEM.B
 OpenBabel11021811403D
libRbt.so/2013.1/901 2013/11/27
 42 45  0  0  0  0  0  0  0  0999 V2000
   -3.0482   -4.8152    6.4647 O   0  0  0  0  0  0  0  0  0  0  0  0
   -2.3683   -3.8817    5.6230 C   0  0  0  0  0  0  0  0  0  0  0  0
   -2.5095   -4.2038    4.1360 C   0  0  1  0  0  0  0  0  0  0  0  0
   -3.8830   -4.2928    3.7683 O   0  0  0  0  0  0  0  0  0  0  0  0
   -1.9695   -3.1335    3.2009 C   0  0  1  0  0  0  0  0  0  0  0  0
   -0.5430   -3.1817    3.2790 O   0  0  0  0  0  0  0  0  0  0  0  0
   -2.5928   -3.6150    1.9042 C   0  0  1  0  0  0  0  0  0  0  0  0
   -2.0007   -4.8327    1.4396 O   0  0  0  0  0  0  0  0  0  0  0  0
   -4.0165   -3.8786    2.4085 C   0  0  2  0  0  0  0  0  0  0  0  0
    0.1507   -2.2471    2.5028 C   0  0  2  0  0  0  0  0  0  0  0  0
    0.1172   -2.6859    1.0325 C   0  0  2  0  0  0  0  0  0  0  0  0
    0.6085   -4.0833    0.9056 N   0  3  0  0  0  0  0  0  0  0  0  0
    0.9231   -1.7208    0.1569 C   0  0  1  0  0  0  0  0  0  0  0  0
    0.2374   -0.4797    0.0578 O   0  0  0  0  0  0  0  0  0  0  0  0
    2.3234   -1.4896    0.7331 C   0  0  2  0  0  0  0  0  0  0  0  0
    3.1027   -2.6744    0.6279 O   0  0  0  0  0  0  0  0  0  0  0  0
    2.2134   -1.0670    2.1954 C   0  0  1  0  0  0  0  0  0  0  0  0
    1.4926   -2.0699    2.9375 O   0  0  0  0  0  0  0  0  0  0  0  0
    3.5619   -0.8677    2.8645 C   0  0  0  0  0  0  0  0  0  0  0  0
    4.5137   -0.1514    1.9866 N   0  3  0  0  0  0  0  0  0  0  0  0
   -8.4377   -8.2290    3.0990 C   0  0  0  0  0  0  0  0  0  0  0  0
   -6.7710   -5.1757    1.8235 C   0  0  2  0  0  0  0  0  0  0  0  0
   -7.4197   -5.0394    0.4482 C   0  0  2  0  0  0  0  0  0  0  0  0
   -7.2614   -3.6554   -0.0589 N   0  3  0  0  0  0  0  0  0  0  0  0
   -8.9016   -5.3799    0.5308 C   0  0  1  0  0  0  0  0  0  0  0  0
   -9.4757   -5.3249   -0.7661 O   0  0  0  0  0  0  0  0  0  0  0  0
   -9.0727   -6.7772    1.1223 C   0  0  2  0  0  0  0  0  0  0  0  0
  -10.4553   -7.0754    1.2672 O   0  0  0  0  0  0  0  0  0  0  0  0
   -7.4831   -9.1498    2.4403 N   0  3  0  0  0  0  0  0  0  0  0  0
   -8.3866   -6.8406    2.4856 C   0  0  2  0  0  0  0  0  0  0  0  0
   -6.9968   -6.4771    2.3588 O   0  0  0  0  0  0  0  0  0  0  0  0
   -5.7155   -2.1361    6.0730 C   0  0  2  0  0  0  0  0  0  0  0  0
   -4.8783   -1.8231    7.2539 N   0  3  0  0  0  0  0  0  0  0  0  0
   -6.4238   -3.4708    6.2755 C   0  0  0  0  0  0  0  0  0  0  0  0
   -7.2869   -3.8068    5.0674 C   0  0  2  0  0  0  0  0  0  0  0  0
   -7.9339   -5.0859    5.3235 N   0  3  0  0  0  0  0  0  0  0  0  0
   -6.4178   -3.8775    3.8141 C   0  0  1  0  0  0  0  0  0  0  0  0
   -7.2460   -4.1679    2.6713 O   0  0  0  0  0  0  0  0  0  0  0  0
   -5.6815   -2.5500    3.5865 C   0  0  2  0  0  0  0  0  0  0  0  0
   -4.7933   -2.6840    2.4605 O   0  0  0  0  0  0  0  0  0  0  0  0
   -4.8580   -2.1514    4.8087 C   0  0  1  0  0  0  0  0  0  0  0  0
   -4.2960   -0.8622    4.6021 O   0  0  0  0  0  0  0  0  0  0  0  0
  1  2  1  0  0  0  0
  3  2  1  1  0  0  0
  3  5  1  0  0  0  0
  3  4  1  0  0  0  0
  4  9  1  0  0  0  0
  5  7  1  0  0  0  0
  5  6  1  6  0  0  0
  7  9  1  0  0  0  0
  7  8  1  1  0  0  0
  9 40  1  1  0  0  0
 10  6  1  1  0  0  0
 10 11  1  0  0  0  0
 10 18  1  0  0  0  0
 11 13  1  0  0  0  0
 11 12  1  1  0  0  0
 13 15  1  0  0  0  0
 13 14  1  1  0  0  0
 15 17  1  0  0  0  0
 15 16  1  1  0  0  0
 17 19  1  1  0  0  0
 17 18  1  0  0  0  0
 19 20  1  0  0  0  0
 21 29  1  0  0  0  0
 22 23  1  0  0  0  0
 22 31  1  0  0  0  0
 22 38  1  1  0  0  0
 23 25  1  0  0  0  0
 23 24  1  1  0  0  0
 25 27  1  0  0  0  0
 25 26  1  6  0  0  0
 27 30  1  0  0  0  0
 27 28  1  1  0  0  0
 30 21  1  6  0  0  0
 30 31  1  0  0  0  0
 32 34  1  0  0  0  0
 32 41  1  0  0  0  0
 32 33  1  1  0  0  0
 34 35  1  0  0  0  0
 35 37  1  0  0  0  0
 35 36  1  1  0  0  0
 37 39  1  0  0  0  0
 37 38  1  6  0  0  0
 39 41  1  0  0  0  0
 39 40  1  6  0  0  0
 41 42  1  6  0  0  0
M  CHG  6  12   1  20   1  24   1  29   1  33   1  36   1
M  END
>  <CHROM.1>
73.00315678,55.63290554,-178.81244447,-75.62852381,-178.35631074,-26.58088875
-159.99851693,-170.02997568,73.18357259,42.54671431,-81.06663321,74.99738563
140.66439751,-159.41535575,161.77838005,63.71551433,-56.44625083,44.73893080
-175.09174814,-132.97571347,-44.42732347,-38.22785770,-3.78958103,-3.75550250
2.72213525,0.07535062,0.38650950,1.24698458

>  <Name>
1NEM.B

>  <RI>
0

>  <Rbt.Current_Directory>
/home/itssahil/PROJECTS/Mol_Feturizer/New_Systems/rnas/1nem

>  <Rbt.Executable>
rbdock ($Id: //depot/dev/client3/rdock/2013.1/src/exe/rbdock.cxx#4 $)

>  <Rbt.Library>
libRbt.so (2013.1, Build901 2013/11/27)

>  <Rbt.Parameter_File>
/export/apps/rDock/src/rDock_2013.1_src/data/scripts/dock_solv.prm

>  <Rbt.Receptor>
prm/blind_docking_20.prm

>  <SCORE>
-9.17109

>  <SCORE.INTER>
-27.3279

>  <SCORE.INTER.CONST>
1

>  <SCORE.INTER.POLAR>
-6.2137

>  <SCORE.INTER.ROT>
9

>  <SCORE.INTER.SOLV>
40.2306

>  <SCORE.INTER.VDW>
-20.5164

>  <SCORE.INTER.norm>
-0.650663

>  <SCORE.INTRA>
12.045

>  <SCORE.INTRA.DIHEDRAL>
5.33174

>  <SCORE.INTRA.DIHEDRAL.0>
22.4324

>  <SCORE.INTRA.POLAR>
0.59508

>  <SCORE.INTRA.POLAR.0>
-1.83749

>  <SCORE.INTRA.REPUL>
0

>  <SCORE.INTRA.REPUL.0>
0

>  <SCORE.INTRA.SOLV>
2.24858

>  <SCORE.INTRA.SOLV.lig_0>
-160.638

>  <SCORE.INTRA.VDW>
6.23157

>  <SCORE.INTRA.VDW.0>
-7.61953

>  <SCORE.INTRA.norm>
0.286786

>  <SCORE.RESTR>
6.11177

>  <SCORE.RESTR.CAVITY>
6.11177

>  <SCORE.RESTR.norm>
0.145518

>  <SCORE.SYSTEM>
0

>  <SCORE.SYSTEM.CONST>
0

>  <SCORE.SYSTEM.DIHEDRAL>
0

>  <SCORE.SYSTEM.SOLV>
0

>  <SCORE.SYSTEM.norm>
0

>  <SCORE.heavy>
42

>  <SCORE.norm>
-0.218359

>  <RMSD>
6.802

$$$$
1NEM.B
 OpenBabel11021811403D
libRbt.so/2013.1/901 2013/11/27
 42 45  0  0  0  0  0  0  0  0999 V2000
   -4.5918   -3.2901    5.2499 O   0  0  0  0  0  0  0  0  0  0  0  0
   -3.2527   -3.7799    5.3446 C   0  0  0  0  0  0  0  0  0  0  0  0
   -2.8299   -4.6045    4.1296 C   0  0  1  0  0  0  0  0  0  0  0  0
   -3.9619   -5.2147    3.5167 O   0  0  0  0  0  0  0  0  0  0  0  0
   -2.2163   -3.7968    2.9971 C   0  0  1  0  0  0  0  0  0  0  0  0
   -0.9138   -3.3899    3.4227 O   0  0  0  0  0  0  0  0  0  0  0  0
   -2.2733   -4.8442    1.9009 C   0  0  1  0  0  0  0  0  0  0  0  0
   -1.3474   -5.9126    2.1256 O   0  0  0  0  0  0  0  0  0  0  0  0
   -3.7095   -5.3358    2.1166 C   0  0  2  0  0  0  0  0  0  0  0  0
   -0.2185   -2.5382    2.5576 C   0  0  2  0  0  0  0  0  0  0  0  0
   -0.0512   -3.2264    1.1961 C   0  0  2  0  0  0  0  0  0  0  0  0
    0.5663   -4.5670    1.3743 N   0  3  0  0  0  0  0  0  0  0  0  0
    0.7637   -2.3506    0.2388 C   0  0  1  0  0  0  0  0  0  0  0  0
   -0.0082   -1.2221   -0.1503 O   0  0  0  0  0  0  0  0  0  0  0  0
    2.0668   -1.8810    0.8928 C   0  0  2  0  0  0  0  0  0  0  0  0
    2.9493   -2.9801    1.0805 O   0  0  0  0  0  0  0  0  0  0  0  0
    1.7596   -1.2247    2.2358 C   0  0  1  0  0  0  0  0  0  0  0  0
    1.0470   -2.1520    3.0775 O   0  0  0  0  0  0  0  0  0  0  0  0
    3.0038   -0.7756    2.9817 C   0  0  0  0  0  0  0  0  0  0  0  0
    3.7240   -1.9155    3.5912 N   0  3  0  0  0  0  0  0  0  0  0  0
   -3.3547   -0.6932   -0.8444 C   0  0  0  0  0  0  0  0  0  0  0  0
   -5.2557   -2.1486    1.9831 C   0  0  2  0  0  0  0  0  0  0  0  0
   -5.2406   -0.9886    2.9757 C   0  0  2  0  0  0  0  0  0  0  0  0
   -6.3168   -1.1592    3.9808 N   0  3  0  0  0  0  0  0  0  0  0  0
   -5.4394    0.3315    2.2431 C   0  0  1  0  0  0  0  0  0  0  0  0
   -5.3459    1.4065    3.1652 O   0  0  0  0  0  0  0  0  0  0  0  0
   -4.3769    0.4778    1.1561 C   0  0  2  0  0  0  0  0  0  0  0  0
   -4.5975    1.6752    0.4219 O   0  0  0  0  0  0  0  0  0  0  0  0
   -3.2274   -1.9995   -1.5302 N   0  3  0  0  0  0  0  0  0  0  0  0
   -4.4430   -0.7232    0.2146 C   0  0  2  0  0  0  0  0  0  0  0  0
   -4.2840   -1.9473    0.9602 O   0  0  0  0  0  0  0  0  0  0  0  0
   -7.9381   -6.2869    1.9673 C   0  0  2  0  0  0  0  0  0  0  0  0
   -8.3352   -7.6786    1.6532 N   0  3  0  0  0  0  0  0  0  0  0  0
   -8.7931   -5.3085    1.1698 C   0  0  0  0  0  0  0  0  0  0  0  0
   -8.3941   -3.8728    1.4811 C   0  0  2  0  0  0  0  0  0  0  0  0
   -9.2449   -2.9926    0.6928 N   0  3  0  0  0  0  0  0  0  0  0  0
   -6.9219   -3.6588    1.1372 C   0  0  1  0  0  0  0  0  0  0  0  0
   -6.5451   -2.3062    1.4610 O   0  0  0  0  0  0  0  0  0  0  0  0
   -6.0327   -4.6370    1.9173 C   0  0  2  0  0  0  0  0  0  0  0  0
   -4.6651   -4.4803    1.4935 O   0  0  0  0  0  0  0  0  0  0  0  0
   -6.4516   -6.0853    1.6777 C   0  0  1  0  0  0  0  0  0  0  0  0
   -5.6860   -6.9448    2.5118 O   0  0  0  0  0  0  0  0  0  0  0  0
  1  2  1  0  0  0  0
  3  2  1  1  0  0  0
  3  5  1  0  0  0  0
  3  4  1  0  0  0  0
  4  9  1  0  0  0  0
  5  7  1  0  0  0  0
  5  6  1  1  0  0  0
  7  9  1  0  0  0  0
  7  8  1  1  0  0  0
  9 40  1  6  0  0  0
 10  6  1  1  0  0  0
 10 11  1  0  0  0  0
 10 18  1  0  0  0  0
 11 13  1  0  0  0  0
 11 12  1  1  0  0  0
 13 15  1  0  0  0  0
 13 14  1  1  0  0  0
 15 17  1  0  0  0  0
 15 16  1  1  0  0  0
 17 19  1  1  0  0  0
 17 18  1  0  0  0  0
 19 20  1  0  0  0  0
 21 29  1  0  0  0  0
 22 23  1  0  0  0  0
 22 31  1  0  0  0  0
 22 38  1  6  0  0  0
 23 25  1  0  0  0  0
 23 24  1  1  0  0  0
 25 27  1  0  0  0  0
 25 26  1  1  0  0  0
 27 30  1  0  0  0  0
 27 28  1  6  0  0  0
 30 21  1  6  0  0  0
 30 31  1  0  0  0  0
 32 34  1  0  0  0  0
 32 41  1  0  0  0  0
 32 33  1  6  0  0  0
 34 35  1  0  0  0  0
 35 37  1  0  0  0  0
 35 36  1  6  0  0  0
 37 39  1  0  0  0  0
 37 38  1  1  0  0  0
 39 41  1  0  0  0  0
 39 40  1  6  0  0  0
 41 42  1  1  0  0  0
M  CHG  6  12   1  20   1  24   1  29   1  33   1  36   1
M  END
>  <CHROM.1>
73.29202443,-27.32895088,-175.03328251,-58.83576811,86.89848609,-49.56050698
-136.41003800,-63.45409243,-59.32395522,-75.45501252,70.10478923,166.27100536
-157.83029824,-147.50629654,-56.20960987,177.18774635,166.15994802,109.87866078
67.04793619,142.62843518,-179.23840257,-44.16391978,-3.32872035,-2.98228255
1.95272334,-2.92253094,-0.06666399,-0.21983860

>  <Name>
1NEM.B

>  <RI>
0

>  <Rbt.Current_Directory>
/home/itssahil/PROJECTS/Mol_Feturizer/New_Systems/rnas/1nem

>  <Rbt.Executable>
rbdock ($Id: //depot/dev/client3/rdock/2013.1/src/exe/rbdock.cxx#4 $)

>  <Rbt.Library>
libRbt.so (2013.1, Build901 2013/11/27)

>  <Rbt.Parameter_File>
/export/apps/rDock/src/rDock_2013.1_src/data/scripts/dock_solv.prm

>  <Rbt.Receptor>
prm/blind_docking_80.prm

>  <SCORE>
63.8567

>  <SCORE.INTER>
43.7568

>  <SCORE.INTER.CONST>
1

>  <SCORE.INTER.POLAR>
-7.05666

>  <SCORE.INTER.ROT>
9

>  <SCORE.INTER.SOLV>
61.7117

>  <SCORE.INTER.VDW>
22.5228

>  <SCORE.INTER.norm>
1.04183

>  <SCORE.INTRA>
17.7847

>  <SCORE.INTRA.DIHEDRAL>
6.10296

>  <SCORE.INTRA.DIHEDRAL.0>
22.4324

>  <SCORE.INTRA.POLAR>
-0.452044

>  <SCORE.INTRA.POLAR.0>
-1.83749

>  <SCORE.INTRA.REPUL>
0

>  <SCORE.INTRA.REPUL.0>
0

>  <SCORE.INTRA.SOLV>
4.54719

>  <SCORE.INTRA.SOLV.lig_0>
-160.638

>  <SCORE.INTRA.VDW>
13.9966

>  <SCORE.INTRA.VDW.0>
-7.61953

>  <SCORE.INTRA.norm>
0.423446

>  <SCORE.RESTR>
2.31523

>  <SCORE.RESTR.CAVITY>
2.31523

>  <SCORE.RESTR.norm>
0.0551245

>  <SCORE.SYSTEM>
0

>  <SCORE.SYSTEM.CONST>
0

>  <SCORE.SYSTEM.DIHEDRAL>
0

>  <SCORE.SYSTEM.SOLV>
0

>  <SCORE.SYSTEM.norm>
0

>  <SCORE.heavy>
42

>  <SCORE.norm>
1.5204

>  <RMSD>
6.868

$$$$
1NEM.B
 OpenBabel11021811403D
libRbt.so/2013.1/901 2013/11/27
 42 45  0  0  0  0  0  0  0  0999 V2000
   -3.9139    1.7630   -0.6286 O   0  0  0  0  0  0  0  0  0  0  0  0
   -2.8509    2.7160   -0.5671 C   0  0  0  0  0  0  0  0  0  0  0  0
   -1.4667    2.0688   -0.5606 C   0  0  1  0  0  0  0  0  0  0  0  0
   -1.3421    1.1572    0.5271 O   0  0  0  0  0  0  0  0  0  0  0  0
   -1.1654    1.2033   -1.7738 C   0  0  1  0  0  0  0  0  0  0  0  0
   -0.9675    2.0821   -2.8837 O   0  0  0  0  0  0  0  0  0  0  0  0
    0.0647    0.4843   -1.2525 C   0  0  1  0  0  0  0  0  0  0  0  0
    1.1942    1.3568   -1.1416 O   0  0  0  0  0  0  0  0  0  0  0  0
   -0.4522    0.1095    0.1414 C   0  0  2  0  0  0  0  0  0  0  0  0
   -0.2867    3.2743   -2.6149 C   0  0  2  0  0  0  0  0  0  0  0  0
   -1.0452    4.4454   -3.2541 C   0  0  2  0  0  0  0  0  0  0  0  0
   -1.2767    4.1762   -4.6978 N   0  3  0  0  0  0  0  0  0  0  0  0
   -0.2956    5.7639   -3.0373 C   0  0  1  0  0  0  0  0  0  0  0  0
   -0.3747    6.1389   -1.6685 O   0  0  0  0  0  0  0  0  0  0  0  0
    1.1738    5.6392   -3.4518 C   0  0  2  0  0  0  0  0  0  0  0  0
    1.2782    5.4908   -4.8622 O   0  0  0  0  0  0  0  0  0  0  0  0
    1.8038    4.4373   -2.7537 C   0  0  1  0  0  0  0  0  0  0  0  0
    1.0591    3.2457   -3.0723 O   0  0  0  0  0  0  0  0  0  0  0  0
    3.2513    4.2052   -3.1499 C   0  0  0  0  0  0  0  0  0  0  0  0
    3.6683    2.8037   -2.9225 N   0  3  0  0  0  0  0  0  0  0  0  0
   -6.3268   -4.7478   -0.2005 C   0  0  0  0  0  0  0  0  0  0  0  0
   -4.2597   -1.7428    0.4505 C   0  0  2  0  0  0  0  0  0  0  0  0
   -5.3300   -0.7313    0.8537 C   0  0  2  0  0  0  0  0  0  0  0  0
   -4.7173    0.3953    1.5972 N   0  3  0  0  0  0  0  0  0  0  0  0
   -6.3814   -1.4006    1.7287 C   0  0  1  0  0  0  0  0  0  0  0  0
   -7.4101   -0.4709    2.0322 O   0  0  0  0  0  0  0  0  0  0  0  0
   -6.9633   -2.6073    0.9958 C   0  0  2  0  0  0  0  0  0  0  0  0
   -7.8959   -3.2784    1.8333 O   0  0  0  0  0  0  0  0  0  0  0  0
   -7.3663   -5.5118    0.5267 N   0  3  0  0  0  0  0  0  0  0  0  0
   -5.8350   -3.5628    0.6122 C   0  0  2  0  0  0  0  0  0  0  0  0
   -4.8507   -2.8733   -0.1849 O   0  0  0  0  0  0  0  0  0  0  0  0
    0.3314   -3.8506    2.0959 C   0  0  2  0  0  0  0  0  0  0  0  0
    1.5456   -4.6583    1.8381 N   0  3  0  0  0  0  0  0  0  0  0  0
   -0.8958   -4.7540    2.1400 C   0  0  0  0  0  0  0  0  0  0  0  0
   -2.1527   -3.9363    2.4023 C   0  0  2  0  0  0  0  0  0  0  0  0
   -3.2830   -4.8537    2.4339 N   0  3  0  0  0  0  0  0  0  0  0  0
   -2.3295   -2.8921    1.3024 C   0  0  1  0  0  0  0  0  0  0  0  0
   -3.5053   -2.1042    1.5730 O   0  0  0  0  0  0  0  0  0  0  0  0
   -1.1044   -1.9706    1.2245 C   0  0  2  0  0  0  0  0  0  0  0  0
   -1.2569   -1.0673    0.1130 O   0  0  0  0  0  0  0  0  0  0  0  0
    0.1827   -2.7678    1.0283 C   0  0  1  0  0  0  0  0  0  0  0  0
    1.2985   -1.8891    1.0865 O   0  0  0  0  0  0  0  0  0  0  0  0
  1  2  1  0  0  0  0
  3  2  1  6  0  0  0
  3  5  1  0  0  0  0
  3  4  1  0  0  0  0
  4  9  1  0  0  0  0
  5  7  1  0  0  0  0
  5  6  1  6  0  0  0
  7  9  1  0  0  0  0
  7  8  1  1  0  0  0
  9 40  1  6  0  0  0
 10  6  1  6  0  0  0
 10 11  1  0  0  0  0
 10 18  1  0  0  0  0
 11 13  1  0  0  0  0
 11 12  1  6  0  0  0
 13 15  1  0  0  0  0
 13 14  1  1  0  0  0
 15 17  1  0  0  0  0
 15 16  1  6  0  0  0
 17 19  1  6  0  0  0
 17 18  1  0  0  0  0
 19 20  1  0  0  0  0
 21 29  1  0  0  0  0
 22 23  1  0  0  0  0
 22 31  1  0  0  0  0
 22 38  1  1  0  0  0
 23 25  1  0  0  0  0
 23 24  1  1  0  0  0
 25 27  1  0  0  0  0
 25 26  1  6  0  0  0
 27 30  1  0  0  0  0
 27 28  1  1  0  0  0
 30 21  1  6  0  0  0
 30 31  1  0  0  0  0
 32 34  1  0  0  0  0
 32 41  1  0  0  0  0
 32 33  1  6  0  0  0
 34 35  1  0  0  0  0
 35 37  1  0  0  0  0
 35 36  1  6  0  0  0
 37 39  1  0  0  0  0
 37 38  1  1  0  0  0
 39 41  1  0  0  0  0
 39 40  1  6  0  0  0
 41 42  1  1  0  0  0
M  CHG  6  12   1  20   1  24   1  29   1  33   1  36   1
M  END
>  <CHROM.1>
-175.39479562,-57.12865383,38.17844478,-133.07349136,-62.86518549,-103.55650773
55.27171598,55.82870505,174.88223202,-157.09973953,-72.03187540,-57.64516644
36.47715025,-170.72586820,177.62384712,-174.39860810,58.85643918,-170.04896283
175.47575941,-142.27723806,160.64332074,68.58210839,-1.92617577,0.03034609
-0.38982678,0.99418590,0.05964393,-0.48927992

>  <Name>
1NEM.B

>  <RI>
0

>  <Rbt.Current_Directory>
/home/itssahil/PROJECTS/Mol_Feturizer/New_Systems/rnas/1nem

>  <Rbt.Executable>
rbdock ($Id: //depot/dev/client3/rdock/2013.1/src/exe/rbdock.cxx#4 $)

>  <Rbt.Library>
libRbt.so (2013.1, Build901 2013/11/27)

>  <Rbt.Parameter_File>
/export/apps/rDock/src/rDock_2013.1_src/data/scripts/dock_solv.prm

>  <Rbt.Receptor>
prm/pocket_docking_6.prm

>  <SCORE>
-47.3721

>  <SCORE.INTER>
-49.9861

>  <SCORE.INTER.CONST>
1

>  <SCORE.INTER.POLAR>
-7.37787

>  <SCORE.INTER.ROT>
9

>  <SCORE.INTER.SOLV>
30.5185

>  <SCORE.INTER.VDW>
-28.504

>  <SCORE.INTER.norm>
-1.19015

>  <SCORE.INTRA>
2.614

>  <SCORE.INTRA.DIHEDRAL>
4.22133

>  <SCORE.INTRA.DIHEDRAL.0>
22.4324

>  <SCORE.INTRA.POLAR>
-1.32329

>  <SCORE.INTRA.POLAR.0>
-1.83749

>  <SCORE.INTRA.REPUL>
0

>  <SCORE.INTRA.REPUL.0>
0

>  <SCORE.INTRA.SOLV>
2.61379

>  <SCORE.INTRA.SOLV.lig_0>
-160.638

>  <SCORE.INTRA.VDW>
3.69562

>  <SCORE.INTRA.VDW.0>
-7.61953

>  <SCORE.INTRA.norm>
0.0622382

>  <SCORE.RESTR>
0

>  <SCORE.RESTR.CAVITY>
0

>  <SCORE.RESTR.norm>
0

>  <SCORE.SYSTEM>
0

>  <SCORE.SYSTEM.CONST>
0

>  <SCORE.SYSTEM.DIHEDRAL>
0

>  <SCORE.SYSTEM.SOLV>
0

>  <SCORE.SYSTEM.norm>
0

>  <SCORE.heavy>
42

>  <SCORE.norm>
-1.12791

>  <RMSD>
6.892

$$$$
1NEM.B
 OpenBabel11021811403D
libRbt.so/2013.1/901 2013/11/27
 42 45  0  0  0  0  0  0  0  0999 V2000
    1.8546    2.0065    5.8013 O   0  0  0  0  0  0  0  0  0  0  0  0
    2.5007    1.1545    6.7493 C   0  0  0  0  0  0  0  0  0  0  0  0
    3.9825    0.9375    6.4462 C   0  0  1  0  0  0  0  0  0  0  0  0
    4.1460    0.1547    5.2672 O   0  0  0  0  0  0  0  0  0  0  0  0
    4.7577    2.2065    6.1293 C   0  0  1  0  0  0  0  0  0  0  0  0
    4.9101    2.9280    7.3539 O   0  0  0  0  0  0  0  0  0  0  0  0
    6.0133    1.5797    5.5528 C   0  0  1  0  0  0  0  0  0  0  0  0
    6.7956    0.9187    6.5530 O   0  0  0  0  0  0  0  0  0  0  0  0
    5.3597    0.5478    4.6261 C   0  0  2  0  0  0  0  0  0  0  0  0
    3.7709    3.0251    8.1603 C   0  0  2  0  0  0  0  0  0  0  0  0
    3.6829    4.4420    8.7433 C   0  0  2  0  0  0  0  0  0  0  0  0
    4.9564    4.7933    9.4253 N   0  3  0  0  0  0  0  0  0  0  0  0
    2.4820    4.5702    9.6861 C   0  0  1  0  0  0  0  0  0  0  0  0
    1.2774    4.5403    8.9319 O   0  0  0  0  0  0  0  0  0  0  0  0
    2.4684    3.4409   10.7209 C   0  0  2  0  0  0  0  0  0  0  0  0
    3.5510    3.5915   11.6305 O   0  0  0  0  0  0  0  0  0  0  0  0
    2.5681    2.0934   10.0115 C   0  0  1  0  0  0  0  0  0  0  0  0
    3.7597    2.0579    9.2022 O   0  0  0  0  0  0  0  0  0  0  0  0
    2.6159    0.9149   10.9679 C   0  0  0  0  0  0  0  0  0  0  0  0
    3.1753   -0.2954   10.3257 N   0  3  0  0  0  0  0  0  0  0  0  0
   -0.1606    0.4529    0.1397 C   0  0  0  0  0  0  0  0  0  0  0  0
    2.7977   -0.2193    2.2666 C   0  0  2  0  0  0  0  0  0  0  0  0
    2.3562   -1.4880    2.9920 C   0  0  2  0  0  0  0  0  0  0  0  0
    3.5336   -2.1995    3.5443 N   0  3  0  0  0  0  0  0  0  0  0  0
    1.6142   -2.4095    2.0332 C   0  0  1  0  0  0  0  0  0  0  0  0
    1.1420   -3.5482    2.7368 O   0  0  0  0  0  0  0  0  0  0  0  0
    0.4432   -1.6573    1.4048 C   0  0  2  0  0  0  0  0  0  0  0  0
   -0.2131   -2.4889    0.4565 O   0  0  0  0  0  0  0  0  0  0  0  0
   -1.0017   -0.3210   -0.8020 N   0  3  0  0  0  0  0  0  0  0  0  0
    0.9597   -0.3967    0.7140 C   0  0  2  0  0  0  0  0  0  0  0  0
    1.6826    0.4234    1.6545 O   0  0  0  0  0  0  0  0  0  0  0  0
    7.4700    1.4787    0.6052 C   0  0  2  0  0  0  0  0  0  0  0  0
    8.4330    2.5606    0.2963 N   0  3  0  0  0  0  0  0  0  0  0  0
    6.4816    1.3171   -0.5441 C   0  0  0  0  0  0  0  0  0  0  0  0
    5.4834    0.2090   -0.2392 C   0  0  2  0  0  0  0  0  0  0  0  0
    4.5732    0.1049   -1.3709 N   0  3  0  0  0  0  0  0  0  0  0  0
    4.7225    0.5366    1.0433 C   0  0  1  0  0  0  0  0  0  0  0  0
    3.8002   -0.5300    1.3400 O   0  0  0  0  0  0  0  0  0  0  0  0
    5.6912    0.7159    2.2205 C   0  0  2  0  0  0  0  0  0  0  0  0
    4.9531    1.1256    3.3875 O   0  0  0  0  0  0  0  0  0  0  0  0
    6.7474    1.7759    1.9181 C   0  0  1  0  0  0  0  0  0  0  0  0
    7.6924    1.8202    2.9791 O   0  0  0  0  0  0  0  0  0  0  0  0
  1  2  1  0  0  0  0
  3  2  1  6  0  0  0
  3  5  1  0  0  0  0
  3  4  1  0  0  0  0
  4  9  1  0  0  0  0
  5  7  1  0  0  0  0
  5  6  1  1  0  0  0
  7  9  1  0  0  0  0
  7  8  1  1  0  0  0
  9 40  1  6  0  0  0
 10  6  1  1  0  0  0
 10 11  1  0  0  0  0
 10 18  1  0  0  0  0
 11 13  1  0  0  0  0
 11 12  1  1  0  0  0
 13 15  1  0  0  0  0
 13 14  1  6  0  0  0
 15 17  1  0  0  0  0
 15 16  1  1  0  0  0
 17 19  1  1  0  0  0
 17 18  1  0  0  0  0
 19 20  1  0  0  0  0
 21 29  1  0  0  0  0
 22 23  1  0  0  0  0
 22 31  1  0  0  0  0
 22 38  1  6  0  0  0
 23 25  1  0  0  0  0
 23 24  1  6  0  0  0
 25 27  1  0  0  0  0
 25 26  1  1  0  0  0
 27 30  1  0  0  0  0
 27 28  1  6  0  0  0
 30 21  1  1  0  0  0
 30 31  1  0  0  0  0
 32 34  1  0  0  0  0
 32 41  1  0  0  0  0
 32 33  1  6  0  0  0
 34 35  1  0  0  0  0
 35 37  1  0  0  0  0
 35 36  1  6  0  0  0
 37 39  1  0  0  0  0
 37 38  1  1  0  0  0
 39 41  1  0  0  0  0
 39 40  1  1  0  0  0
 41 42  1  1  0  0  0
M  CHG  6  12   1  20   1  24   1  29   1  33   1  36   1
M  END
>  <CHROM.1>
-170.24052189,-69.04246340,-44.71157831,-139.05062439,-58.27436811,-134.43760428
-73.63660039,63.27607148,72.72350069,-160.03891126,-44.59871065,-56.32188956
17.91657980,-152.38491297,-65.69025303,-65.38514033,-42.75730587,70.13697791
-174.51051157,-163.73368384,140.42187692,-58.57639377,3.65576350,1.00567351
4.56021343,1.53604276,0.42033317,1.23359360

>  <Name>
1NEM.B

>  <RI>
0

>  <Rbt.Current_Directory>
/home/itssahil/PROJECTS/Mol_Feturizer/New_Systems/rnas/1nem

>  <Rbt.Executable>
rbdock ($Id: //depot/dev/client3/rdock/2013.1/src/exe/rbdock.cxx#4 $)

>  <Rbt.Library>
libRbt.so (2013.1, Build901 2013/11/27)

>  <Rbt.Parameter_File>
/export/apps/rDock/src/rDock_2013.1_src/data/scripts/dock_solv.prm

>  <Rbt.Receptor>
prm/pocket_docking_8.prm

>  <SCORE>
-20.3535

>  <SCORE.INTER>
-29.2419

>  <SCORE.INTER.CONST>
1

>  <SCORE.INTER.POLAR>
-4.47089

>  <SCORE.INTER.ROT>
9

>  <SCORE.INTER.SOLV>
28.94

>  <SCORE.INTER.VDW>
-23.8383

>  <SCORE.INTER.norm>
-0.696235

>  <SCORE.INTRA>
8.88834

>  <SCORE.INTRA.DIHEDRAL>
9.49581

>  <SCORE.INTRA.DIHEDRAL.0>
22.4324

>  <SCORE.INTRA.POLAR>
-0.718217

>  <SCORE.INTRA.POLAR.0>
-1.83749

>  <SCORE.INTRA.REPUL>
0.0291698

>  <SCORE.INTRA.REPUL.0>
0

>  <SCORE.INTRA.SOLV>
-1.62523

>  <SCORE.INTRA.SOLV.lig_0>
-160.638

>  <SCORE.INTRA.VDW>
7.24914

>  <SCORE.INTRA.VDW.0>
-7.61953

>  <SCORE.INTRA.norm>
0.211627

>  <SCORE.RESTR>
0

>  <SCORE.RESTR.CAVITY>
0

>  <SCORE.RESTR.norm>
0

>  <SCORE.SYSTEM>
0

>  <SCORE.SYSTEM.CONST>
0

>  <SCORE.SYSTEM.DIHEDRAL>
0

>  <SCORE.SYSTEM.SOLV>
0

>  <SCORE.SYSTEM.norm>
0

>  <SCORE.heavy>
42

>  <SCORE.norm>
-0.484608

>  <RMSD>
6.899

$$$$
1NEM.B
 OpenBabel11021811403D
libRbt.so/2013.1/901 2013/11/27
 42 45  0  0  0  0  0  0  0  0999 V2000
   -3.5703    0.6066    0.4894 O   0  0  0  0  0  0  0  0  0  0  0  0
   -3.9552   -0.1545    1.6360 C   0  0  0  0  0  0  0  0  0  0  0  0
   -2.8466   -1.0765    2.1417 C   0  0  1  0  0  0  0  0  0  0  0  0
   -3.2932   -1.8329    3.2632 O   0  0  0  0  0  0  0  0  0  0  0  0
   -2.4113   -2.1467    1.1535 C   0  0  1  0  0  0  0  0  0  0  0  0
   -1.6697   -1.4942    0.1201 O   0  0  0  0  0  0  0  0  0  0  0  0
   -1.6204   -3.0333    2.0970 C   0  0  1  0  0  0  0  0  0  0  0  0
   -0.4005   -2.4169    2.5226 O   0  0  0  0  0  0  0  0  0  0  0  0
   -2.6173   -3.0906    3.2606 C   0  0  2  0  0  0  0  0  0  0  0  0
   -0.7206   -0.5554    0.5385 C   0  0  2  0  0  0  0  0  0  0  0  0
   -0.6797    0.6047   -0.4653 C   0  0  2  0  0  0  0  0  0  0  0  0
   -0.4693    0.0820   -1.8411 N   0  3  0  0  0  0  0  0  0  0  0  0
    0.3956    1.6245   -0.0766 C   0  0  1  0  0  0  0  0  0  0  0  0
   -0.0106    2.3254    1.0914 O   0  0  0  0  0  0  0  0  0  0  0  0
    1.7416    0.9390    0.1776 C   0  0  2  0  0  0  0  0  0  0  0  0
    2.2727    0.4273   -1.0382 O   0  0  0  0  0  0  0  0  0  0  0  0
    1.5587   -0.1940    1.1835 C   0  0  1  0  0  0  0  0  0  0  0  0
    0.5733   -1.1238    0.6933 O   0  0  0  0  0  0  0  0  0  0  0  0
    2.8376   -0.9664    1.4550 C   0  0  0  0  0  0  0  0  0  0  0  0
    2.6608   -1.9670    2.5308 N   0  3  0  0  0  0  0  0  0  0  0  0
   -6.3517   -1.9240    1.7769 C   0  0  0  0  0  0  0  0  0  0  0  0
   -6.9511   -5.2976    3.1862 C   0  0  2  0  0  0  0  0  0  0  0  0
   -8.0743   -5.7989    2.2817 C   0  0  2  0  0  0  0  0  0  0  0  0
   -8.1664   -7.2769    2.3488 N   0  3  0  0  0  0  0  0  0  0  0  0
   -7.8176   -5.3744    0.8419 C   0  0  1  0  0  0  0  0  0  0  0  0
   -8.9058   -5.7786    0.0253 O   0  0  0  0  0  0  0  0  0  0  0  0
   -7.6481   -3.8581    0.7787 C   0  0  2  0  0  0  0  0  0  0  0  0
   -7.3394   -3.4609   -0.5511 O   0  0  0  0  0  0  0  0  0  0  0  0
   -7.2267   -1.3181    2.8066 N   0  3  0  0  0  0  0  0  0  0  0  0
   -6.5215   -3.4321    1.7181 C   0  0  2  0  0  0  0  0  0  0  0  0
   -6.7953   -3.8868    3.0590 O   0  0  0  0  0  0  0  0  0  0  0  0
   -3.9102   -5.1767    6.6281 C   0  0  2  0  0  0  0  0  0  0  0  0
   -2.9127   -5.1828    7.7227 N   0  3  0  0  0  0  0  0  0  0  0  0
   -4.3679   -6.6005    6.3323 C   0  0  0  0  0  0  0  0  0  0  0  0
   -5.3927   -6.6098    5.2066 C   0  0  2  0  0  0  0  0  0  0  0  0
   -5.7884   -7.9919    4.9753 N   0  3  0  0  0  0  0  0  0  0  0  0
   -4.7829   -5.9998    3.9467 C   0  0  1  0  0  0  0  0  0  0  0  0
   -5.7676   -5.9865    2.8948 O   0  0  0  0  0  0  0  0  0  0  0  0
   -4.3018   -4.5668    4.2136 C   0  0  2  0  0  0  0  0  0  0  0  0
   -3.6399   -4.0593    3.0393 O   0  0  0  0  0  0  0  0  0  0  0  0
   -3.3218   -4.5152    5.3829 C   0  0  1  0  0  0  0  0  0  0  0  0
   -3.0004   -3.1613    5.6732 O   0  0  0  0  0  0  0  0  0  0  0  0
  1  2  1  0  0  0  0
  3  2  1  6  0  0  0
  3  5  1  0  0  0  0
  3  4  1  0  0  0  0
  4  9  1  0  0  0  0
  5  7  1  0  0  0  0
  5  6  1  6  0  0  0
  7  9  1  0  0  0  0
  7  8  1  1  0  0  0
  9 40  1  6  0  0  0
 10  6  1  6  0  0  0
 10 11  1  0  0  0  0
 10 18  1  0  0  0  0
 11 13  1  0  0  0  0
 11 12  1  6  0  0  0
 13 15  1  0  0  0  0
 13 14  1  1  0  0  0
 15 17  1  0  0  0  0
 15 16  1  6  0  0  0
 17 19  1  6  0  0  0
 17 18  1  0  0  0  0
 19 20  1  0  0  0  0
 21 29  1  0  0  0  0
 22 23  1  0  0  0  0
 22 31  1  0  0  0  0
 22 38  1  6  0  0  0
 23 25  1  0  0  0  0
 23 24  1  6  0  0  0
 25 27  1  0  0  0  0
 25 26  1  6  0  0  0
 27 30  1  0  0  0  0
 27 28  1  6  0  0  0
 30 21  1  1  0  0  0
 30 31  1  0  0  0  0
 32 34  1  0  0  0  0
 32 41  1  0  0  0  0
 32 33  1  1  0  0  0
 34 35  1  0  0  0  0
 35 37  1  0  0  0  0
 35 36  1  6  0  0  0
 37 39  1  0  0  0  0
 37 38  1  6  0  0  0
 39 41  1  0  0  0  0
 39 40  1  6  0  0  0
 41 42  1  1  0  0  0
M  CHG  6  12   1  20   1  24   1  29   1  33   1  36   1
M  END
>  <CHROM.1>
61.76944190,-178.61247855,45.16610596,-144.09456195,163.95159163,-88.44551134
-167.25399033,-176.68093024,62.88564336,174.28899555,41.82310206,87.68217222
6.12216773,-157.85635880,68.08988706,-175.39885160,-174.41365769,-170.56337542
64.38841029,57.60070760,-150.91544596,-56.26352947,-3.35489440,-2.86311881
2.25104199,0.64150826,-0.36570485,-0.91112614

>  <Name>
1NEM.B

>  <RI>
0

>  <Rbt.Current_Directory>
/home/itssahil/PROJECTS/Mol_Feturizer/New_Systems/rnas/1nem

>  <Rbt.Executable>
rbdock ($Id: //depot/dev/client3/rdock/2013.1/src/exe/rbdock.cxx#4 $)

>  <Rbt.Library>
libRbt.so (2013.1, Build901 2013/11/27)

>  <Rbt.Parameter_File>
/export/apps/rDock/src/rDock_2013.1_src/data/scripts/dock_solv.prm

>  <Rbt.Receptor>
prm/pocket_docking_7.prm

>  <SCORE>
-24.5055

>  <SCORE.INTER>
-36.9636

>  <SCORE.INTER.CONST>
1

>  <SCORE.INTER.POLAR>
-4.71907

>  <SCORE.INTER.ROT>
9

>  <SCORE.INTER.SOLV>
36.6686

>  <SCORE.INTER.VDW>
-30.735

>  <SCORE.INTER.norm>
-0.880086

>  <SCORE.INTRA>
12.4408

>  <SCORE.INTRA.DIHEDRAL>
2.00986

>  <SCORE.INTRA.DIHEDRAL.0>
22.4324

>  <SCORE.INTRA.POLAR>
0.275007

>  <SCORE.INTRA.POLAR.0>
-1.83749

>  <SCORE.INTRA.REPUL>
0

>  <SCORE.INTRA.REPUL.0>
0

>  <SCORE.INTRA.SOLV>
0.242853

>  <SCORE.INTRA.SOLV.lig_0>
-160.638

>  <SCORE.INTRA.VDW>
10.3794

>  <SCORE.INTRA.VDW.0>
-7.61953

>  <SCORE.INTRA.norm>
0.29621

>  <SCORE.RESTR>
0.0173195

>  <SCORE.RESTR.CAVITY>
0.0173195

>  <SCORE.RESTR.norm>
0.000412369

>  <SCORE.SYSTEM>
0

>  <SCORE.SYSTEM.CONST>
0

>  <SCORE.SYSTEM.DIHEDRAL>
0

>  <SCORE.SYSTEM.SOLV>
0

>  <SCORE.SYSTEM.norm>
0

>  <SCORE.heavy>
42

>  <SCORE.norm>
-0.583464

>  <RMSD>
6.913

$$$$
1NEM.B
 OpenBabel11021811403D
libRbt.so/2013.1/901 2013/11/27
 42 45  0  0  0  0  0  0  0  0999 V2000
    4.5056    2.7467    0.7652 O   0  0  0  0  0  0  0  0  0  0  0  0
    3.1895    2.8437    0.2169 C   0  0  0  0  0  0  0  0  0  0  0  0
    2.8060    1.6352   -0.6358 C   0  0  1  0  0  0  0  0  0  0  0  0
    2.7880    0.4484    0.1521 O   0  0  0  0  0  0  0  0  0  0  0  0
    1.4012    1.6875   -1.2150 C   0  0  1  0  0  0  0  0  0  0  0  0
    1.4066    2.6689   -2.2543 O   0  0  0  0  0  0  0  0  0  0  0  0
    1.2707    0.2404   -1.6517 C   0  0  1  0  0  0  0  0  0  0  0  0
    2.1113   -0.0646   -2.7696 O   0  0  0  0  0  0  0  0  0  0  0  0
    1.8075   -0.4389   -0.3863 C   0  0  2  0  0  0  0  0  0  0  0  0
    1.2749    2.1866   -3.5609 C   0  0  2  0  0  0  0  0  0  0  0  0
    2.6616    2.1094   -4.2140 C   0  0  2  0  0  0  0  0  0  0  0  0
    3.3510    3.4221   -4.1047 N   0  3  0  0  0  0  0  0  0  0  0  0
    2.5534    1.6465   -5.6705 C   0  0  1  0  0  0  0  0  0  0  0  0
    2.1876    0.2735   -5.7094 O   0  0  0  0  0  0  0  0  0  0  0  0
    1.5197    2.4756   -6.4389 C   0  0  2  0  0  0  0  0  0  0  0  0
    1.9826    3.8097   -6.6067 O   0  0  0  0  0  0  0  0  0  0  0  0
    0.1954    2.4755   -5.6806 C   0  0  1  0  0  0  0  0  0  0  0  0
    0.3993    2.9836   -4.3478 O   0  0  0  0  0  0  0  0  0  0  0  0
   -0.8759    3.3216   -6.3458 C   0  0  0  0  0  0  0  0  0  0  0  0
   -1.7358    4.0044   -5.3537 N   0  3  0  0  0  0  0  0  0  0  0  0
   -3.0939   -0.1226    0.2378 C   0  0  0  0  0  0  0  0  0  0  0  0
   -1.2505   -2.9321    1.7983 C   0  0  2  0  0  0  0  0  0  0  0  0
   -2.3047   -4.0356    1.7552 C   0  0  2  0  0  0  0  0  0  0  0  0
   -1.6628   -5.3644    1.8959 N   0  3  0  0  0  0  0  0  0  0  0  0
   -3.0679   -3.9811    0.4386 C   0  0  1  0  0  0  0  0  0  0  0  0
   -4.0951   -4.9606    0.4428 O   0  0  0  0  0  0  0  0  0  0  0  0
   -3.6695   -2.5897    0.2539 C   0  0  2  0  0  0  0  0  0  0  0  0
   -4.3253   -2.5093   -1.0050 O   0  0  0  0  0  0  0  0  0  0  0  0
   -2.0150    0.8757    0.4175 N   0  3  0  0  0  0  0  0  0  0  0  0
   -2.5603   -1.5419    0.3246 C   0  0  2  0  0  0  0  0  0  0  0  0
   -1.8474   -1.6578    1.5729 O   0  0  0  0  0  0  0  0  0  0  0  0
    2.9590   -1.9643    3.3766 C   0  0  2  0  0  0  0  0  0  0  0  0
    4.3244   -1.6079    3.8260 N   0  3  0  0  0  0  0  0  0  0  0  0
    2.9309   -3.4090    2.8904 C   0  0  0  0  0  0  0  0  0  0  0  0
    1.5329   -3.7888    2.4229 C   0  0  2  0  0  0  0  0  0  0  0  0
    1.5734   -5.1737    1.9750 N   0  3  0  0  0  0  0  0  0  0  0  0
    1.0967   -2.8626    1.2900 C   0  0  1  0  0  0  0  0  0  0  0  0
   -0.2378   -3.2105    0.8725 O   0  0  0  0  0  0  0  0  0  0  0  0
    1.1235   -1.3967    1.7444 C   0  0  2  0  0  0  0  0  0  0  0  0
    0.8092   -0.5449    0.6262 O   0  0  0  0  0  0  0  0  0  0  0  0
    2.4972   -1.0036    2.2821 C   0  0  1  0  0  0  0  0  0  0  0  0
    2.4421    0.3174    2.8041 O   0  0  0  0  0  0  0  0  0  0  0  0
  1  2  1  0  0  0  0
  3  2  1  1  0  0  0
  3  5  1  0  0  0  0
  3  4  1  0  0  0  0
  4  9  1  0  0  0  0
  5  7  1  0  0  0  0
  5  6  1  6  0  0  0
  7  9  1  0  0  0  0
  7  8  1  6  0  0  0
  9 40  1  1  0  0  0
 10  6  1  1  0  0  0
 10 11  1  0  0  0  0
 10 18  1  0  0  0  0
 11 13  1  0  0  0  0
 11 12  1  6  0  0  0
 13 15  1  0  0  0  0
 13 14  1  1  0  0  0
 15 17  1  0  0  0  0
 15 16  1  1  0  0  0
 17 19  1  6  0  0  0
 17 18  1  0  0  0  0
 19 20  1  0  0  0  0
 21 29  1  0  0  0  0
 22 23  1  0  0  0  0
 22 31  1  0  0  0  0
 22 38  1  6  0  0  0
 23 25  1  0  0  0  0
 23 24  1  6  0  0  0
 25 27  1  0  0  0  0
 25 26  1  1  0  0  0
 27 30  1  0  0  0  0
 27 28  1  6  0  0  0
 30 21  1  1  0  0  0
 30 31  1  0  0  0  0
 32 34  1  0  0  0  0
 32 41  1  0  0  0  0
 32 33  1  6  0  0  0
 34 35  1  0  0  0  0
 35 37  1  0  0  0  0
 35 36  1  6  0  0  0
 37 39  1  0  0  0  0
 37 38  1  1  0  0  0
 39 41  1  0  0  0  0
 39 40  1  6  0  0  0
 41 42  1  1  0  0  0
M  CHG  6  12   1  20   1  24   1  29   1  33   1  36   1
M  END
>  <CHROM.1>
-177.55260227,62.64197428,110.47438147,-99.00154533,68.57666164,-77.34128133
41.13166816,-76.68511400,174.49928043,-144.04726857,-55.72128345,175.42505142
-106.36851430,-142.82385616,153.42192693,-53.52606198,-41.46697717,-62.85207335
-122.07429380,68.87718288,-71.14284313,72.43860359,0.62784204,-0.29188092
-0.80968311,-1.33826784,0.43252670,2.21805356

>  <Name>
1NEM.B

>  <RI>
0

>  <Rbt.Current_Directory>
/home/itssahil/PROJECTS/Mol_Feturizer/New_Systems/rnas/1nem

>  <Rbt.Executable>
rbdock ($Id: //depot/dev/client3/rdock/2013.1/src/exe/rbdock.cxx#4 $)

>  <Rbt.Library>
libRbt.so (2013.1, Build901 2013/11/27)

>  <Rbt.Parameter_File>
/export/apps/rDock/src/rDock_2013.1_src/data/scripts/dock_solv.prm

>  <Rbt.Receptor>
prm/pocket_docking_6.prm

>  <SCORE>
-38.6345

>  <SCORE.INTER>
-56.7676

>  <SCORE.INTER.CONST>
1

>  <SCORE.INTER.POLAR>
-8.16413

>  <SCORE.INTER.ROT>
9

>  <SCORE.INTER.SOLV>
41.5677

>  <SCORE.INTER.VDW>
-34.0872

>  <SCORE.INTER.norm>
-1.35161

>  <SCORE.INTRA>
17.9998

>  <SCORE.INTRA.DIHEDRAL>
14.0073

>  <SCORE.INTRA.DIHEDRAL.0>
22.4324

>  <SCORE.INTRA.POLAR>
-0.149834

>  <SCORE.INTRA.POLAR.0>
-1.83749

>  <SCORE.INTRA.REPUL>
0

>  <SCORE.INTRA.REPUL.0>
0

>  <SCORE.INTRA.SOLV>
2.40889

>  <SCORE.INTRA.SOLV.lig_0>
-160.638

>  <SCORE.INTRA.VDW>
10.3012

>  <SCORE.INTRA.VDW.0>
-7.61953

>  <SCORE.INTRA.norm>
0.428567

>  <SCORE.RESTR>
0.133262

>  <SCORE.RESTR.CAVITY>
0.133262

>  <SCORE.RESTR.norm>
0.0031729

>  <SCORE.SYSTEM>
0

>  <SCORE.SYSTEM.CONST>
0

>  <SCORE.SYSTEM.DIHEDRAL>
0

>  <SCORE.SYSTEM.SOLV>
0

>  <SCORE.SYSTEM.norm>
0

>  <SCORE.heavy>
42

>  <SCORE.norm>
-0.919869

>  <RMSD>
6.979

$$$$
1NEM.B
 OpenBabel11021811403D
libRbt.so/2013.1/901 2013/11/27
 42 45  0  0  0  0  0  0  0  0999 V2000
   -3.0108   -3.4735   -1.0513 O   0  0  0  0  0  0  0  0  0  0  0  0
   -3.0183   -2.0553   -0.8761 C   0  0  0  0  0  0  0  0  0  0  0  0
   -3.4433   -1.6282    0.5281 C   0  0  1  0  0  0  0  0  0  0  0  0
   -4.4625   -2.4881    1.0292 O   0  0  0  0  0  0  0  0  0  0  0  0
   -2.3518   -1.7347    1.5812 C   0  0  1  0  0  0  0  0  0  0  0  0
   -1.4153   -0.6844    1.3301 O   0  0  0  0  0  0  0  0  0  0  0  0
   -3.2084   -1.5941    2.8256 C   0  0  1  0  0  0  0  0  0  0  0  0
   -3.7282   -0.2690    2.9769 O   0  0  0  0  0  0  0  0  0  0  0  0
   -4.3349   -2.5637    2.4492 C   0  0  2  0  0  0  0  0  0  0  0  0
   -0.1509   -1.0781    0.8790 C   0  0  2  0  0  0  0  0  0  0  0  0
    0.0691   -2.5586    1.2182 C   0  0  2  0  0  0  0  0  0  0  0  0
   -0.1722   -2.7916    2.6666 N   0  3  0  0  0  0  0  0  0  0  0  0
    1.4710   -3.0119    0.7978 C   0  0  1  0  0  0  0  0  0  0  0  0
    1.5485   -3.0714   -0.6203 O   0  0  0  0  0  0  0  0  0  0  0  0
    2.5439   -2.0577    1.3315 C   0  0  2  0  0  0  0  0  0  0  0  0
    2.6341   -2.1580    2.7471 O   0  0  0  0  0  0  0  0  0  0  0  0
    2.2016   -0.6253    0.9317 C   0  0  1  0  0  0  0  0  0  0  0  0
    0.8925   -0.2829    1.4268 O   0  0  0  0  0  0  0  0  0  0  0  0
    3.1876    0.3980    1.4672 C   0  0  0  0  0  0  0  0  0  0  0  0
    2.6964    1.7828    1.2917 N   0  3  0  0  0  0  0  0  0  0  0  0
   -7.4770   -6.2213   -1.5288 C   0  0  0  0  0  0  0  0  0  0  0  0
   -6.0066   -4.6710    1.4980 C   0  0  2  0  0  0  0  0  0  0  0  0
   -6.8746   -3.4231    1.6405 C   0  0  2  0  0  0  0  0  0  0  0  0
   -6.7850   -2.8905    3.0210 N   0  3  0  0  0  0  0  0  0  0  0  0
   -8.3263   -3.7543    1.3210 C   0  0  1  0  0  0  0  0  0  0  0  0
   -9.1087   -2.5717    1.3812 O   0  0  0  0  0  0  0  0  0  0  0  0
   -8.4146   -4.3724   -0.0726 C   0  0  2  0  0  0  0  0  0  0  0  0
   -9.7573   -4.7481   -0.3509 O   0  0  0  0  0  0  0  0  0  0  0  0
   -8.5738   -7.1988   -1.7142 N   0  3  0  0  0  0  0  0  0  0  0  0
   -7.5108   -5.6018   -0.1425 C   0  0  2  0  0  0  0  0  0  0  0  0
   -6.1571   -5.2423    0.2011 O   0  0  0  0  0  0  0  0  0  0  0  0
   -4.0916   -5.5130    6.1302 C   0  0  2  0  0  0  0  0  0  0  0  0
   -3.0173   -5.7780    7.1145 N   0  3  0  0  0  0  0  0  0  0  0  0
   -4.7289   -6.8256    5.6884 C   0  0  0  0  0  0  0  0  0  0  0  0
   -5.8344   -6.5685    4.6740 C   0  0  2  0  0  0  0  0  0  0  0  0
   -6.4005   -7.8556    4.2956 N   0  3  0  0  0  0  0  0  0  0  0  0
   -5.2618   -5.8464    3.4566 C   0  0  1  0  0  0  0  0  0  0  0  0
   -6.3193   -5.5818    2.5142 O   0  0  0  0  0  0  0  0  0  0  0  0
   -4.6027   -4.5228    3.8689 C   0  0  2  0  0  0  0  0  0  0  0  0
   -3.9832   -3.9194    2.7171 O   0  0  0  0  0  0  0  0  0  0  0  0
   -3.5332   -4.7402    4.9364 C   0  0  1  0  0  0  0  0  0  0  0  0
   -3.0392   -3.4820    5.3761 O   0  0  0  0  0  0  0  0  0  0  0  0
  1  2  1  0  0  0  0
  3  2  1  6  0  0  0
  3  5  1  0  0  0  0
  3  4  1  0  0  0  0
  4  9  1  0  0  0  0
  5  7  1  0  0  0  0
  5  6  1  6  0  0  0
  7  9  1  0  0  0  0
  7  8  1  6  0  0  0
  9 40  1  6  0  0  0
 10  6  1  1  0  0  0
 10 11  1  0  0  0  0
 10 18  1  0  0  0  0
 11 13  1  0  0  0  0
 11 12  1  1  0  0  0
 13 15  1  0  0  0  0
 13 14  1  6  0  0  0
 15 17  1  0  0  0  0
 15 16  1  1  0  0  0
 17 19  1  1  0  0  0
 17 18  1  0  0  0  0
 19 20  1  0  0  0  0
 21 29  1  0  0  0  0
 22 23  1  0  0  0  0
 22 31  1  0  0  0  0
 22 38  1  1  0  0  0
 23 25  1  0  0  0  0
 23 24  1  1  0  0  0
 25 27  1  0  0  0  0
 25 26  1  6  0  0  0
 27 30  1  0  0  0  0
 27 28  1  1  0  0  0
 30 21  1  6  0  0  0
 30 31  1  0  0  0  0
 32 34  1  0  0  0  0
 32 41  1  0  0  0  0
 32 33  1  1  0  0  0
 34 35  1  0  0  0  0
 35 37  1  0  0  0  0
 35 36  1  6  0  0  0
 37 39  1  0  0  0  0
 37 38  1  6  0  0  0
 39 41  1  0  0  0  0
 39 40  1  6  0  0  0
 41 42  1  1  0  0  0
M  CHG  6  12   1  20   1  24   1  29   1  33   1  36   1
M  END
>  <CHROM.1>
102.80076914,-36.64885492,-111.49773486,-19.24869037,168.44955674,-140.09192004
123.92628632,-60.76629655,-175.03781056,-168.95000653,71.60453774,-87.20286933
45.71217403,-115.15199238,-45.10579699,-14.97386230,166.53313348,-161.31181848
-48.92942892,166.27599407,127.64808953,70.92590362,-3.52655412,-3.40403456
1.92871215,0.19703156,-0.41511373,-1.13012168

>  <Name>
1NEM.B

>  <RI>
0

>  <Rbt.Current_Directory>
/home/itssahil/PROJECTS/Mol_Feturizer/New_Systems/rnas/1nem

>  <Rbt.Executable>
rbdock ($Id: //depot/dev/client3/rdock/2013.1/src/exe/rbdock.cxx#4 $)

>  <Rbt.Library>
libRbt.so (2013.1, Build901 2013/11/27)

>  <Rbt.Parameter_File>
/export/apps/rDock/src/rDock_2013.1_src/data/scripts/dock_solv.prm

>  <Rbt.Receptor>
prm/blind_docking_40.prm

>  <SCORE>
42.0882

>  <SCORE.INTER>
-10.9306

>  <SCORE.INTER.CONST>
1

>  <SCORE.INTER.POLAR>
-3.17365

>  <SCORE.INTER.ROT>
9

>  <SCORE.INTER.SOLV>
43.03

>  <SCORE.INTER.VDW>
-20.6516

>  <SCORE.INTER.norm>
-0.260253

>  <SCORE.INTRA>
49.4016

>  <SCORE.INTRA.DIHEDRAL>
34.7433

>  <SCORE.INTRA.DIHEDRAL.0>
22.4324

>  <SCORE.INTRA.POLAR>
1.32588

>  <SCORE.INTRA.POLAR.0>
-1.83749

>  <SCORE.INTRA.REPUL>
0

>  <SCORE.INTRA.REPUL.0>
0

>  <SCORE.INTRA.SOLV>
2.48636

>  <SCORE.INTRA.SOLV.lig_0>
-160.638

>  <SCORE.INTRA.VDW>
26.2787

>  <SCORE.INTRA.VDW.0>
-7.61953

>  <SCORE.INTRA.norm>
1.17623

>  <SCORE.RESTR>
3.61725

>  <SCORE.RESTR.CAVITY>
3.61725

>  <SCORE.RESTR.norm>
0.0861251

>  <SCORE.SYSTEM>
0

>  <SCORE.SYSTEM.CONST>
0

>  <SCORE.SYSTEM.DIHEDRAL>
0

>  <SCORE.SYSTEM.SOLV>
0

>  <SCORE.SYSTEM.norm>
0

>  <SCORE.heavy>
42

>  <SCORE.norm>
1.0021

>  <RMSD>
7.022

$$$$
1NEM.B
 OpenBabel11021811403D
libRbt.so/2013.1/901 2013/11/27
 42 45  0  0  0  0  0  0  0  0999 V2000
   -1.2104   -6.0083    1.8526 O   0  0  0  0  0  0  0  0  0  0  0  0
   -1.9144   -5.8494    0.6192 C   0  0  0  0  0  0  0  0  0  0  0  0
   -2.9284   -4.7068    0.6520 C   0  0  1  0  0  0  0  0  0  0  0  0
   -4.0855   -5.0816    1.3936 O   0  0  0  0  0  0  0  0  0  0  0  0
   -2.4494   -3.4538    1.3676 C   0  0  1  0  0  0  0  0  0  0  0  0
   -1.4761   -2.8303    0.5267 O   0  0  0  0  0  0  0  0  0  0  0  0
   -3.7797   -2.7381    1.5086 C   0  0  1  0  0  0  0  0  0  0  0  0
   -4.2765   -2.2682    0.2510 O   0  0  0  0  0  0  0  0  0  0  0  0
   -4.6298   -3.9127    2.0069 C   0  0  2  0  0  0  0  0  0  0  0  0
   -0.1473   -3.2214    0.7235 C   0  0  2  0  0  0  0  0  0  0  0  0
    0.0191   -3.7454    2.1563 C   0  0  2  0  0  0  0  0  0  0  0  0
   -0.4808   -2.7385    3.1292 N   0  3  0  0  0  0  0  0  0  0  0  0
    1.4778   -4.1239    2.4326 C   0  0  1  0  0  0  0  0  0  0  0  0
    1.8136   -5.2963    1.7025 O   0  0  0  0  0  0  0  0  0  0  0  0
    2.4273   -2.9866    2.0434 C   0  0  2  0  0  0  0  0  0  0  0  0
    2.2582   -1.8800    2.9203 O   0  0  0  0  0  0  0  0  0  0  0  0
    2.1521   -2.5578    0.6049 C   0  0  1  0  0  0  0  0  0  0  0  0
    0.7719   -2.1667    0.4707 O   0  0  0  0  0  0  0  0  0  0  0  0
    3.0153   -1.3937    0.1512 C   0  0  0  0  0  0  0  0  0  0  0  0
    2.9171   -1.1691   -1.3082 N   0  3  0  0  0  0  0  0  0  0  0  0
   -8.4634   -8.4869    3.3034 C   0  0  0  0  0  0  0  0  0  0  0  0
   -6.7624   -5.2913    2.5149 C   0  0  2  0  0  0  0  0  0  0  0  0
   -7.2840   -5.0203    1.1058 C   0  0  2  0  0  0  0  0  0  0  0  0
   -7.1141   -3.5884    0.7621 N   0  3  0  0  0  0  0  0  0  0  0  0
   -8.7584   -5.3900    1.0119 C   0  0  1  0  0  0  0  0  0  0  0  0
   -9.2111   -5.2072   -0.3208 O   0  0  0  0  0  0  0  0  0  0  0  0
   -8.9486   -6.8444    1.4366 C   0  0  2  0  0  0  0  0  0  0  0  0
  -10.3308   -7.1770    1.4181 O   0  0  0  0  0  0  0  0  0  0  0  0
   -7.4578   -8.7763    4.3512 N   0  3  0  0  0  0  0  0  0  0  0  0
   -8.3904   -7.0408    2.8448 C   0  0  2  0  0  0  0  0  0  0  0  0
   -7.0043   -6.6451    2.8885 O   0  0  0  0  0  0  0  0  0  0  0  0
   -5.4126   -2.2597    6.5460 C   0  0  2  0  0  0  0  0  0  0  0  0
   -4.6427   -1.9858    7.7812 N   0  3  0  0  0  0  0  0  0  0  0  0
   -6.6504   -3.0861    6.8762 C   0  0  0  0  0  0  0  0  0  0  0  0
   -7.4510   -3.3775    5.6146 C   0  0  2  0  0  0  0  0  0  0  0  0
   -8.6149   -4.1645    5.9969 N   0  3  0  0  0  0  0  0  0  0  0  0
   -6.5831   -4.1388    4.6154 C   0  0  1  0  0  0  0  0  0  0  0  0
   -7.3389   -4.3858    3.4137 O   0  0  0  0  0  0  0  0  0  0  0  0
   -5.3209   -3.3370    4.2687 C   0  0  2  0  0  0  0  0  0  0  0  0
   -4.4763   -4.1252    3.4085 O   0  0  0  0  0  0  0  0  0  0  0  0
   -4.5298   -2.9712    5.5221 C   0  0  1  0  0  0  0  0  0  0  0  0
   -3.4422   -2.1275    5.1671 O   0  0  0  0  0  0  0  0  0  0  0  0
  1  2  1  0  0  0  0
  3  2  1  1  0  0  0
  3  5  1  0  0  0  0
  3  4  1  0  0  0  0
  4  9  1  0  0  0  0
  5  7  1  0  0  0  0
  5  6  1  6  0  0  0
  7  9  1  0  0  0  0
  7  8  1  6  0  0  0
  9 40  1  1  0  0  0
 10  6  1  1  0  0  0
 10 11  1  0  0  0  0
 10 18  1  0  0  0  0
 11 13  1  0  0  0  0
 11 12  1  1  0  0  0
 13 15  1  0  0  0  0
 13 14  1  6  0  0  0
 15 17  1  0  0  0  0
 15 16  1  1  0  0  0
 17 19  1  1  0  0  0
 17 18  1  0  0  0  0
 19 20  1  0  0  0  0
 21 29  1  0  0  0  0
 22 23  1  0  0  0  0
 22 31  1  0  0  0  0
 22 38  1  1  0  0  0
 23 25  1  0  0  0  0
 23 24  1  1  0  0  0
 25 27  1  0  0  0  0
 25 26  1  6  0  0  0
 27 30  1  0  0  0  0
 27 28  1  1  0  0  0
 30 21  1  6  0  0  0
 30 31  1  0  0  0  0
 32 34  1  0  0  0  0
 32 41  1  0  0  0  0
 32 33  1  1  0  0  0
 34 35  1  0  0  0  0
 35 37  1  0  0  0  0
 35 36  1  1  0  0  0
 37 39  1  0  0  0  0
 37 38  1  6  0  0  0
 39 41  1  0  0  0  0
 39 40  1  6  0  0  0
 41 42  1  6  0  0  0
M  CHG  6  12   1  20   1  24   1  29   1  33   1  36   1
M  END
>  <CHROM.1>
-164.23938938,-75.41041963,-90.24562411,-24.58104550,171.13349959,-159.89185735
-25.02883428,48.53896097,-67.44260108,169.04396871,179.86157102,156.00632788
-130.12833405,-155.51496538,-127.26519925,-170.00513718,-144.61477747,-60.12292647
-61.06577803,-168.26738075,94.39317770,-65.30992906,-3.91615334,-4.12684027
2.51156039,0.07071829,-0.35418908,-1.98643980

>  <Name>
1NEM.B

>  <RI>
0

>  <Rbt.Current_Directory>
/home/itssahil/PROJECTS/Mol_Feturizer/New_Systems/rnas/1nem

>  <Rbt.Executable>
rbdock ($Id: //depot/dev/client3/rdock/2013.1/src/exe/rbdock.cxx#4 $)

>  <Rbt.Library>
libRbt.so (2013.1, Build901 2013/11/27)

>  <Rbt.Parameter_File>
/export/apps/rDock/src/rDock_2013.1_src/data/scripts/dock_solv.prm

>  <Rbt.Receptor>
prm/blind_docking_40.prm

>  <SCORE>
-1.93474

>  <SCORE.INTER>
-35.8715

>  <SCORE.INTER.CONST>
1

>  <SCORE.INTER.POLAR>
-6.38334

>  <SCORE.INTER.ROT>
9

>  <SCORE.INTER.SOLV>
39.7387

>  <SCORE.INTER.VDW>
-25.4828

>  <SCORE.INTER.norm>
-0.854083

>  <SCORE.INTRA>
28.586

>  <SCORE.INTRA.DIHEDRAL>
15.5406

>  <SCORE.INTRA.DIHEDRAL.0>
22.4324

>  <SCORE.INTRA.POLAR>
1.48479

>  <SCORE.INTRA.POLAR.0>
-1.83749

>  <SCORE.INTRA.REPUL>
0.0142887

>  <SCORE.INTRA.REPUL.0>
0

>  <SCORE.INTRA.SOLV>
1.49444

>  <SCORE.INTRA.SOLV.lig_0>
-160.638

>  <SCORE.INTRA.VDW>
14.9487

>  <SCORE.INTRA.VDW.0>
-7.61953

>  <SCORE.INTRA.norm>
0.680619

>  <SCORE.RESTR>
5.35074

>  <SCORE.RESTR.CAVITY>
5.35074

>  <SCORE.RESTR.norm>
0.127398

>  <SCORE.SYSTEM>
0

>  <SCORE.SYSTEM.CONST>
0

>  <SCORE.SYSTEM.DIHEDRAL>
0

>  <SCORE.SYSTEM.SOLV>
0

>  <SCORE.SYSTEM.norm>
0

>  <SCORE.heavy>
42

>  <SCORE.norm>
-0.0460653

>  <RMSD>
7.103

$$$$
1NEM.B
 OpenBabel11021811403D
libRbt.so/2013.1/901 2013/11/27
 42 45  0  0  0  0  0  0  0  0999 V2000
   -0.1679   -6.8079    0.3853 O   0  0  0  0  0  0  0  0  0  0  0  0
   -0.6953   -5.8384    1.2930 C   0  0  0  0  0  0  0  0  0  0  0  0
   -2.0597   -5.2990    0.8662 C   0  0  1  0  0  0  0  0  0  0  0  0
   -3.1066   -6.1287    1.3614 O   0  0  0  0  0  0  0  0  0  0  0  0
   -2.4060   -3.9306    1.4310 C   0  0  1  0  0  0  0  0  0  0  0  0
   -1.5928   -2.9720    0.7504 O   0  0  0  0  0  0  0  0  0  0  0  0
   -3.8887   -3.9097    1.1098 C   0  0  1  0  0  0  0  0  0  0  0  0
   -4.1355   -3.7935   -0.2955 O   0  0  0  0  0  0  0  0  0  0  0  0
   -4.2569   -5.3162    1.5963 C   0  0  2  0  0  0  0  0  0  0  0  0
   -0.2113   -3.1875    0.7988 C   0  0  2  0  0  0  0  0  0  0  0  0
    0.2016   -3.5018    2.2431 C   0  0  2  0  0  0  0  0  0  0  0  0
   -0.2919   -2.4387    3.1577 N   0  3  0  0  0  0  0  0  0  0  0  0
    1.7196   -3.6804    2.3497 C   0  0  1  0  0  0  0  0  0  0  0  0
    2.1035   -4.8934    1.7158 O   0  0  0  0  0  0  0  0  0  0  0  0
    2.4612   -2.5060    1.7039 C   0  0  2  0  0  0  0  0  0  0  0  0
    2.2683   -1.3209    2.4659 O   0  0  0  0  0  0  0  0  0  0  0  0
    1.9524   -2.2982    0.2802 C   0  0  1  0  0  0  0  0  0  0  0  0
    0.5283   -2.0803    0.3007 O   0  0  0  0  0  0  0  0  0  0  0  0
    2.5975   -1.1150   -0.4198 C   0  0  0  0  0  0  0  0  0  0  0  0
    2.0382    0.1739    0.0450 N   0  3  0  0  0  0  0  0  0  0  0  0
   -3.3875   -3.3052    4.9329 C   0  0  0  0  0  0  0  0  0  0  0  0
   -6.7767   -2.9783    3.4721 C   0  0  2  0  0  0  0  0  0  0  0  0
   -6.8249   -1.4819    3.1731 C   0  0  2  0  0  0  0  0  0  0  0  0
   -7.8825   -1.1917    2.1756 N   0  3  0  0  0  0  0  0  0  0  0  0
   -5.4807   -1.0107    2.6345 C   0  0  1  0  0  0  0  0  0  0  0  0
   -5.5140    0.3940    2.4341 O   0  0  0  0  0  0  0  0  0  0  0  0
   -4.3773   -1.3740    3.6257 C   0  0  2  0  0  0  0  0  0  0  0  0
   -3.1110   -0.9994    3.0988 O   0  0  0  0  0  0  0  0  0  0  0  0
   -3.3536   -4.7774    5.0892 N   0  3  0  0  0  0  0  0  0  0  0  0
   -4.4020   -2.8789    3.8862 C   0  0  2  0  0  0  0  0  0  0  0  0
   -5.7038   -3.2787    4.3608 O   0  0  0  0  0  0  0  0  0  0  0  0
   -7.3825   -7.5041    4.0219 C   0  0  2  0  0  0  0  0  0  0  0  0
   -7.5069   -8.9726    4.1682 N   0  3  0  0  0  0  0  0  0  0  0  0
   -8.3442   -7.0039    2.9499 C   0  0  0  0  0  0  0  0  0  0  0  0
   -8.2255   -5.4950    2.7870 C   0  0  2  0  0  0  0  0  0  0  0  0
   -9.1664   -5.0826    1.7551 N   0  3  0  0  0  0  0  0  0  0  0  0
   -6.7954   -5.1275    2.3983 C   0  0  1  0  0  0  0  0  0  0  0  0
   -6.6846   -3.6962    2.2737 O   0  0  0  0  0  0  0  0  0  0  0  0
   -5.7990   -5.6265    3.4540 C   0  0  2  0  0  0  0  0  0  0  0  0
   -4.4563   -5.3570    3.0076 O   0  0  0  0  0  0  0  0  0  0  0  0
   -5.9395   -7.1284    3.6888 C   0  0  1  0  0  0  0  0  0  0  0  0
   -5.0889   -7.5232    4.7571 O   0  0  0  0  0  0  0  0  0  0  0  0
  1  2  1  0  0  0  0
  3  2  1  1  0  0  0
  3  5  1  0  0  0  0
  3  4  1  0  0  0  0
  4  9  1  0  0  0  0
  5  7  1  0  0  0  0
  5  6  1  6  0  0  0
  7  9  1  0  0  0  0
  7  8  1  6  0  0  0
  9 40  1  1  0  0  0
 10  6  1  1  0  0  0
 10 11  1  0  0  0  0
 10 18  1  0  0  0  0
 11 13  1  0  0  0  0
 11 12  1  1  0  0  0
 13 15  1  0  0  0  0
 13 14  1  6  0  0  0
 15 17  1  0  0  0  0
 15 16  1  1  0  0  0
 17 19  1  1  0  0  0
 17 18  1  0  0  0  0
 19 20  1  0  0  0  0
 21 29  1  0  0  0  0
 22 23  1  0  0  0  0
 22 31  1  0  0  0  0
 22 38  1  6  0  0  0
 23 25  1  0  0  0  0
 23 24  1  6  0  0  0
 25 27  1  0  0  0  0
 25 26  1  1  0  0  0
 27 30  1  0  0  0  0
 27 28  1  6  0  0  0
 30 21  1  1  0  0  0
 30 31  1  0  0  0  0
 32 34  1  0  0  0  0
 32 41  1  0  0  0  0
 32 33  1  6  0  0  0
 34 35  1  0  0  0  0
 35 37  1  0  0  0  0
 35 36  1  6  0  0  0
 37 39  1  0  0  0  0
 37 38  1  1  0  0  0
 39 41  1  0  0  0  0
 39 40  1  6  0  0  0
 41 42  1  1  0  0  0
M  CHG  6  12   1  20   1  24   1  29   1  33   1  36   1
M  END
>  <CHROM.1>
123.02425234,87.23811811,-55.75005317,-46.95230696,-55.48740276,-132.11623274
148.83779622,59.40945165,141.78925415,-76.73236705,-66.54491400,-175.40366675
-72.64620758,-172.71905035,-79.93410509,178.19931166,-171.44148727,25.64640546
30.50710918,69.40956899,-28.20734429,-176.51455362,-3.28861538,-3.84513687
2.30922921,-0.34076030,-0.21893468,3.06518059

>  <Name>
1NEM.B

>  <RI>
0

>  <Rbt.Current_Directory>
/home/itssahil/PROJECTS/Mol_Feturizer/New_Systems/rnas/1nem

>  <Rbt.Executable>
rbdock ($Id: //depot/dev/client3/rdock/2013.1/src/exe/rbdock.cxx#4 $)

>  <Rbt.Library>
libRbt.so (2013.1, Build901 2013/11/27)

>  <Rbt.Parameter_File>
/export/apps/rDock/src/rDock_2013.1_src/data/scripts/dock_solv.prm

>  <Rbt.Receptor>
prm/blind_docking_100.prm

>  <SCORE>
-12.4432

>  <SCORE.INTER>
-40.6313

>  <SCORE.INTER.CONST>
1

>  <SCORE.INTER.POLAR>
-8.08168

>  <SCORE.INTER.ROT>
9

>  <SCORE.INTER.SOLV>
46.8042

>  <SCORE.INTER.VDW>
-25.35

>  <SCORE.INTER.norm>
-0.967411

>  <SCORE.INTRA>
26.9875

>  <SCORE.INTRA.DIHEDRAL>
13.6712

>  <SCORE.INTRA.DIHEDRAL.0>
22.4324

>  <SCORE.INTRA.POLAR>
-0.458216

>  <SCORE.INTRA.POLAR.0>
-1.83749

>  <SCORE.INTRA.REPUL>
0.118442

>  <SCORE.INTRA.REPUL.0>
0

>  <SCORE.INTRA.SOLV>
7.97917

>  <SCORE.INTRA.SOLV.lig_0>
-160.638

>  <SCORE.INTRA.VDW>
17.128

>  <SCORE.INTRA.VDW.0>
-7.61953

>  <SCORE.INTRA.norm>
0.642559

>  <SCORE.RESTR>
1.20063

>  <SCORE.RESTR.CAVITY>
1.20063

>  <SCORE.RESTR.norm>
0.0285865

>  <SCORE.SYSTEM>
0

>  <SCORE.SYSTEM.CONST>
0

>  <SCORE.SYSTEM.DIHEDRAL>
0

>  <SCORE.SYSTEM.SOLV>
0

>  <SCORE.SYSTEM.norm>
0

>  <SCORE.heavy>
42

>  <SCORE.norm>
-0.296266

>  <RMSD>
7.129

$$$$
1NEM.B
 OpenBabel11021811403D
libRbt.so/2013.1/901 2013/11/27
 42 45  0  0  0  0  0  0  0  0999 V2000
    2.0340    5.5937    1.0249 O   0  0  0  0  0  0  0  0  0  0  0  0
    1.8379    4.5249    0.0967 C   0  0  0  0  0  0  0  0  0  0  0  0
    2.9199    3.4497    0.1851 C   0  0  1  0  0  0  0  0  0  0  0  0
    2.5319    2.4178    1.0874 O   0  0  0  0  0  0  0  0  0  0  0  0
    3.1747    2.6979   -1.1116 C   0  0  1  0  0  0  0  0  0  0  0  0
    3.8564    3.5922   -1.9941 O   0  0  0  0  0  0  0  0  0  0  0  0
    3.9874    1.5417   -0.5597 C   0  0  1  0  0  0  0  0  0  0  0  0
    5.2857    1.9549   -0.1206 O   0  0  0  0  0  0  0  0  0  0  0  0
    3.1093    1.1887    0.6466 C   0  0  2  0  0  0  0  0  0  0  0  0
    4.3226    3.0422   -3.1930 C   0  0  2  0  0  0  0  0  0  0  0  0
    5.1702    4.0861   -3.9328 C   0  0  2  0  0  0  0  0  0  0  0  0
    4.4025    5.3497   -4.0882 N   0  3  0  0  0  0  0  0  0  0  0  0
    5.6466    3.5434   -5.2841 C   0  0  1  0  0  0  0  0  0  0  0  0
    6.6268    2.5354   -5.0753 O   0  0  0  0  0  0  0  0  0  0  0  0
    4.4793    2.9659   -6.0906 C   0  0  2  0  0  0  0  0  0  0  0  0
    3.6024    4.0061   -6.5042 O   0  0  0  0  0  0  0  0  0  0  0  0
    3.7197    1.9520   -5.2399 C   0  0  1  0  0  0  0  0  0  0  0  0
    3.2665    2.5803   -4.0250 O   0  0  0  0  0  0  0  0  0  0  0  0
    2.5087    1.3663   -5.9445 C   0  0  0  0  0  0  0  0  0  0  0  0
    2.0904    0.0791   -5.3463 N   0  3  0  0  0  0  0  0  0  0  0  0
   -5.0552   -0.1181    1.0091 C   0  0  0  0  0  0  0  0  0  0  0  0
   -1.6839   -0.3042   -0.5163 C   0  0  2  0  0  0  0  0  0  0  0  0
   -1.7065    0.9189   -1.4298 C   0  0  2  0  0  0  0  0  0  0  0  0
   -0.3245    1.3155   -1.7909 N   0  3  0  0  0  0  0  0  0  0  0  0
   -2.3990    2.0821   -0.7324 C   0  0  1  0  0  0  0  0  0  0  0  0
   -2.4826    3.1873   -1.6190 O   0  0  0  0  0  0  0  0  0  0  0  0
   -3.7974    1.6547   -0.2922 C   0  0  2  0  0  0  0  0  0  0  0  0
   -4.4247    2.7128    0.4208 O   0  0  0  0  0  0  0  0  0  0  0  0
   -4.9413   -1.1169    2.0964 N   0  3  0  0  0  0  0  0  0  0  0  0
   -3.6947    0.4208    0.6022 C   0  0  2  0  0  0  0  0  0  0  0  0
   -3.0024   -0.6377   -0.0905 O   0  0  0  0  0  0  0  0  0  0  0  0
    1.9153   -2.5350    2.6759 C   0  0  2  0  0  0  0  0  0  0  0  0
    2.9119   -3.5937    2.9572 N   0  3  0  0  0  0  0  0  0  0  0  0
    0.6283   -3.1580    2.1472 C   0  0  0  0  0  0  0  0  0  0  0  0
   -0.4054   -2.0804    1.8514 C   0  0  2  0  0  0  0  0  0  0  0  0
   -1.6054   -2.7381    1.3539 N   0  3  0  0  0  0  0  0  0  0  0  0
    0.1480   -1.1025    0.8176 C   0  0  1  0  0  0  0  0  0  0  0  0
   -0.8249   -0.0703    0.5642 O   0  0  0  0  0  0  0  0  0  0  0  0
    1.4519   -0.4637    1.3156 C   0  0  2  0  0  0  0  0  0  0  0  0
    2.0010    0.3708    0.2780 O   0  0  0  0  0  0  0  0  0  0  0  0
    2.4875   -1.5230    1.6846 C   0  0  1  0  0  0  0  0  0  0  0  0
    3.6272   -0.8937    2.2552 O   0  0  0  0  0  0  0  0  0  0  0  0
  1  2  1  0  0  0  0
  3  2  1  6  0  0  0
  3  5  1  0  0  0  0
  3  4  1  0  0  0  0
  4  9  1  0  0  0  0
  5  7  1  0  0  0  0
  5  6  1  6  0  0  0
  7  9  1  0  0  0  0
  7  8  1  1  0  0  0
  9 40  1  6  0  0  0
 10  6  1  1  0  0  0
 10 11  1  0  0  0  0
 10 18  1  0  0  0  0
 11 13  1  0  0  0  0
 11 12  1  6  0  0  0
 13 15  1  0  0  0  0
 13 14  1  1  0  0  0
 15 17  1  0  0  0  0
 15 16  1  1  0  0  0
 17 19  1  6  0  0  0
 17 18  1  0  0  0  0
 19 20  1  0  0  0  0
 21 29  1  0  0  0  0
 22 23  1  0  0  0  0
 22 31  1  0  0  0  0
 22 38  1  1  0  0  0
 23 25  1  0  0  0  0
 23 24  1  1  0  0  0
 25 27  1  0  0  0  0
 25 26  1  6  0  0  0
 27 30  1  0  0  0  0
 27 28  1  1  0  0  0
 30 21  1  6  0  0  0
 30 31  1  0  0  0  0
 32 34  1  0  0  0  0
 32 41  1  0  0  0  0
 32 33  1  6  0  0  0
 34 35  1  0  0  0  0
 35 37  1  0  0  0  0
 35 36  1  6  0  0  0
 37 39  1  0  0  0  0
 37 38  1  1  0  0  0
 39 41  1  0  0  0  0
 39 40  1  6  0  0  0
 41 42  1  1  0  0  0
M  CHG  6  12   1  20   1  24   1  29   1  33   1  36   1
M  END
>  <CHROM.1>
-49.51580214,91.95170555,172.83305870,-173.13379771,64.59791108,-90.49380521
171.41903712,-60.73572335,75.28916530,159.16938491,56.26152523,-167.66187137
50.23763351,-129.80371176,86.46080031,68.70640117,-177.16103976,135.21229831
-52.58534011,-93.35946553,171.23160279,79.79606374,1.26640774,1.22489626
-0.95203120,0.80221108,0.06678345,-0.86994369

>  <Name>
1NEM.B

>  <RI>
0

>  <Rbt.Current_Directory>
/home/itssahil/PROJECTS/Mol_Feturizer/New_Systems/rnas/1nem

>  <Rbt.Executable>
rbdock ($Id: //depot/dev/client3/rdock/2013.1/src/exe/rbdock.cxx#4 $)

>  <Rbt.Library>
libRbt.so (2013.1, Build901 2013/11/27)

>  <Rbt.Parameter_File>
/export/apps/rDock/src/rDock_2013.1_src/data/scripts/dock_solv.prm

>  <Rbt.Receptor>
prm/pocket_docking_7.prm

>  <SCORE>
-41.1744

>  <SCORE.INTER>
-45.8531

>  <SCORE.INTER.CONST>
1

>  <SCORE.INTER.POLAR>
-6.46116

>  <SCORE.INTER.ROT>
9

>  <SCORE.INTER.SOLV>
34.1532

>  <SCORE.INTER.VDW>
-30.0159

>  <SCORE.INTER.norm>
-1.09174

>  <SCORE.INTRA>
4.6614

>  <SCORE.INTRA.DIHEDRAL>
7.7119

>  <SCORE.INTRA.DIHEDRAL.0>
22.4324

>  <SCORE.INTRA.POLAR>
-0.529386

>  <SCORE.INTRA.POLAR.0>
-1.83749

>  <SCORE.INTRA.REPUL>
0.0262292

>  <SCORE.INTRA.REPUL.0>
0

>  <SCORE.INTRA.SOLV>
-2.40551

>  <SCORE.INTRA.SOLV.lig_0>
-160.638

>  <SCORE.INTRA.VDW>
3.67697

>  <SCORE.INTRA.VDW.0>
-7.61953

>  <SCORE.INTRA.norm>
0.110986

>  <SCORE.RESTR>
0.0173098

>  <SCORE.RESTR.CAVITY>
0.0173098

>  <SCORE.RESTR.norm>
0.000412138

>  <SCORE.SYSTEM>
0

>  <SCORE.SYSTEM.CONST>
0

>  <SCORE.SYSTEM.DIHEDRAL>
0

>  <SCORE.SYSTEM.SOLV>
0

>  <SCORE.SYSTEM.norm>
0

>  <SCORE.heavy>
42

>  <SCORE.norm>
-0.980342

>  <RMSD>
7.130

$$$$
1NEM.B
 OpenBabel11021811403D
libRbt.so/2013.1/901 2013/11/27
 42 45  0  0  0  0  0  0  0  0999 V2000
   -3.6733    2.7658   -0.6123 O   0  0  0  0  0  0  0  0  0  0  0  0
   -2.5566    2.7993   -1.5032 C   0  0  0  0  0  0  0  0  0  0  0  0
   -1.2358    2.4469   -0.8206 C   0  0  1  0  0  0  0  0  0  0  0  0
   -1.4568    1.5753    0.2844 O   0  0  0  0  0  0  0  0  0  0  0  0
   -0.2618    1.6658   -1.6882 C   0  0  1  0  0  0  0  0  0  0  0  0
    0.2563    2.5709   -2.6658 O   0  0  0  0  0  0  0  0  0  0  0  0
    0.7032    1.2097   -0.6099 C   0  0  1  0  0  0  0  0  0  0  0  0
    1.4769    2.2931   -0.0837 O   0  0  0  0  0  0  0  0  0  0  0  0
   -0.3144    0.7320    0.4328 C   0  0  2  0  0  0  0  0  0  0  0  0
    0.4451    2.0513   -3.9509 C   0  0  2  0  0  0  0  0  0  0  0  0
    1.6483    1.0986   -3.9399 C   0  0  2  0  0  0  0  0  0  0  0  0
    2.8370    1.7843   -3.3680 N   0  3  0  0  0  0  0  0  0  0  0  0
    1.9286    0.5578   -5.3457 C   0  0  1  0  0  0  0  0  0  0  0  0
    0.9012   -0.3495   -5.7221 O   0  0  0  0  0  0  0  0  0  0  0  0
    2.0107    1.6945   -6.3692 C   0  0  2  0  0  0  0  0  0  0  0  0
    3.1718    2.4827   -6.1398 O   0  0  0  0  0  0  0  0  0  0  0  0
    0.7618    2.5658   -6.2697 C   0  0  1  0  0  0  0  0  0  0  0  0
    0.6270    3.0693   -4.9265 O   0  0  0  0  0  0  0  0  0  0  0  0
    0.7833    3.7537   -7.2155 C   0  0  0  0  0  0  0  0  0  0  0  0
   -0.4598    3.8474   -8.0129 N   0  3  0  0  0  0  0  0  0  0  0  0
   -5.4447   -5.2842    2.6365 C   0  0  0  0  0  0  0  0  0  0  0  0
   -3.9552   -2.6594    0.4873 C   0  0  2  0  0  0  0  0  0  0  0  0
   -5.1061   -1.6597    0.4036 C   0  0  2  0  0  0  0  0  0  0  0  0
   -4.6009   -0.3291   -0.0111 N   0  3  0  0  0  0  0  0  0  0  0  0
   -5.7951   -1.5384    1.7562 C   0  0  1  0  0  0  0  0  0  0  0  0
   -6.9097   -0.6665    1.6462 O   0  0  0  0  0  0  0  0  0  0  0  0
   -6.2521   -2.9188    2.2226 C   0  0  2  0  0  0  0  0  0  0  0  0
   -6.8347   -2.8242    3.5160 O   0  0  0  0  0  0  0  0  0  0  0  0
   -6.0959   -5.3391    3.9653 N   0  3  0  0  0  0  0  0  0  0  0  0
   -5.0532   -3.8644    2.2657 C   0  0  2  0  0  0  0  0  0  0  0  0
   -4.4166   -3.9174    0.9727 O   0  0  0  0  0  0  0  0  0  0  0  0
    1.0987   -3.2808    1.9882 C   0  0  2  0  0  0  0  0  0  0  0  0
    2.4498   -3.8456    1.7671 N   0  3  0  0  0  0  0  0  0  0  0  0
    0.0452   -4.3707    1.8249 C   0  0  0  0  0  0  0  0  0  0  0  0
   -1.3499   -3.8036    2.0473 C   0  0  2  0  0  0  0  0  0  0  0  0
   -2.3048   -4.8899    1.8795 N   0  3  0  0  0  0  0  0  0  0  0  0
   -1.6185   -2.6828    1.0458 C   0  0  1  0  0  0  0  0  0  0  0  0
   -2.9293   -2.1327    1.2812 O   0  0  0  0  0  0  0  0  0  0  0  0
   -0.5676   -1.5717    1.1773 C   0  0  2  0  0  0  0  0  0  0  0  0
   -0.7872   -0.5837    0.1524 O   0  0  0  0  0  0  0  0  0  0  0  0
    0.8485   -2.1214    1.0252 C   0  0  1  0  0  0  0  0  0  0  0  0
    1.7890   -1.0856    1.2768 O   0  0  0  0  0  0  0  0  0  0  0  0
  1  2  1  0  0  0  0
  3  2  1  6  0  0  0
  3  5  1  0  0  0  0
  3  4  1  0  0  0  0
  4  9  1  0  0  0  0
  5  7  1  0  0  0  0
  5  6  1  6  0  0  0
  7  9  1  0  0  0  0
  7  8  1  1  0  0  0
  9 40  1  6  0  0  0
 10  6  1  1  0  0  0
 10 11  1  0  0  0  0
 10 18  1  0  0  0  0
 11 13  1  0  0  0  0
 11 12  1  6  0  0  0
 13 15  1  0  0  0  0
 13 14  1  6  0  0  0
 15 17  1  0  0  0  0
 15 16  1  1  0  0  0
 17 19  1  6  0  0  0
 17 18  1  0  0  0  0
 19 20  1  0  0  0  0
 21 29  1  0  0  0  0
 22 23  1  0  0  0  0
 22 31  1  0  0  0  0
 22 38  1  1  0  0  0
 23 25  1  0  0  0  0
 23 24  1  1  0  0  0
 25 27  1  0  0  0  0
 25 26  1  6  0  0  0
 27 30  1  0  0  0  0
 27 28  1  1  0  0  0
 30 21  1  6  0  0  0
 30 31  1  0  0  0  0
 32 34  1  0  0  0  0
 32 41  1  0  0  0  0
 32 33  1  6  0  0  0
 34 35  1  0  0  0  0
 35 37  1  0  0  0  0
 35 36  1  6  0  0  0
 37 39  1  0  0  0  0
 37 38  1  1  0  0  0
 39 41  1  0  0  0  0
 39 40  1  6  0  0  0
 41 42  1  1  0  0  0
M  CHG  6  12   1  20   1  24   1  29   1  33   1  36   1
M  END
>  <CHROM.1>
176.56673329,28.33546174,-141.48499365,-72.14478620,-173.29861730,-124.16670490
62.52808119,-165.24253733,57.98610640,129.41205628,65.28148198,-59.38167528
44.84466797,-156.90149527,92.41586838,-178.27651990,-41.12355516,172.43219299
-121.53213555,-95.48832715,154.73585934,-70.00342646,-1.34820309,-0.47706369
-0.78766922,1.02074531,0.17581301,-0.80000881

>  <Name>
1NEM.B

>  <RI>
0

>  <Rbt.Current_Directory>
/home/itssahil/PROJECTS/Mol_Feturizer/New_Systems/rnas/1nem

>  <Rbt.Executable>
rbdock ($Id: //depot/dev/client3/rdock/2013.1/src/exe/rbdock.cxx#4 $)

>  <Rbt.Library>
libRbt.so (2013.1, Build901 2013/11/27)

>  <Rbt.Parameter_File>
/export/apps/rDock/src/rDock_2013.1_src/data/scripts/dock_solv.prm

>  <Rbt.Receptor>
prm/pocket_docking_8.prm

>  <SCORE>
-26.8296

>  <SCORE.INTER>
-41.015

>  <SCORE.INTER.CONST>
1

>  <SCORE.INTER.POLAR>
-5.663

>  <SCORE.INTER.ROT>
9

>  <SCORE.INTER.SOLV>
28.4637

>  <SCORE.INTER.VDW>
-27.5546

>  <SCORE.INTER.norm>
-0.976547

>  <SCORE.INTRA>
14.1853

>  <SCORE.INTRA.DIHEDRAL>
18.0528

>  <SCORE.INTRA.DIHEDRAL.0>
22.4324

>  <SCORE.INTRA.POLAR>
-0.078331

>  <SCORE.INTRA.POLAR.0>
-1.83749

>  <SCORE.INTRA.REPUL>
0

>  <SCORE.INTRA.REPUL.0>
0

>  <SCORE.INTRA.SOLV>
1.74396

>  <SCORE.INTRA.SOLV.lig_0>
-160.638

>  <SCORE.INTRA.VDW>
4.55327

>  <SCORE.INTRA.VDW.0>
-7.61953

>  <SCORE.INTRA.norm>
0.337746

>  <SCORE.RESTR>
0

>  <SCORE.RESTR.CAVITY>
0

>  <SCORE.RESTR.norm>
0

>  <SCORE.SYSTEM>
0

>  <SCORE.SYSTEM.CONST>
0

>  <SCORE.SYSTEM.DIHEDRAL>
0

>  <SCORE.SYSTEM.SOLV>
0

>  <SCORE.SYSTEM.norm>
0

>  <SCORE.heavy>
42

>  <SCORE.norm>
-0.638801

>  <RMSD>
7.184

$$$$
1NEM.B
 OpenBabel11021811403D
libRbt.so/2013.1/901 2013/11/27
 42 45  0  0  0  0  0  0  0  0999 V2000
    1.1635   -4.1407    2.8488 O   0  0  0  0  0  0  0  0  0  0  0  0
    0.0404   -3.2753    2.6705 C   0  0  0  0  0  0  0  0  0  0  0  0
   -0.9674   -3.8050    1.6515 C   0  0  1  0  0  0  0  0  0  0  0  0
   -1.5540   -5.0202    2.1083 O   0  0  0  0  0  0  0  0  0  0  0  0
   -2.1707   -2.9045    1.4221 C   0  0  1  0  0  0  0  0  0  0  0  0
   -1.7170   -1.7702    0.6801 O   0  0  0  0  0  0  0  0  0  0  0  0
   -3.0625   -3.8841    0.6825 C   0  0  1  0  0  0  0  0  0  0  0  0
   -2.5732   -4.1748   -0.6310 O   0  0  0  0  0  0  0  0  0  0  0  0
   -2.8836   -5.1035    1.5946 C   0  0  2  0  0  0  0  0  0  0  0  0
   -2.4521   -0.5909    0.8421 C   0  0  2  0  0  0  0  0  0  0  0  0
   -3.9480   -0.9038    0.7023 C   0  0  2  0  0  0  0  0  0  0  0  0
   -4.2021   -1.6216   -0.5745 N   0  3  0  0  0  0  0  0  0  0  0  0
   -4.7850    0.3751    0.8089 C   0  0  1  0  0  0  0  0  0  0  0  0
   -4.7587    0.8530    2.1474 O   0  0  0  0  0  0  0  0  0  0  0  0
   -4.2584    1.4608   -0.1347 C   0  0  2  0  0  0  0  0  0  0  0  0
   -4.4883    1.0923   -1.4887 O   0  0  0  0  0  0  0  0  0  0  0  0
   -2.7650    1.6667    0.1025 C   0  0  1  0  0  0  0  0  0  0  0  0
   -2.0678    0.4193   -0.0814 O   0  0  0  0  0  0  0  0  0  0  0  0
   -2.1459    2.6918   -0.8313 C   0  0  0  0  0  0  0  0  0  0  0  0
   -0.7014    2.8771   -0.5684 N   0  3  0  0  0  0  0  0  0  0  0  0
   -6.6171   -6.7991    3.6009 C   0  0  0  0  0  0  0  0  0  0  0  0
   -5.8401   -4.4897    0.8098 C   0  0  2  0  0  0  0  0  0  0  0  0
   -7.1875   -4.4295    0.0942 C   0  0  2  0  0  0  0  0  0  0  0  0
   -7.2561   -3.2272   -0.7703 N   0  3  0  0  0  0  0  0  0  0  0  0
   -8.3202   -4.3848    1.1110 C   0  0  1  0  0  0  0  0  0  0  0  0
   -9.5680   -4.4076    0.4350 O   0  0  0  0  0  0  0  0  0  0  0  0
   -8.2103   -5.5829    2.0514 C   0  0  2  0  0  0  0  0  0  0  0  0
   -9.2232   -5.5114    3.0466 O   0  0  0  0  0  0  0  0  0  0  0  0
   -5.1971   -6.9343    3.9988 N   0  3  0  0  0  0  0  0  0  0  0  0
   -6.8348   -5.5842    2.7158 C   0  0  2  0  0  0  0  0  0  0  0  0
   -5.7993   -5.5920    1.7121 O   0  0  0  0  0  0  0  0  0  0  0  0
   -4.2319   -2.3983    5.3823 C   0  0  2  0  0  0  0  0  0  0  0  0
   -4.0852   -2.4546    6.8549 N   0  3  0  0  0  0  0  0  0  0  0  0
   -5.6719   -2.0584    5.0147 C   0  0  0  0  0  0  0  0  0  0  0  0
   -5.8382   -1.9993    3.5027 C   0  0  2  0  0  0  0  0  0  0  0  0
   -7.2281   -1.6706    3.2195 N   0  3  0  0  0  0  0  0  0  0  0  0
   -5.4606   -3.3448    2.8877 C   0  0  1  0  0  0  0  0  0  0  0  0
   -5.5935   -3.2718    1.4547 O   0  0  0  0  0  0  0  0  0  0  0  0
   -4.0169   -3.7221    3.2477 C   0  0  2  0  0  0  0  0  0  0  0  0
   -3.7278   -5.0394    2.7419 O   0  0  0  0  0  0  0  0  0  0  0  0
   -3.8006   -3.7248    4.7589 C   0  0  1  0  0  0  0  0  0  0  0  0
   -2.4267   -3.9559    5.0411 O   0  0  0  0  0  0  0  0  0  0  0  0
  1  2  1  0  0  0  0
  3  2  1  1  0  0  0
  3  5  1  0  0  0  0
  3  4  1  0  0  0  0
  4  9  1  0  0  0  0
  5  7  1  0  0  0  0
  5  6  1  6  0  0  0
  7  9  1  0  0  0  0
  7  8  1  6  0  0  0
  9 40  1  1  0  0  0
 10  6  1  6  0  0  0
 10 11  1  0  0  0  0
 10 18  1  0  0  0  0
 11 13  1  0  0  0  0
 11 12  1  6  0  0  0
 13 15  1  0  0  0  0
 13 14  1  1  0  0  0
 15 17  1  0  0  0  0
 15 16  1  6  0  0  0
 17 19  1  6  0  0  0
 17 18  1  0  0  0  0
 19 20  1  0  0  0  0
 21 29  1  0  0  0  0
 22 23  1  0  0  0  0
 22 31  1  0  0  0  0
 22 38  1  1  0  0  0
 23 25  1  0  0  0  0
 23 24  1  1  0  0  0
 25 27  1  0  0  0  0
 25 26  1  6  0  0  0
 27 30  1  0  0  0  0
 27 28  1  1  0  0  0
 30 21  1  1  0  0  0
 30 31  1  0  0  0  0
 32 34  1  0  0  0  0
 32 41  1  0  0  0  0
 32 33  1  1  0  0  0
 34 35  1  0  0  0  0
 35 37  1  0  0  0  0
 35 36  1  1  0  0  0
 37 39  1  0  0  0  0
 37 38  1  6  0  0  0
 39 41  1  0  0  0  0
 39 40  1  1  0  0  0
 41 42  1  6  0  0  0
M  CHG  6  12   1  20   1  24   1  29   1  33   1  36   1
M  END
>  <CHROM.1>
-58.06625524,64.44206320,-153.46884971,-47.72313293,62.46481950,82.87401755
146.17439953,-41.71557110,-174.05637629,179.49874485,65.95179231,167.78277460
134.01600191,118.42048013,-165.70348165,60.33903422,54.28689990,150.56905384
-176.78683707,-154.04201749,105.95762863,-58.80930205,-4.33598059,-2.76858055
1.82052105,-0.91299812,0.23839125,2.52964144

>  <Name>
1NEM.B

>  <RI>
0

>  <Rbt.Current_Directory>
/home/itssahil/PROJECTS/Mol_Feturizer/New_Systems/rnas/1nem

>  <Rbt.Executable>
rbdock ($Id: //depot/dev/client3/rdock/2013.1/src/exe/rbdock.cxx#4 $)

>  <Rbt.Library>
libRbt.so (2013.1, Build901 2013/11/27)

>  <Rbt.Parameter_File>
/export/apps/rDock/src/rDock_2013.1_src/data/scripts/dock_solv.prm

>  <Rbt.Receptor>
prm/blind_docking_20.prm

>  <SCORE>
-23.9927

>  <SCORE.INTER>
-45.6938

>  <SCORE.INTER.CONST>
1

>  <SCORE.INTER.POLAR>
-5.8085

>  <SCORE.INTER.ROT>
9

>  <SCORE.INTER.SOLV>
46.4173

>  <SCORE.INTER.VDW>
-36.1733

>  <SCORE.INTER.norm>
-1.08795

>  <SCORE.INTRA>
16.3372

>  <SCORE.INTRA.DIHEDRAL>
10.4967

>  <SCORE.INTRA.DIHEDRAL.0>
22.4324

>  <SCORE.INTRA.POLAR>
-1.19761

>  <SCORE.INTRA.POLAR.0>
-1.83749

>  <SCORE.INTRA.REPUL>
0.0361751

>  <SCORE.INTRA.REPUL.0>
0

>  <SCORE.INTRA.SOLV>
8.90616

>  <SCORE.INTRA.SOLV.lig_0>
-160.638

>  <SCORE.INTRA.VDW>
10.5268

>  <SCORE.INTRA.VDW.0>
-7.61953

>  <SCORE.INTRA.norm>
0.388981

>  <SCORE.RESTR>
5.36389

>  <SCORE.RESTR.CAVITY>
5.36389

>  <SCORE.RESTR.norm>
0.127712

>  <SCORE.SYSTEM>
0

>  <SCORE.SYSTEM.CONST>
0

>  <SCORE.SYSTEM.DIHEDRAL>
0

>  <SCORE.SYSTEM.SOLV>
0

>  <SCORE.SYSTEM.norm>
0

>  <SCORE.heavy>
42

>  <SCORE.norm>
-0.571255

>  <RMSD>
7.186

$$$$
1NEM.B
 OpenBabel11021811403D
libRbt.so/2013.1/901 2013/11/27
 42 45  0  0  0  0  0  0  0  0999 V2000
    7.7267    3.6062   -2.1903 O   0  0  0  0  0  0  0  0  0  0  0  0
    7.2729    2.6197   -1.2613 C   0  0  0  0  0  0  0  0  0  0  0  0
    6.1417    3.1187   -0.3635 C   0  0  1  0  0  0  0  0  0  0  0  0
    5.0216    3.5256   -1.1440 O   0  0  0  0  0  0  0  0  0  0  0  0
    5.5545    2.0651    0.5619 C   0  0  1  0  0  0  0  0  0  0  0  0
    6.5209    1.8114    1.5842 O   0  0  0  0  0  0  0  0  0  0  0  0
    4.2961    2.7980    0.9875 C   0  0  1  0  0  0  0  0  0  0  0  0
    4.5815    3.9106    1.8419 O   0  0  0  0  0  0  0  0  0  0  0  0
    3.8331    3.2932   -0.3877 C   0  0  2  0  0  0  0  0  0  0  0  0
    6.2251    0.7698    2.4701 C   0  0  2  0  0  0  0  0  0  0  0  0
    5.0437    1.1817    3.3590 C   0  0  2  0  0  0  0  0  0  0  0  0
    5.3264    2.4878    4.0106 N   0  3  0  0  0  0  0  0  0  0  0  0
    4.7300    0.0915    4.3888 C   0  0  1  0  0  0  0  0  0  0  0  0
    4.1625   -1.0352    3.7338 O   0  0  0  0  0  0  0  0  0  0  0  0
    5.9924   -0.3352    5.1442 C   0  0  2  0  0  0  0  0  0  0  0  0
    6.4441    0.7182    5.9860 O   0  0  0  0  0  0  0  0  0  0  0  0
    7.0852   -0.7099    4.1471 C   0  0  1  0  0  0  0  0  0  0  0  0
    7.3426    0.4026    3.2684 O   0  0  0  0  0  0  0  0  0  0  0  0
    8.3954   -1.0956    4.8110 C   0  0  0  0  0  0  0  0  0  0  0  0
    9.4617   -1.3565    3.8187 N   0  3  0  0  0  0  0  0  0  0  0  0
   -0.4558    3.3142   -5.3939 C   0  0  0  0  0  0  0  0  0  0  0  0
    1.2167    4.1146   -2.1862 C   0  0  2  0  0  0  0  0  0  0  0  0
    0.9004    5.6023   -2.0529 C   0  0  2  0  0  0  0  0  0  0  0  0
    1.0632    6.0374   -0.6451 N   0  3  0  0  0  0  0  0  0  0  0  0
   -0.5278    5.8776   -2.5039 C   0  0  1  0  0  0  0  0  0  0  0  0
   -0.7839    7.2726   -2.4488 O   0  0  0  0  0  0  0  0  0  0  0  0
   -0.7218    5.3637   -3.9287 C   0  0  2  0  0  0  0  0  0  0  0  0
   -2.0718    5.5545   -4.3322 O   0  0  0  0  0  0  0  0  0  0  0  0
    0.5589    3.9229   -6.2843 N   0  3  0  0  0  0  0  0  0  0  0  0
   -0.3722    3.8779   -3.9861 C   0  0  2  0  0  0  0  0  0  0  0  0
    0.9753    3.6670   -3.5175 O   0  0  0  0  0  0  0  0  0  0  0  0
    1.0471   -0.5378    0.2724 C   0  0  2  0  0  0  0  0  0  0  0  0
    1.2928   -1.9977    0.3134 N   0  3  0  0  0  0  0  0  0  0  0  0
   -0.2070   -0.2431   -0.5428 C   0  0  0  0  0  0  0  0  0  0  0  0
   -0.4709    1.2551   -0.5954 C   0  0  2  0  0  0  0  0  0  0  0  0
   -1.6768    1.4681   -1.3832 N   0  3  0  0  0  0  0  0  0  0  0  0
    0.7234    1.9691   -1.2241 C   0  0  1  0  0  0  0  0  0  0  0  0
    0.4777    3.3888   -1.2444 O   0  0  0  0  0  0  0  0  0  0  0  0
    2.0068    1.6845   -0.4315 C   0  0  2  0  0  0  0  0  0  0  0  0
    3.1280    2.2845   -1.1079 O   0  0  0  0  0  0  0  0  0  0  0  0
    2.2635    0.1850   -0.3038 C   0  0  1  0  0  0  0  0  0  0  0  0
    3.3872   -0.0338    0.5387 O   0  0  0  0  0  0  0  0  0  0  0  0
  1  2  1  0  0  0  0
  3  2  1  6  0  0  0
  3  5  1  0  0  0  0
  3  4  1  0  0  0  0
  4  9  1  0  0  0  0
  5  7  1  0  0  0  0
  5  6  1  1  0  0  0
  7  9  1  0  0  0  0
  7  8  1  1  0  0  0
  9 40  1  6  0  0  0
 10  6  1  6  0  0  0
 10 11  1  0  0  0  0
 10 18  1  0  0  0  0
 11 13  1  0  0  0  0
 11 12  1  1  0  0  0
 13 15  1  0  0  0  0
 13 14  1  6  0  0  0
 15 17  1  0  0  0  0
 15 16  1  6  0  0  0
 17 19  1  1  0  0  0
 17 18  1  0  0  0  0
 19 20  1  0  0  0  0
 21 29  1  0  0  0  0
 22 23  1  0  0  0  0
 22 31  1  0  0  0  0
 22 38  1  1  0  0  0
 23 25  1  0  0  0  0
 23 24  1  1  0  0  0
 25 27  1  0  0  0  0
 25 26  1  6  0  0  0
 27 30  1  0  0  0  0
 27 28  1  1  0  0  0
 30 21  1  6  0  0  0
 30 31  1  0  0  0  0
 32 34  1  0  0  0  0
 32 41  1  0  0  0  0
 32 33  1  6  0  0  0
 34 35  1  0  0  0  0
 35 37  1  0  0  0  0
 35 36  1  6  0  0  0
 37 39  1  0  0  0  0
 37 38  1  1  0  0  0
 39 41  1  0  0  0  0
 39 40  1  6  0  0  0
 41 42  1  1  0  0  0
M  CHG  6  12   1  20   1  24   1  29   1  33   1  36   1
M  END
>  <CHROM.1>
177.83618387,59.09608191,-173.97110985,-69.28108383,-175.09139820,168.86640721
-41.44627964,63.73566562,-80.34346858,-175.80267403,-50.01567324,65.14763954
55.85420116,-177.54729591,60.48230350,169.09750051,-58.45149938,-116.80119930
77.15914371,-157.96673212,117.94570431,-55.76235767,3.17979991,2.20550336
0.04095159,-0.80149916,-0.34331106,-0.71250395

>  <Name>
1NEM.B

>  <RI>
0

>  <Rbt.Current_Directory>
/home/itssahil/PROJECTS/Mol_Feturizer/New_Systems/rnas/1nem

>  <Rbt.Executable>
rbdock ($Id: //depot/dev/client3/rdock/2013.1/src/exe/rbdock.cxx#4 $)

>  <Rbt.Library>
libRbt.so (2013.1, Build901 2013/11/27)

>  <Rbt.Parameter_File>
/export/apps/rDock/src/rDock_2013.1_src/data/scripts/dock_solv.prm

>  <Rbt.Receptor>
prm/pocket_docking_7.prm

>  <SCORE>
-20.14

>  <SCORE.INTER>
-24.5579

>  <SCORE.INTER.CONST>
1

>  <SCORE.INTER.POLAR>
-4.49544

>  <SCORE.INTER.ROT>
9

>  <SCORE.INTER.SOLV>
18.128

>  <SCORE.INTER.VDW>
-17.0298

>  <SCORE.INTER.norm>
-0.584711

>  <SCORE.INTRA>
4.41782

>  <SCORE.INTRA.DIHEDRAL>
-2.77216

>  <SCORE.INTRA.DIHEDRAL.0>
22.4324

>  <SCORE.INTRA.POLAR>
0.833803

>  <SCORE.INTRA.POLAR.0>
-1.83749

>  <SCORE.INTRA.REPUL>
0.0263394

>  <SCORE.INTRA.REPUL.0>
0

>  <SCORE.INTRA.SOLV>
-2.67962

>  <SCORE.INTRA.SOLV.lig_0>
-160.638

>  <SCORE.INTRA.VDW>
4.17708

>  <SCORE.INTRA.VDW.0>
-7.61953

>  <SCORE.INTRA.norm>
0.105186

>  <SCORE.RESTR>
0

>  <SCORE.RESTR.CAVITY>
0

>  <SCORE.RESTR.norm>
0

>  <SCORE.SYSTEM>
0

>  <SCORE.SYSTEM.CONST>
0

>  <SCORE.SYSTEM.DIHEDRAL>
0

>  <SCORE.SYSTEM.SOLV>
0

>  <SCORE.SYSTEM.norm>
0

>  <SCORE.heavy>
42

>  <SCORE.norm>
-0.479525

>  <RMSD>
7.215

$$$$
1NEM.B
 OpenBabel11021811403D
libRbt.so/2013.1/901 2013/11/27
 42 45  0  0  0  0  0  0  0  0999 V2000
    0.8967    1.1192    7.5085 O   0  0  0  0  0  0  0  0  0  0  0  0
    2.0363    1.9773    7.5918 C   0  0  0  0  0  0  0  0  0  0  0  0
    3.3310    1.2972    7.1492 C   0  0  1  0  0  0  0  0  0  0  0  0
    3.2111    0.8039    5.8181 O   0  0  0  0  0  0  0  0  0  0  0  0
    4.5369    2.2196    7.0691 C   0  0  1  0  0  0  0  0  0  0  0  0
    4.9246    2.5292    8.4097 O   0  0  0  0  0  0  0  0  0  0  0  0
    5.4729    1.3189    6.2851 C   0  0  1  0  0  0  0  0  0  0  0  0
    5.9229    0.2023    7.0595 O   0  0  0  0  0  0  0  0  0  0  0  0
    4.4971    0.8499    5.1995 C   0  0  2  0  0  0  0  0  0  0  0  0
    6.1580    3.1712    8.5642 C   0  0  2  0  0  0  0  0  0  0  0  0
    6.4212    3.4090   10.0574 C   0  0  2  0  0  0  0  0  0  0  0  0
    5.2703    4.1225   10.6711 N   0  3  0  0  0  0  0  0  0  0  0  0
    7.7348    4.1698   10.2652 C   0  0  1  0  0  0  0  0  0  0  0  0
    8.8323    3.3214    9.9551 O   0  0  0  0  0  0  0  0  0  0  0  0
    7.7916    5.4246    9.3885 C   0  0  2  0  0  0  0  0  0  0  0  0
    6.8428    6.3840    9.8372 O   0  0  0  0  0  0  0  0  0  0  0  0
    7.5066    5.0499    7.9369 C   0  0  1  0  0  0  0  0  0  0  0  0
    6.2255    4.3967    7.8469 O   0  0  0  0  0  0  0  0  0  0  0  0
    7.4894    6.2461    7.0016 C   0  0  0  0  0  0  0  0  0  0  0  0
    7.7380    5.8527    5.5969 N   0  3  0  0  0  0  0  0  0  0  0  0
    0.6344    0.4748    0.1659 C   0  0  0  0  0  0  0  0  0  0  0  0
    3.0672   -0.4265    2.8109 C   0  0  2  0  0  0  0  0  0  0  0  0
    2.7566   -1.9089    3.0033 C   0  0  2  0  0  0  0  0  0  0  0  0
    3.8941   -2.5896    3.6670 N   0  3  0  0  0  0  0  0  0  0  0  0
    2.4904   -2.5684    1.6567 C   0  0  1  0  0  0  0  0  0  0  0  0
    2.1273   -3.9261    1.8551 O   0  0  0  0  0  0  0  0  0  0  0  0
    1.3683   -1.8243    0.9363 C   0  0  2  0  0  0  0  0  0  0  0  0
    1.1607   -2.3910   -0.3510 O   0  0  0  0  0  0  0  0  0  0  0  0
    0.3509    0.0367   -1.2200 N   0  3  0  0  0  0  0  0  0  0  0  0
    1.7432   -0.3502    0.7956 C   0  0  2  0  0  0  0  0  0  0  0  0
    2.0183    0.2175    2.0925 O   0  0  0  0  0  0  0  0  0  0  0  0
    6.7612    3.1281    1.5560 C   0  0  2  0  0  0  0  0  0  0  0  0
    7.1723    4.5125    1.2278 N   0  3  0  0  0  0  0  0  0  0  0  0
    6.0826    2.4866    0.3510 C   0  0  0  0  0  0  0  0  0  0  0  0
    5.6522    1.0628    0.6748 C   0  0  2  0  0  0  0  0  0  0  0  0
    5.0156    0.5086   -0.5117 N   0  3  0  0  0  0  0  0  0  0  0  0
    4.6867    1.0704    1.8576 C   0  0  1  0  0  0  0  0  0  0  0  0
    4.3064   -0.2826    2.1755 O   0  0  0  0  0  0  0  0  0  0  0  0
    5.3368    1.7201    3.0870 C   0  0  2  0  0  0  0  0  0  0  0  0
    4.3681    1.8059    4.1495 O   0  0  0  0  0  0  0  0  0  0  0  0
    5.8398    3.1273    2.7747 C   0  0  1  0  0  0  0  0  0  0  0  0
    6.5417    3.6405    3.8992 O   0  0  0  0  0  0  0  0  0  0  0  0
  1  2  1  0  0  0  0
  3  2  1  6  0  0  0
  3  5  1  0  0  0  0
  3  4  1  0  0  0  0
  4  9  1  0  0  0  0
  5  7  1  0  0  0  0
  5  6  1  1  0  0  0
  7  9  1  0  0  0  0
  7  8  1  1  0  0  0
  9 40  1  6  0  0  0
 10  6  1  1  0  0  0
 10 11  1  0  0  0  0
 10 18  1  0  0  0  0
 11 13  1  0  0  0  0
 11 12  1  6  0  0  0
 13 15  1  0  0  0  0
 13 14  1  6  0  0  0
 15 17  1  0  0  0  0
 15 16  1  1  0  0  0
 17 19  1  6  0  0  0
 17 18  1  0  0  0  0
 19 20  1  0  0  0  0
 21 29  1  0  0  0  0
 22 23  1  0  0  0  0
 22 31  1  0  0  0  0
 22 38  1  6  0  0  0
 23 25  1  0  0  0  0
 23 24  1  6  0  0  0
 25 27  1  0  0  0  0
 25 26  1  1  0  0  0
 27 30  1  0  0  0  0
 27 28  1  6  0  0  0
 30 21  1  1  0  0  0
 30 31  1  0  0  0  0
 32 34  1  0  0  0  0
 32 41  1  0  0  0  0
 32 33  1  6  0  0  0
 34 35  1  0  0  0  0
 35 37  1  0  0  0  0
 35 36  1  6  0  0  0
 37 39  1  0  0  0  0
 37 38  1  1  0  0  0
 39 41  1  0  0  0  0
 39 40  1  1  0  0  0
 41 42  1  1  0  0  0
M  CHG  6  12   1  20   1  24   1  29   1  33   1  36   1
M  END
>  <CHROM.1>
-165.53320991,57.06503790,168.92209447,-179.26555861,-54.98917960,-159.02339384
41.76298776,-62.70016136,174.20340134,157.85926011,178.77633281,-63.22427879
-34.27643504,176.35223801,-164.45346858,-173.39088890,147.04359895,172.66443463
-62.50315312,-154.38373110,103.51906959,169.25652856,4.65679233,1.69623625
4.65789690,0.92671308,0.81225220,1.48146861

>  <Name>
1NEM.B

>  <RI>
0

>  <Rbt.Current_Directory>
/home/itssahil/PROJECTS/Mol_Feturizer/New_Systems/rnas/1nem

>  <Rbt.Executable>
rbdock ($Id: //depot/dev/client3/rdock/2013.1/src/exe/rbdock.cxx#4 $)

>  <Rbt.Library>
libRbt.so (2013.1, Build901 2013/11/27)

>  <Rbt.Parameter_File>
/export/apps/rDock/src/rDock_2013.1_src/data/scripts/dock_solv.prm

>  <Rbt.Receptor>
prm/pocket_docking_8.prm

>  <SCORE>
-30.807

>  <SCORE.INTER>
-30.377

>  <SCORE.INTER.CONST>
1

>  <SCORE.INTER.POLAR>
-5.21272

>  <SCORE.INTER.ROT>
9

>  <SCORE.INTER.SOLV>
31.7091

>  <SCORE.INTER.VDW>
-23.0453

>  <SCORE.INTER.norm>
-0.723261

>  <SCORE.INTRA>
-0.448686

>  <SCORE.INTRA.DIHEDRAL>
0.526561

>  <SCORE.INTRA.DIHEDRAL.0>
22.4324

>  <SCORE.INTRA.POLAR>
-0.224168

>  <SCORE.INTRA.POLAR.0>
-1.83749

>  <SCORE.INTRA.REPUL>
0

>  <SCORE.INTRA.REPUL.0>
0

>  <SCORE.INTRA.SOLV>
-3.68205

>  <SCORE.INTRA.SOLV.lig_0>
-160.638

>  <SCORE.INTRA.VDW>
1.89123

>  <SCORE.INTRA.VDW.0>
-7.61953

>  <SCORE.INTRA.norm>
-0.010683

>  <SCORE.RESTR>
0.0186517

>  <SCORE.RESTR.CAVITY>
0.0186517

>  <SCORE.RESTR.norm>
0.000444088

>  <SCORE.SYSTEM>
0

>  <SCORE.SYSTEM.CONST>
0

>  <SCORE.SYSTEM.DIHEDRAL>
0

>  <SCORE.SYSTEM.SOLV>
0

>  <SCORE.SYSTEM.norm>
0

>  <SCORE.heavy>
42

>  <SCORE.norm>
-0.7335

>  <RMSD>
7.227

$$$$
1NEM.B
 OpenBabel11021811403D
libRbt.so/2013.1/901 2013/11/27
 42 45  0  0  0  0  0  0  0  0999 V2000
   -0.6401    2.9017   -1.8353 O   0  0  0  0  0  0  0  0  0  0  0  0
    0.3405    3.4287   -0.9393 C   0  0  0  0  0  0  0  0  0  0  0  0
    1.4509    2.4309   -0.6134 C   0  0  1  0  0  0  0  0  0  0  0  0
    1.0945    1.6299    0.5095 O   0  0  0  0  0  0  0  0  0  0  0  0
    1.7193    1.4028   -1.7008 C   0  0  1  0  0  0  0  0  0  0  0  0
    2.3729    2.0819   -2.7754 O   0  0  0  0  0  0  0  0  0  0  0  0
    2.5648    0.4283   -0.9024 C   0  0  1  0  0  0  0  0  0  0  0  0
    3.8538    0.9645   -0.5862 O   0  0  0  0  0  0  0  0  0  0  0  0
    1.7020    0.3463    0.3624 C   0  0  2  0  0  0  0  0  0  0  0  0
    1.9338    1.7650   -4.0654 C   0  0  2  0  0  0  0  0  0  0  0  0
    3.0757    2.0057   -5.0621 C   0  0  2  0  0  0  0  0  0  0  0  0
    3.6037    3.3871   -4.9093 N   0  3  0  0  0  0  0  0  0  0  0  0
    2.6140    1.7317   -6.4970 C   0  0  1  0  0  0  0  0  0  0  0  0
    2.4210    0.3351   -6.6783 O   0  0  0  0  0  0  0  0  0  0  0  0
    1.3119    2.4753   -6.8103 C   0  0  2  0  0  0  0  0  0  0  0  0
    1.5429    3.8776   -6.8575 O   0  0  0  0  0  0  0  0  0  0  0  0
    0.2686    2.1551   -5.7436 C   0  0  1  0  0  0  0  0  0  0  0  0
    0.7806    2.5056   -4.4433 O   0  0  0  0  0  0  0  0  0  0  0  0
   -1.0420    2.8950   -5.9463 C   0  0  0  0  0  0  0  0  0  0  0  0
   -0.8651    4.3623   -5.8715 N   0  3  0  0  0  0  0  0  0  0  0  0
   -5.8984   -2.8186    0.3362 C   0  0  0  0  0  0  0  0  0  0  0  0
   -2.6178   -1.1372   -0.0350 C   0  0  2  0  0  0  0  0  0  0  0  0
   -3.0337    0.3312    0.0058 C   0  0  2  0  0  0  0  0  0  0  0  0
   -1.8684    1.1856    0.3373 N   0  3  0  0  0  0  0  0  0  0  0  0
   -4.1241    0.5390    1.0483 C   0  0  1  0  0  0  0  0  0  0  0  0
   -4.5562    1.8907    1.0224 O   0  0  0  0  0  0  0  0  0  0  0  0
   -5.2971   -0.3933    0.7537 C   0  0  2  0  0  0  0  0  0  0  0  0
   -6.2900   -0.2551    1.7619 O   0  0  0  0  0  0  0  0  0  0  0  0
   -5.6066   -3.4924   -0.9498 N   0  3  0  0  0  0  0  0  0  0  0  0
   -4.8018   -1.8376    0.7130 C   0  0  2  0  0  0  0  0  0  0  0  0
   -3.7490   -1.9736   -0.2630 O   0  0  0  0  0  0  0  0  0  0  0  0
    1.5539   -3.6765    2.1096 C   0  0  2  0  0  0  0  0  0  0  0  0
    2.7129   -4.5880    1.9713 N   0  3  0  0  0  0  0  0  0  0  0  0
    0.2588   -4.4369    1.8479 C   0  0  0  0  0  0  0  0  0  0  0  0
   -0.9419   -3.5112    1.9844 C   0  0  2  0  0  0  0  0  0  0  0  0
   -2.1412   -4.2951    1.7251 N   0  3  0  0  0  0  0  0  0  0  0  0
   -0.8207   -2.3569    0.9922 C   0  0  1  0  0  0  0  0  0  0  0  0
   -1.9461   -1.4706    1.1473 O   0  0  0  0  0  0  0  0  0  0  0  0
    0.4801   -1.5752    1.2226 C   0  0  2  0  0  0  0  0  0  0  0  0
    0.6139   -0.5621    0.2075 O   0  0  0  0  0  0  0  0  0  0  0  0
    1.7005   -2.4902    1.1580 C   0  0  1  0  0  0  0  0  0  0  0  0
    2.8660   -1.7512    1.4987 O   0  0  0  0  0  0  0  0  0  0  0  0
  1  2  1  0  0  0  0
  3  2  1  6  0  0  0
  3  5  1  0  0  0  0
  3  4  1  0  0  0  0
  4  9  1  0  0  0  0
  5  7  1  0  0  0  0
  5  6  1  6  0  0  0
  7  9  1  0  0  0  0
  7  8  1  1  0  0  0
  9 40  1  6  0  0  0
 10  6  1  1  0  0  0
 10 11  1  0  0  0  0
 10 18  1  0  0  0  0
 11 13  1  0  0  0  0
 11 12  1  6  0  0  0
 13 15  1  0  0  0  0
 13 14  1  1  0  0  0
 15 17  1  0  0  0  0
 15 16  1  1  0  0  0
 17 19  1  6  0  0  0
 17 18  1  0  0  0  0
 19 20  1  0  0  0  0
 21 29  1  0  0  0  0
 22 23  1  0  0  0  0
 22 31  1  0  0  0  0
 22 38  1  1  0  0  0
 23 25  1  0  0  0  0
 23 24  1  1  0  0  0
 25 27  1  0  0  0  0
 25 26  1  6  0  0  0
 27 30  1  0  0  0  0
 27 28  1  1  0  0  0
 30 21  1  6  0  0  0
 30 31  1  0  0  0  0
 32 34  1  0  0  0  0
 32 41  1  0  0  0  0
 32 33  1  6  0  0  0
 34 35  1  0  0  0  0
 35 37  1  0  0  0  0
 35 36  1  6  0  0  0
 37 39  1  0  0  0  0
 37 38  1  1  0  0  0
 39 41  1  0  0  0  0
 39 40  1  6  0  0  0
 41 42  1  1  0  0  0
M  CHG  6  12   1  20   1  24   1  29   1  33   1  36   1
M  END
>  <CHROM.1>
-68.88630278,-88.45096006,-136.95266831,-153.40986396,60.53073244,-117.92077454
-74.63331021,-60.84008091,70.78971157,-61.88617653,45.68497939,115.99242731
-111.03162702,-141.18959441,10.71215415,-65.46526300,-57.17327023,53.47447857
-173.01495434,-130.02015661,173.58656750,-57.55709442,-0.32080153,0.13433965
-1.22374387,1.05793681,0.08792293,-0.86224661

>  <Name>
1NEM.B

>  <RI>
0

>  <Rbt.Current_Directory>
/home/itssahil/PROJECTS/Mol_Feturizer/New_Systems/rnas/1nem

>  <Rbt.Executable>
rbdock ($Id: //depot/dev/client3/rdock/2013.1/src/exe/rbdock.cxx#4 $)

>  <Rbt.Library>
libRbt.so (2013.1, Build901 2013/11/27)

>  <Rbt.Parameter_File>
/export/apps/rDock/src/rDock_2013.1_src/data/scripts/dock_solv.prm

>  <Rbt.Receptor>
prm/pocket_docking_8.prm

>  <SCORE>
-38.5351

>  <SCORE.INTER>
-42.9692

>  <SCORE.INTER.CONST>
1

>  <SCORE.INTER.POLAR>
-5.56415

>  <SCORE.INTER.ROT>
9

>  <SCORE.INTER.SOLV>
35.8264

>  <SCORE.INTER.VDW>
-31.6411

>  <SCORE.INTER.norm>
-1.02308

>  <SCORE.INTRA>
4.43406

>  <SCORE.INTRA.DIHEDRAL>
22.574

>  <SCORE.INTRA.DIHEDRAL.0>
22.4324

>  <SCORE.INTRA.POLAR>
-3.42203

>  <SCORE.INTRA.POLAR.0>
-1.83749

>  <SCORE.INTRA.REPUL>
0

>  <SCORE.INTRA.REPUL.0>
0

>  <SCORE.INTRA.SOLV>
4.57967

>  <SCORE.INTRA.SOLV.lig_0>
-160.638

>  <SCORE.INTRA.VDW>
2.49216

>  <SCORE.INTRA.VDW.0>
-7.61953

>  <SCORE.INTRA.norm>
0.105573

>  <SCORE.RESTR>
0

>  <SCORE.RESTR.CAVITY>
0

>  <SCORE.RESTR.norm>
0

>  <SCORE.SYSTEM>
0

>  <SCORE.SYSTEM.CONST>
0

>  <SCORE.SYSTEM.DIHEDRAL>
0

>  <SCORE.SYSTEM.SOLV>
0

>  <SCORE.SYSTEM.norm>
0

>  <SCORE.heavy>
42

>  <SCORE.norm>
-0.917504

>  <RMSD>
7.241

$$$$
1NEM.B
 OpenBabel11021811403D
libRbt.so/2013.1/901 2013/11/27
 42 45  0  0  0  0  0  0  0  0999 V2000
   -2.3399   -6.2221    0.4084 O   0  0  0  0  0  0  0  0  0  0  0  0
   -2.8721   -4.9645    0.8297 C   0  0  0  0  0  0  0  0  0  0  0  0
   -1.7995   -3.9984    1.3305 C   0  0  1  0  0  0  0  0  0  0  0  0
   -1.1710   -3.3337    0.2383 O   0  0  0  0  0  0  0  0  0  0  0  0
   -2.3251   -2.8508    2.1780 C   0  0  1  0  0  0  0  0  0  0  0  0
   -2.7056   -3.3967    3.4431 O   0  0  0  0  0  0  0  0  0  0  0  0
   -1.0939   -1.9642    2.1665 C   0  0  1  0  0  0  0  0  0  0  0  0
   -0.0212   -2.5191    2.9350 O   0  0  0  0  0  0  0  0  0  0  0  0
   -0.7641   -2.0353    0.6708 C   0  0  2  0  0  0  0  0  0  0  0  0
   -3.7103   -2.7119    4.1351 C   0  0  2  0  0  0  0  0  0  0  0  0
   -4.2834   -3.6237    5.2285 C   0  0  2  0  0  0  0  0  0  0  0  0
   -4.7101   -4.9205    4.6397 N   0  3  0  0  0  0  0  0  0  0  0  0
   -5.4332   -2.9322    5.9681 C   0  0  1  0  0  0  0  0  0  0  0  0
   -4.9190   -1.8789    6.7722 O   0  0  0  0  0  0  0  0  0  0  0  0
   -6.4650   -2.3712    4.9847 C   0  0  2  0  0  0  0  0  0  0  0  0
   -7.1535   -3.4311    4.3330 O   0  0  0  0  0  0  0  0  0  0  0  0
   -5.7649   -1.4924    3.9519 C   0  0  1  0  0  0  0  0  0  0  0  0
   -4.7468   -2.2555    3.2757 O   0  0  0  0  0  0  0  0  0  0  0  0
   -6.7087   -0.9354    2.9008 C   0  0  0  0  0  0  0  0  0  0  0  0
   -5.9803   -0.4355    1.7136 N   0  3  0  0  0  0  0  0  0  0  0  0
    3.9818    1.7273    3.2626 C   0  0  0  0  0  0  0  0  0  0  0  0
    2.2917   -0.3150    0.6743 C   0  0  2  0  0  0  0  0  0  0  0  0
    2.7249   -1.7216    1.0803 C   0  0  2  0  0  0  0  0  0  0  0  0
    1.8160   -2.7303    0.4854 N   0  3  0  0  0  0  0  0  0  0  0  0
    2.7072   -1.8589    2.5968 C   0  0  1  0  0  0  0  0  0  0  0  0
    3.1855   -3.1437    2.9641 O   0  0  0  0  0  0  0  0  0  0  0  0
    3.5842   -0.7743    3.2184 C   0  0  2  0  0  0  0  0  0  0  0  0
    3.5181   -0.8524    4.6365 O   0  0  0  0  0  0  0  0  0  0  0  0
    5.3759    1.5865    2.7836 N   0  3  0  0  0  0  0  0  0  0  0  0
    3.1012    0.5987    2.7551 C   0  0  2  0  0  0  0  0  0  0  0  0
    3.1040    0.6654    1.3146 O   0  0  0  0  0  0  0  0  0  0  0  0
   -1.8570    2.5718   -0.7481 C   0  0  2  0  0  0  0  0  0  0  0  0
   -2.6389    3.3198   -1.7593 N   0  3  0  0  0  0  0  0  0  0  0  0
   -0.3680    2.8362   -0.9408 C   0  0  0  0  0  0  0  0  0  0  0  0
    0.4489    2.0713    0.0912 C   0  0  2  0  0  0  0  0  0  0  0  0
    1.8550    2.3665   -0.1453 N   0  3  0  0  0  0  0  0  0  0  0  0
    0.1771    0.5746   -0.0399 C   0  0  1  0  0  0  0  0  0  0  0  0
    0.9321   -0.1395    0.9584 O   0  0  0  0  0  0  0  0  0  0  0  0
   -1.3176    0.2748    0.1394 C   0  0  2  0  0  0  0  0  0  0  0  0
   -1.5542   -1.1268   -0.0931 O   0  0  0  0  0  0  0  0  0  0  0  0
   -2.1698    1.0792   -0.8390 C   0  0  1  0  0  0  0  0  0  0  0  0
   -3.5463    0.8658   -0.5556 O   0  0  0  0  0  0  0  0  0  0  0  0
  1  2  1  0  0  0  0
  3  2  1  6  0  0  0
  3  5  1  0  0  0  0
  3  4  1  0  0  0  0
  4  9  1  0  0  0  0
  5  7  1  0  0  0  0
  5  6  1  1  0  0  0
  7  9  1  0  0  0  0
  7  8  1  1  0  0  0
  9 40  1  6  0  0  0
 10  6  1  6  0  0  0
 10 11  1  0  0  0  0
 10 18  1  0  0  0  0
 11 13  1  0  0  0  0
 11 12  1  6  0  0  0
 13 15  1  0  0  0  0
 13 14  1  6  0  0  0
 15 17  1  0  0  0  0
 15 16  1  6  0  0  0
 17 19  1  6  0  0  0
 17 18  1  0  0  0  0
 19 20  1  0  0  0  0
 21 29  1  0  0  0  0
 22 23  1  0  0  0  0
 22 31  1  0  0  0  0
 22 38  1  1  0  0  0
 23 25  1  0  0  0  0
 23 24  1  6  0  0  0
 25 27  1  0  0  0  0
 25 26  1  6  0  0  0
 27 30  1  0  0  0  0
 27 28  1  1  0  0  0
 30 21  1  1  0  0  0
 30 31  1  0  0  0  0
 32 34  1  0  0  0  0
 32 41  1  0  0  0  0
 32 33  1  6  0  0  0
 34 35  1  0  0  0  0
 35 37  1  0  0  0  0
 35 36  1  6  0  0  0
 37 39  1  0  0  0  0
 37 38  1  1  0  0  0
 39 41  1  0  0  0  0
 39 40  1  6  0  0  0
 41 42  1  1  0  0  0
M  CHG  6  12   1  20   1  24   1  29   1  33   1  36   1
M  END
>  <CHROM.1>
-40.46314968,82.11034575,-152.85080606,163.29131241,-47.88588587,-178.95145034
-76.61427516,-63.01073255,58.12196971,-163.17461099,23.89483293,60.29161590
-61.01250649,-139.31013168,-98.13810751,-176.05858422,50.41156958,-20.94136414
52.81801161,-78.07419239,53.85411236,52.54648959,-1.17806633,-1.22439140
2.00171277,-2.64650926,-0.05037472,-0.70899647

>  <Name>
1NEM.B

>  <RI>
0

>  <Rbt.Current_Directory>
/home/itssahil/PROJECTS/Mol_Feturizer/New_Systems/rnas/1nem

>  <Rbt.Executable>
rbdock ($Id: //depot/dev/client3/rdock/2013.1/src/exe/rbdock.cxx#4 $)

>  <Rbt.Library>
libRbt.so (2013.1, Build901 2013/11/27)

>  <Rbt.Parameter_File>
/export/apps/rDock/src/rDock_2013.1_src/data/scripts/dock_solv.prm

>  <Rbt.Receptor>
prm/pocket_docking_2.prm

>  <SCORE>
-27.1623

>  <SCORE.INTER>
-44.2645

>  <SCORE.INTER.CONST>
1

>  <SCORE.INTER.POLAR>
-6.60808

>  <SCORE.INTER.ROT>
9

>  <SCORE.INTER.SOLV>
33.6253

>  <SCORE.INTER.VDW>
-28.2912

>  <SCORE.INTER.norm>
-1.05392

>  <SCORE.INTRA>
9.32634

>  <SCORE.INTRA.DIHEDRAL>
3.78397

>  <SCORE.INTRA.DIHEDRAL.0>
22.4324

>  <SCORE.INTRA.POLAR>
-1.1585

>  <SCORE.INTRA.POLAR.0>
-1.83749

>  <SCORE.INTRA.REPUL>
0

>  <SCORE.INTRA.REPUL.0>
0

>  <SCORE.INTRA.SOLV>
4.43715

>  <SCORE.INTRA.SOLV.lig_0>
-160.638

>  <SCORE.INTRA.VDW>
9.15467

>  <SCORE.INTRA.VDW.0>
-7.61953

>  <SCORE.INTRA.norm>
0.222056

>  <SCORE.RESTR>
7.77592

>  <SCORE.RESTR.CAVITY>
7.77592

>  <SCORE.RESTR.norm>
0.185141

>  <SCORE.SYSTEM>
0

>  <SCORE.SYSTEM.CONST>
0

>  <SCORE.SYSTEM.DIHEDRAL>
0

>  <SCORE.SYSTEM.SOLV>
0

>  <SCORE.SYSTEM.norm>
0

>  <SCORE.heavy>
42

>  <SCORE.norm>
-0.646721

>  <RMSD>
7.289

$$$$
1NEM.B
 OpenBabel11021811403D
libRbt.so/2013.1/901 2013/11/27
 42 45  0  0  0  0  0  0  0  0999 V2000
   -4.2760   -5.9242    2.8903 O   0  0  0  0  0  0  0  0  0  0  0  0
   -3.8833   -5.3198    1.6563 C   0  0  0  0  0  0  0  0  0  0  0  0
   -2.6212   -4.4679    1.7823 C   0  0  1  0  0  0  0  0  0  0  0  0
   -2.1921   -4.0112    0.5029 O   0  0  0  0  0  0  0  0  0  0  0  0
   -2.8019   -3.1785    2.5674 C   0  0  1  0  0  0  0  0  0  0  0  0
   -2.9378   -3.5354    3.9449 O   0  0  0  0  0  0  0  0  0  0  0  0
   -1.5146   -2.4787    2.1737 C   0  0  1  0  0  0  0  0  0  0  0  0
   -0.3629   -3.0979    2.7562 O   0  0  0  0  0  0  0  0  0  0  0  0
   -1.5512   -2.7456    0.6643 C   0  0  2  0  0  0  0  0  0  0  0  0
   -3.9096   -2.8388    4.6712 C   0  0  2  0  0  0  0  0  0  0  0  0
   -4.3188   -3.6695    5.8951 C   0  0  2  0  0  0  0  0  0  0  0  0
   -4.7228   -5.0364    5.4722 N   0  3  0  0  0  0  0  0  0  0  0  0
   -5.4306   -2.9690    6.6827 C   0  0  1  0  0  0  0  0  0  0  0  0
   -4.9044   -1.8191    7.3320 O   0  0  0  0  0  0  0  0  0  0  0  0
   -6.5843   -2.5569    5.7632 C   0  0  2  0  0  0  0  0  0  0  0  0
   -7.2686   -3.7075    5.2834 O   0  0  0  0  0  0  0  0  0  0  0  0
   -6.0410   -1.7470    4.5894 C   0  0  1  0  0  0  0  0  0  0  0  0
   -5.0497   -2.5192    3.8845 O   0  0  0  0  0  0  0  0  0  0  0  0
   -7.1137   -1.3410    3.5942 C   0  0  0  0  0  0  0  0  0  0  0  0
   -6.7238   -1.6571    2.2021 N   0  3  0  0  0  0  0  0  0  0  0  0
    3.3181    1.5237    2.5909 C   0  0  0  0  0  0  0  0  0  0  0  0
    1.3348   -0.6067    0.2985 C   0  0  2  0  0  0  0  0  0  0  0  0
    1.9839   -1.9694    0.5280 C   0  0  2  0  0  0  0  0  0  0  0  0
    1.0766   -3.0522    0.0788 N   0  3  0  0  0  0  0  0  0  0  0  0
    2.3008   -2.1575    2.0056 C   0  0  1  0  0  0  0  0  0  0  0  0
    2.9732   -3.3930    2.1948 O   0  0  0  0  0  0  0  0  0  0  0  0
    3.1751   -1.0037    2.4916 C   0  0  2  0  0  0  0  0  0  0  0  0
    3.4182   -1.1351    3.8863 O   0  0  0  0  0  0  0  0  0  0  0  0
    2.5535    2.4962    3.4050 N   0  3  0  0  0  0  0  0  0  0  0  0
    2.4689    0.3221    2.2146 C   0  0  2  0  0  0  0  0  0  0  0  0
    2.1607    0.4359    0.8104 O   0  0  0  0  0  0  0  0  0  0  0  0
   -3.3413    1.8279    0.0598 C   0  0  2  0  0  0  0  0  0  0  0  0
   -4.3753    2.5799   -0.6878 N   0  3  0  0  0  0  0  0  0  0  0  0
   -1.9576    2.3760   -0.2703 C   0  0  0  0  0  0  0  0  0  0  0  0
   -0.8838    1.6105    0.4899 C   0  0  2  0  0  0  0  0  0  0  0  0
    0.4076    2.1811    0.1335 N   0  3  0  0  0  0  0  0  0  0  0  0
   -0.9452    0.1299    0.1217 C   0  0  1  0  0  0  0  0  0  0  0  0
    0.0553   -0.5918    0.8664 O   0  0  0  0  0  0  0  0  0  0  0  0
   -2.3313   -0.4515    0.4330 C   0  0  2  0  0  0  0  0  0  0  0  0
   -2.3887   -1.8172   -0.0211 O   0  0  0  0  0  0  0  0  0  0  0  0
   -3.4372    0.3378   -0.2632 C   0  0  1  0  0  0  0  0  0  0  0  0
   -4.7045   -0.1557    0.1503 O   0  0  0  0  0  0  0  0  0  0  0  0
  1  2  1  0  0  0  0
  3  2  1  6  0  0  0
  3  5  1  0  0  0  0
  3  4  1  0  0  0  0
  4  9  1  0  0  0  0
  5  7  1  0  0  0  0
  5  6  1  1  0  0  0
  7  9  1  0  0  0  0
  7  8  1  1  0  0  0
  9 40  1  6  0  0  0
 10  6  1  6  0  0  0
 10 11  1  0  0  0  0
 10 18  1  0  0  0  0
 11 13  1  0  0  0  0
 11 12  1  6  0  0  0
 13 15  1  0  0  0  0
 13 14  1  6  0  0  0
 15 17  1  0  0  0  0
 15 16  1  6  0  0  0
 17 19  1  6  0  0  0
 17 18  1  0  0  0  0
 19 20  1  0  0  0  0
 21 29  1  0  0  0  0
 22 23  1  0  0  0  0
 22 31  1  0  0  0  0
 22 38  1  1  0  0  0
 23 25  1  0  0  0  0
 23 24  1  1  0  0  0
 25 27  1  0  0  0  0
 25 26  1  6  0  0  0
 27 30  1  0  0  0  0
 27 28  1  1  0  0  0
 30 21  1  6  0  0  0
 30 31  1  0  0  0  0
 32 34  1  0  0  0  0
 32 41  1  0  0  0  0
 32 33  1  6  0  0  0
 34 35  1  0  0  0  0
 35 37  1  0  0  0  0
 35 36  1  6  0  0  0
 37 39  1  0  0  0  0
 37 38  1  1  0  0  0
 39 41  1  0  0  0  0
 39 40  1  6  0  0  0
 41 42  1  1  0  0  0
M  CHG  6  12   1  20   1  24   1  29   1  33   1  36   1
M  END
>  <CHROM.1>
-54.07813977,173.61337855,-138.50961475,157.64770313,-67.35189246,154.12428507
28.55948108,44.30718289,172.27871734,-130.76856147,-61.82087937,-131.40919692
68.41547211,-142.57216496,17.78169405,-51.16101463,68.74739173,-42.36111436
174.30283599,-85.14890759,66.84126141,-45.88979518,-1.94587501,-1.56986340
2.29462445,-2.58698083,0.06725319,-0.66220504

>  <Name>
1NEM.B

>  <RI>
0

>  <Rbt.Current_Directory>
/home/itssahil/PROJECTS/Mol_Feturizer/New_Systems/rnas/1nem

>  <Rbt.Executable>
rbdock ($Id: //depot/dev/client3/rdock/2013.1/src/exe/rbdock.cxx#4 $)

>  <Rbt.Library>
libRbt.so (2013.1, Build901 2013/11/27)

>  <Rbt.Parameter_File>
/export/apps/rDock/src/rDock_2013.1_src/data/scripts/dock_solv.prm

>  <Rbt.Receptor>
prm/blind_docking_40.prm

>  <SCORE>
-29.3414

>  <SCORE.INTER>
-46.9964

>  <SCORE.INTER.CONST>
1

>  <SCORE.INTER.POLAR>
-7.43831

>  <SCORE.INTER.ROT>
9

>  <SCORE.INTER.SOLV>
39.4415

>  <SCORE.INTER.VDW>
-29.2837

>  <SCORE.INTER.norm>
-1.11896

>  <SCORE.INTRA>
10.7346

>  <SCORE.INTRA.DIHEDRAL>
15.5452

>  <SCORE.INTRA.DIHEDRAL.0>
22.4324

>  <SCORE.INTRA.POLAR>
-2.50548

>  <SCORE.INTRA.POLAR.0>
-1.83749

>  <SCORE.INTRA.REPUL>
0

>  <SCORE.INTRA.REPUL.0>
0

>  <SCORE.INTRA.SOLV>
9.28062

>  <SCORE.INTRA.SOLV.lig_0>
-160.638

>  <SCORE.INTRA.VDW>
6.8403

>  <SCORE.INTRA.VDW.0>
-7.61953

>  <SCORE.INTRA.norm>
0.255585

>  <SCORE.RESTR>
6.92041

>  <SCORE.RESTR.CAVITY>
6.92041

>  <SCORE.RESTR.norm>
0.164772

>  <SCORE.SYSTEM>
0

>  <SCORE.SYSTEM.CONST>
0

>  <SCORE.SYSTEM.DIHEDRAL>
0

>  <SCORE.SYSTEM.SOLV>
0

>  <SCORE.SYSTEM.norm>
0

>  <SCORE.heavy>
42

>  <SCORE.norm>
-0.698604

>  <RMSD>
7.296

$$$$
1NEM.B
 OpenBabel11021811403D
libRbt.so/2013.1/901 2013/11/27
 42 45  0  0  0  0  0  0  0  0999 V2000
   -1.1242    4.1507   -1.7172 O   0  0  0  0  0  0  0  0  0  0  0  0
   -1.1169    2.7227   -1.7711 C   0  0  0  0  0  0  0  0  0  0  0  0
    0.0713    2.1024   -1.0375 C   0  0  1  0  0  0  0  0  0  0  0  0
   -0.3650    1.3937    0.1188 O   0  0  0  0  0  0  0  0  0  0  0  0
    0.8232    1.0441   -1.8289 C   0  0  1  0  0  0  0  0  0  0  0  0
    1.5549    1.7203   -2.8539 O   0  0  0  0  0  0  0  0  0  0  0  0
    1.6392    0.4400   -0.7014 C   0  0  1  0  0  0  0  0  0  0  0  0
    2.6565    1.3315   -0.2329 O   0  0  0  0  0  0  0  0  0  0  0  0
    0.5302    0.3055    0.3487 C   0  0  2  0  0  0  0  0  0  0  0  0
    0.8862    1.9109   -4.0679 C   0  0  2  0  0  0  0  0  0  0  0  0
    1.8835    1.7581   -5.2244 C   0  0  2  0  0  0  0  0  0  0  0  0
    3.0512    2.6536   -5.0130 N   0  3  0  0  0  0  0  0  0  0  0  0
    1.2023    2.0244   -6.5707 C   0  0  1  0  0  0  0  0  0  0  0  0
    0.3107    0.9596   -6.8737 O   0  0  0  0  0  0  0  0  0  0  0  0
    0.4326    3.3486   -6.5485 C   0  0  2  0  0  0  0  0  0  0  0  0
    1.3363    4.4440   -6.4748 O   0  0  0  0  0  0  0  0  0  0  0  0
   -0.5133    3.3724   -5.3512 C   0  0  1  0  0  0  0  0  0  0  0  0
    0.2359    3.1732   -4.1367 O   0  0  0  0  0  0  0  0  0  0  0  0
   -1.2807    4.6762   -5.2199 C   0  0  0  0  0  0  0  0  0  0  0  0
   -1.8945    5.0874   -6.5021 N   0  3  0  0  0  0  0  0  0  0  0  0
   -6.2997   -3.8303    2.4478 C   0  0  0  0  0  0  0  0  0  0  0  0
   -3.5756   -2.6211    0.2468 C   0  0  2  0  0  0  0  0  0  0  0  0
   -4.2212   -1.3804   -0.3656 C   0  0  2  0  0  0  0  0  0  0  0  0
   -3.1808   -0.4795   -0.9165 N   0  3  0  0  0  0  0  0  0  0  0  0
   -5.0278   -0.6340    0.6886 C   0  0  1  0  0  0  0  0  0  0  0  0
   -5.6851    0.4724    0.0900 O   0  0  0  0  0  0  0  0  0  0  0  0
   -6.0523   -1.5792    1.3121 C   0  0  2  0  0  0  0  0  0  0  0  0
   -6.7626   -0.9092    2.3456 O   0  0  0  0  0  0  0  0  0  0  0  0
   -7.5359   -3.9159    1.6369 N   0  3  0  0  0  0  0  0  0  0  0  0
   -5.3355   -2.7993    1.8873 C   0  0  2  0  0  0  0  0  0  0  0  0
   -4.5603   -3.4493    0.8596 O   0  0  0  0  0  0  0  0  0  0  0  0
    1.2991   -3.7157    2.0648 C   0  0  2  0  0  0  0  0  0  0  0  0
    2.6090   -4.3899    1.9135 N   0  3  0  0  0  0  0  0  0  0  0  0
    0.1697   -4.7143    1.8374 C   0  0  0  0  0  0  0  0  0  0  0  0
   -1.1838   -4.0342    1.9877 C   0  0  2  0  0  0  0  0  0  0  0  0
   -2.2146   -5.0373    1.7611 N   0  3  0  0  0  0  0  0  0  0  0  0
   -1.3040   -2.8928    0.9806 C   0  0  1  0  0  0  0  0  0  0  0  0
   -2.5759   -2.2366    1.1484 O   0  0  0  0  0  0  0  0  0  0  0  0
   -0.1737   -1.8728    1.1763 C   0  0  2  0  0  0  0  0  0  0  0  0
   -0.2548   -0.8678    0.1477 O   0  0  0  0  0  0  0  0  0  0  0  0
    1.1983   -2.5375    1.0975 C   0  0  1  0  0  0  0  0  0  0  0  0
    2.2059   -1.5837    1.4066 O   0  0  0  0  0  0  0  0  0  0  0  0
  1  2  1  0  0  0  0
  3  2  1  6  0  0  0
  3  5  1  0  0  0  0
  3  4  1  0  0  0  0
  4  9  1  0  0  0  0
  5  7  1  0  0  0  0
  5  6  1  6  0  0  0
  7  9  1  0  0  0  0
  7  8  1  1  0  0  0
  9 40  1  6  0  0  0
 10  6  1  1  0  0  0
 10 11  1  0  0  0  0
 10 18  1  0  0  0  0
 11 13  1  0  0  0  0
 11 12  1  1  0  0  0
 13 15  1  0  0  0  0
 13 14  1  1  0  0  0
 15 17  1  0  0  0  0
 15 16  1  1  0  0  0
 17 19  1  1  0  0  0
 17 18  1  0  0  0  0
 19 20  1  0  0  0  0
 21 29  1  0  0  0  0
 22 23  1  0  0  0  0
 22 31  1  0  0  0  0
 22 38  1  1  0  0  0
 23 25  1  0  0  0  0
 23 24  1  1  0  0  0
 25 27  1  0  0  0  0
 25 26  1  6  0  0  0
 27 30  1  0  0  0  0
 27 28  1  1  0  0  0
 30 21  1  6  0  0  0
 30 31  1  0  0  0  0
 32 34  1  0  0  0  0
 32 41  1  0  0  0  0
 32 33  1  6  0  0  0
 34 35  1  0  0  0  0
 35 37  1  0  0  0  0
 35 36  1  6  0  0  0
 37 39  1  0  0  0  0
 37 38  1  1  0  0  0
 39 41  1  0  0  0  0
 39 40  1  6  0  0  0
 41 42  1  1  0  0  0
M  CHG  6  12   1  20   1  24   1  29   1  33   1  36   1
M  END
>  <CHROM.1>
-52.51256363,112.28917622,-89.26875562,-143.42979769,-48.95291952,-130.92991253
167.23523697,-58.46851202,178.41311324,48.43346600,-58.84573356,36.30038757
29.20657741,-130.46228805,-13.76394484,-158.28340879,70.93216564,-65.96151046
-47.27413593,-98.94335413,166.73155842,-53.50069826,-1.15668340,-0.11546152
-1.11041513,1.12749015,0.07649370,-0.78518355

>  <Name>
1NEM.B

>  <RI>
0

>  <Rbt.Current_Directory>
/home/itssahil/PROJECTS/Mol_Feturizer/New_Systems/rnas/1nem

>  <Rbt.Executable>
rbdock ($Id: //depot/dev/client3/rdock/2013.1/src/exe/rbdock.cxx#4 $)

>  <Rbt.Library>
libRbt.so (2013.1, Build901 2013/11/27)

>  <Rbt.Parameter_File>
/export/apps/rDock/src/rDock_2013.1_src/data/scripts/dock_solv.prm

>  <Rbt.Receptor>
prm/pocket_docking_8.prm

>  <SCORE>
-28.4717

>  <SCORE.INTER>
-39.6119

>  <SCORE.INTER.CONST>
1

>  <SCORE.INTER.POLAR>
-5.34252

>  <SCORE.INTER.ROT>
9

>  <SCORE.INTER.SOLV>
33.0575

>  <SCORE.INTER.VDW>
-29.2187

>  <SCORE.INTER.norm>
-0.94314

>  <SCORE.INTRA>
11.1402

>  <SCORE.INTRA.DIHEDRAL>
22.4251

>  <SCORE.INTRA.DIHEDRAL.0>
22.4324

>  <SCORE.INTRA.POLAR>
-1.01172

>  <SCORE.INTRA.POLAR.0>
-1.83749

>  <SCORE.INTRA.REPUL>
0

>  <SCORE.INTRA.REPUL.0>
0

>  <SCORE.INTRA.SOLV>
-0.0471425

>  <SCORE.INTRA.SOLV.lig_0>
-160.638

>  <SCORE.INTRA.VDW>
3.39109

>  <SCORE.INTRA.VDW.0>
-7.61953

>  <SCORE.INTRA.norm>
0.265244

>  <SCORE.RESTR>
0

>  <SCORE.RESTR.CAVITY>
0

>  <SCORE.RESTR.norm>
0

>  <SCORE.SYSTEM>
0

>  <SCORE.SYSTEM.CONST>
0

>  <SCORE.SYSTEM.DIHEDRAL>
0

>  <SCORE.SYSTEM.SOLV>
0

>  <SCORE.SYSTEM.norm>
0

>  <SCORE.heavy>
42

>  <SCORE.norm>
-0.677897

>  <RMSD>
7.307

$$$$
1NEM.B
 OpenBabel11021811403D
libRbt.so/2013.1/901 2013/11/27
 42 45  0  0  0  0  0  0  0  0999 V2000
   -2.2973   -6.2207    0.8838 O   0  0  0  0  0  0  0  0  0  0  0  0
   -3.2387   -5.2827    1.4092 C   0  0  0  0  0  0  0  0  0  0  0  0
   -3.6581   -4.2224    0.3921 C   0  0  1  0  0  0  0  0  0  0  0  0
   -4.7577   -4.6809   -0.3889 O   0  0  0  0  0  0  0  0  0  0  0  0
   -4.1805   -2.9309    1.0008 C   0  0  1  0  0  0  0  0  0  0  0  0
   -3.0597   -2.2393    1.5565 O   0  0  0  0  0  0  0  0  0  0  0  0
   -4.8054   -2.3199   -0.2394 C   0  0  1  0  0  0  0  0  0  0  0  0
   -3.8207   -1.8991   -1.1893 O   0  0  0  0  0  0  0  0  0  0  0  0
   -5.5505   -3.5537   -0.7623 C   0  0  2  0  0  0  0  0  0  0  0  0
   -1.7965   -2.6761    1.1429 C   0  0  2  0  0  0  0  0  0  0  0  0
   -1.2193   -3.6279    2.1994 C   0  0  2  0  0  0  0  0  0  0  0  0
   -1.2434   -2.9803    3.5374 N   0  3  0  0  0  0  0  0  0  0  0  0
    0.1935   -4.0783    1.8140 C   0  0  1  0  0  0  0  0  0  0  0  0
    0.1268   -4.9595    0.7006 O   0  0  0  0  0  0  0  0  0  0  0  0
    1.0809   -2.8788    1.4674 C   0  0  2  0  0  0  0  0  0  0  0  0
    1.3452   -2.1070    2.6322 O   0  0  0  0  0  0  0  0  0  0  0  0
    0.3891   -2.0152    0.4165 C   0  0  1  0  0  0  0  0  0  0  0  0
   -0.9011   -1.5982    0.9037 O   0  0  0  0  0  0  0  0  0  0  0  0
    1.1772   -0.7695    0.0514 C   0  0  0  0  0  0  0  0  0  0  0  0
    2.5654   -1.0914   -0.3477 N   0  3  0  0  0  0  0  0  0  0  0  0
   -4.4547   -4.7290    6.4009 C   0  0  0  0  0  0  0  0  0  0  0  0
   -6.9754   -3.6833    3.8949 C   0  0  2  0  0  0  0  0  0  0  0  0
   -6.7280   -2.1778    3.8395 C   0  0  2  0  0  0  0  0  0  0  0  0
   -7.2874   -1.6114    2.5889 N   0  3  0  0  0  0  0  0  0  0  0  0
   -5.2340   -1.8889    3.8999 C   0  0  1  0  0  0  0  0  0  0  0  0
   -5.0211   -0.4858    3.9260 O   0  0  0  0  0  0  0  0  0  0  0  0
   -4.6389   -2.5340    5.1495 C   0  0  2  0  0  0  0  0  0  0  0  0
   -3.2324   -2.3277    5.1774 O   0  0  0  0  0  0  0  0  0  0  0  0
   -4.2708   -6.1819    6.1809 N   0  3  0  0  0  0  0  0  0  0  0  0
   -4.9397   -4.0315    5.1419 C   0  0  2  0  0  0  0  0  0  0  0  0
   -6.3620   -4.2512    5.0492 O   0  0  0  0  0  0  0  0  0  0  0  0
   -8.4418   -7.1213    0.2036 C   0  0  2  0  0  0  0  0  0  0  0  0
   -9.4773   -7.7772   -0.6276 N   0  3  0  0  0  0  0  0  0  0  0  0
   -8.9558   -6.9369    1.6269 C   0  0  0  0  0  0  0  0  0  0  0  0
   -7.9019   -6.2612    2.4929 C   0  0  2  0  0  0  0  0  0  0  0  0
   -8.4518   -6.1165    3.8333 N   0  3  0  0  0  0  0  0  0  0  0  0
   -7.5419   -4.9000    1.9021 C   0  0  1  0  0  0  0  0  0  0  0  0
   -6.5238   -4.2796    2.7114 O   0  0  0  0  0  0  0  0  0  0  0  0
   -7.0292   -5.0495    0.4630 C   0  0  2  0  0  0  0  0  0  0  0  0
   -6.7985   -3.7436   -0.0992 O   0  0  0  0  0  0  0  0  0  0  0  0
   -8.0381   -5.7843   -0.4159 C   0  0  1  0  0  0  0  0  0  0  0  0
   -7.4729   -6.0093   -1.7006 O   0  0  0  0  0  0  0  0  0  0  0  0
  1  2  1  0  0  0  0
  3  2  1  1  0  0  0
  3  5  1  0  0  0  0
  3  4  1  0  0  0  0
  4  9  1  0  0  0  0
  5  7  1  0  0  0  0
  5  6  1  6  0  0  0
  7  9  1  0  0  0  0
  7  8  1  6  0  0  0
  9 40  1  1  0  0  0
 10  6  1  1  0  0  0
 10 11  1  0  0  0  0
 10 18  1  0  0  0  0
 11 13  1  0  0  0  0
 11 12  1  1  0  0  0
 13 15  1  0  0  0  0
 13 14  1  6  0  0  0
 15 17  1  0  0  0  0
 15 16  1  1  0  0  0
 17 19  1  1  0  0  0
 17 18  1  0  0  0  0
 19 20  1  0  0  0  0
 21 29  1  0  0  0  0
 22 23  1  0  0  0  0
 22 31  1  0  0  0  0
 22 38  1  6  0  0  0
 23 25  1  0  0  0  0
 23 24  1  6  0  0  0
 25 27  1  0  0  0  0
 25 26  1  1  0  0  0
 27 30  1  0  0  0  0
 27 28  1  6  0  0  0
 30 21  1  1  0  0  0
 30 31  1  0  0  0  0
 32 34  1  0  0  0  0
 32 41  1  0  0  0  0
 32 33  1  6  0  0  0
 34 35  1  0  0  0  0
 35 37  1  0  0  0  0
 35 36  1  1  0  0  0
 37 39  1  0  0  0  0
 37 38  1  1  0  0  0
 39 41  1  0  0  0  0
 39 40  1  6  0  0  0
 41 42  1  6  0  0  0
M  CHG  6  12   1  20   1  24   1  29   1  33   1  36   1
M  END
>  <CHROM.1>
53.42985563,87.15250654,15.54661808,-97.92341444,129.15974481,-13.09469736
64.87435699,-176.88926146,-93.33844929,53.26836785,-55.41293298,-158.15073301
-179.35387076,-116.08288017,175.78647470,65.42849303,-155.68446702,67.86795924
45.97384081,-78.70160724,132.23918790,70.07153395,-4.23833818,-3.80696208
1.87933148,-0.03846335,-0.38684082,-1.77735522

>  <Name>
1NEM.B

>  <RI>
0

>  <Rbt.Current_Directory>
/home/itssahil/PROJECTS/Mol_Feturizer/New_Systems/rnas/1nem

>  <Rbt.Executable>
rbdock ($Id: //depot/dev/client3/rdock/2013.1/src/exe/rbdock.cxx#4 $)

>  <Rbt.Library>
libRbt.so (2013.1, Build901 2013/11/27)

>  <Rbt.Parameter_File>
/export/apps/rDock/src/rDock_2013.1_src/data/scripts/dock_solv.prm

>  <Rbt.Receptor>
prm/blind_docking_100.prm

>  <SCORE>
-25.9265

>  <SCORE.INTER>
-51.0217

>  <SCORE.INTER.CONST>
1

>  <SCORE.INTER.POLAR>
-7.6832

>  <SCORE.INTER.ROT>
9

>  <SCORE.INTER.SOLV>
42.4175

>  <SCORE.INTER.VDW>
-32.1429

>  <SCORE.INTER.norm>
-1.2148

>  <SCORE.INTRA>
24.3937

>  <SCORE.INTRA.DIHEDRAL>
28.8837

>  <SCORE.INTRA.DIHEDRAL.0>
22.4324

>  <SCORE.INTRA.POLAR>
-1.04233

>  <SCORE.INTRA.POLAR.0>
-1.83749

>  <SCORE.INTRA.REPUL>
0.0385946

>  <SCORE.INTRA.REPUL.0>
0

>  <SCORE.INTRA.SOLV>
3.32824

>  <SCORE.INTRA.SOLV.lig_0>
-160.638

>  <SCORE.INTRA.VDW>
11.6387

>  <SCORE.INTRA.VDW.0>
-7.61953

>  <SCORE.INTRA.norm>
0.580803

>  <SCORE.RESTR>
0.701434

>  <SCORE.RESTR.CAVITY>
0.701434

>  <SCORE.RESTR.norm>
0.0167008

>  <SCORE.SYSTEM>
0

>  <SCORE.SYSTEM.CONST>
0

>  <SCORE.SYSTEM.DIHEDRAL>
0

>  <SCORE.SYSTEM.SOLV>
0

>  <SCORE.SYSTEM.norm>
0

>  <SCORE.heavy>
42

>  <SCORE.norm>
-0.617299

>  <RMSD>
7.315

$$$$
1NEM.B
 OpenBabel11021811403D
libRbt.so/2013.1/901 2013/11/27
 42 45  0  0  0  0  0  0  0  0999 V2000
    2.3007    2.7413    7.0211 O   0  0  0  0  0  0  0  0  0  0  0  0
    1.8756    1.3892    6.8385 C   0  0  0  0  0  0  0  0  0  0  0  0
    2.4990    0.7266    5.6109 C   0  0  1  0  0  0  0  0  0  0  0  0
    2.0892    1.3895    4.4183 O   0  0  0  0  0  0  0  0  0  0  0  0
    4.0159    0.8072    5.5479 C   0  0  1  0  0  0  0  0  0  0  0  0
    4.5301   -0.0868    6.5376 O   0  0  0  0  0  0  0  0  0  0  0  0
    4.2151    0.4006    4.0999 C   0  0  1  0  0  0  0  0  0  0  0  0
    3.9175   -0.9824    3.8812 O   0  0  0  0  0  0  0  0  0  0  0  0
    3.1380    1.2811    3.4556 C   0  0  2  0  0  0  0  0  0  0  0  0
    5.8219    0.1822    7.0026 C   0  0  2  0  0  0  0  0  0  0  0  0
    6.1593   -0.7837    8.1466 C   0  0  2  0  0  0  0  0  0  0  0  0
    5.1014   -0.7287    9.1897 N   0  3  0  0  0  0  0  0  0  0  0  0
    7.5437   -0.4783    8.7277 C   0  0  1  0  0  0  0  0  0  0  0  0
    8.5470   -0.8479    7.7911 O   0  0  0  0  0  0  0  0  0  0  0  0
    7.6837    1.0079    9.0710 C   0  0  2  0  0  0  0  0  0  0  0  0
    6.8435    1.3427   10.1683 O   0  0  0  0  0  0  0  0  0  0  0  0
    7.3135    1.8526    7.8551 C   0  0  1  0  0  0  0  0  0  0  0  0
    5.9755    1.5296    7.4290 O   0  0  0  0  0  0  0  0  0  0  0  0
    7.3723    3.3462    8.1229 C   0  0  0  0  0  0  0  0  0  0  0  0
    8.7520    3.8037    8.4004 N   0  3  0  0  0  0  0  0  0  0  0  0
    0.3830    3.2643   -2.9443 C   0  0  0  0  0  0  0  0  0  0  0  0
    1.4931    4.5117    0.3631 C   0  0  2  0  0  0  0  0  0  0  0  0
    0.1876    4.4540    1.1525 C   0  0  2  0  0  0  0  0  0  0  0  0
    0.4673    4.4627    2.6083 N   0  3  0  0  0  0  0  0  0  0  0  0
   -0.5864    3.1921    0.7952 C   0  0  1  0  0  0  0  0  0  0  0  0
   -1.8317    3.1887    1.4761 O   0  0  0  0  0  0  0  0  0  0  0  0
   -0.8126    3.1416   -0.7141 C   0  0  2  0  0  0  0  0  0  0  0  0
   -1.4740    1.9326   -1.0640 O   0  0  0  0  0  0  0  0  0  0  0  0
    1.6961    3.1773   -3.6234 N   0  3  0  0  0  0  0  0  0  0  0  0
    0.5326    3.2196   -1.4335 C   0  0  2  0  0  0  0  0  0  0  0  0
    1.2393    4.4120   -1.0357 O   0  0  0  0  0  0  0  0  0  0  0  0
    6.5870    3.6650    1.2184 C   0  0  2  0  0  0  0  0  0  0  0  0
    7.9351    4.1164    1.6333 N   0  3  0  0  0  0  0  0  0  0  0  0
    5.8863    4.7689    0.4345 C   0  0  0  0  0  0  0  0  0  0  0  0
    4.4973    4.3194    0.0030 C   0  0  2  0  0  0  0  0  0  0  0  0
    3.8851    5.4127   -0.7386 N   0  3  0  0  0  0  0  0  0  0  0  0
    3.6646    3.9612    1.2317 C   0  0  1  0  0  0  0  0  0  0  0  0
    2.3615    3.5101    0.8134 O   0  0  0  0  0  0  0  0  0  0  0  0
    4.3485    2.8572    2.0500 C   0  0  2  0  0  0  0  0  0  0  0  0
    3.5928    2.6172    3.2525 O   0  0  0  0  0  0  0  0  0  0  0  0
    5.7703    3.2517    2.4417 C   0  0  1  0  0  0  0  0  0  0  0  0
    6.4058    2.1562    3.0871 O   0  0  0  0  0  0  0  0  0  0  0  0
  1  2  1  0  0  0  0
  3  2  1  1  0  0  0
  3  5  1  0  0  0  0
  3  4  1  0  0  0  0
  4  9  1  0  0  0  0
  5  7  1  0  0  0  0
  5  6  1  1  0  0  0
  7  9  1  0  0  0  0
  7  8  1  1  0  0  0
  9 40  1  1  0  0  0
 10  6  1  1  0  0  0
 10 11  1  0  0  0  0
 10 18  1  0  0  0  0
 11 13  1  0  0  0  0
 11 12  1  1  0  0  0
 13 15  1  0  0  0  0
 13 14  1  6  0  0  0
 15 17  1  0  0  0  0
 15 16  1  1  0  0  0
 17 19  1  1  0  0  0
 17 18  1  0  0  0  0
 19 20  1  0  0  0  0
 21 29  1  0  0  0  0
 22 23  1  0  0  0  0
 22 31  1  0  0  0  0
 22 38  1  1  0  0  0
 23 25  1  0  0  0  0
 23 24  1  1  0  0  0
 25 27  1  0  0  0  0
 25 26  1  1  0  0  0
 27 30  1  0  0  0  0
 27 28  1  1  0  0  0
 30 21  1  6  0  0  0
 30 31  1  0  0  0  0
 32 34  1  0  0  0  0
 32 41  1  0  0  0  0
 32 33  1  1  0  0  0
 34 35  1  0  0  0  0
 35 37  1  0  0  0  0
 35 36  1  1  0  0  0
 37 39  1  0  0  0  0
 37 38  1  6  0  0  0
 39 41  1  0  0  0  0
 39 40  1  1  0  0  0
 41 42  1  6  0  0  0
M  CHG  6  12   1  20   1  24   1  29   1  33   1  36   1
M  END
>  <CHROM.1>
-60.53450522,-63.34648604,-156.64906907,174.57848769,-56.21741673,-161.41385047
-77.33050372,-59.60504716,171.99916262,65.63421894,168.07914264,-173.23841055
45.29456694,-125.20831652,151.06116216,-158.47892405,174.88386201,58.29153703
-72.69599461,-74.20567852,123.02850066,-59.37112540,3.85996463,2.32037598
3.59768190,1.00272786,0.23322970,2.02361075

>  <Name>
1NEM.B

>  <RI>
0

>  <Rbt.Current_Directory>
/home/itssahil/PROJECTS/Mol_Feturizer/New_Systems/rnas/1nem

>  <Rbt.Executable>
rbdock ($Id: //depot/dev/client3/rdock/2013.1/src/exe/rbdock.cxx#4 $)

>  <Rbt.Library>
libRbt.so (2013.1, Build901 2013/11/27)

>  <Rbt.Parameter_File>
/export/apps/rDock/src/rDock_2013.1_src/data/scripts/dock_solv.prm

>  <Rbt.Receptor>
prm/pocket_docking_6.prm

>  <SCORE>
-20.8513

>  <SCORE.INTER>
-23.0169

>  <SCORE.INTER.CONST>
1

>  <SCORE.INTER.POLAR>
-2.60091

>  <SCORE.INTER.ROT>
9

>  <SCORE.INTER.SOLV>
21.4152

>  <SCORE.INTER.VDW>
-23.4133

>  <SCORE.INTER.norm>
-0.548021

>  <SCORE.INTRA>
2.16554

>  <SCORE.INTRA.DIHEDRAL>
3.98101

>  <SCORE.INTRA.DIHEDRAL.0>
22.4324

>  <SCORE.INTRA.POLAR>
-0.132829

>  <SCORE.INTRA.POLAR.0>
-1.83749

>  <SCORE.INTRA.REPUL>
0.00269641

>  <SCORE.INTRA.REPUL.0>
0

>  <SCORE.INTRA.SOLV>
-4.22974

>  <SCORE.INTRA.SOLV.lig_0>
-160.638

>  <SCORE.INTRA.VDW>
2.72804

>  <SCORE.INTRA.VDW.0>
-7.61953

>  <SCORE.INTRA.norm>
0.0515606

>  <SCORE.RESTR>
0

>  <SCORE.RESTR.CAVITY>
0

>  <SCORE.RESTR.norm>
0

>  <SCORE.SYSTEM>
0

>  <SCORE.SYSTEM.CONST>
0

>  <SCORE.SYSTEM.DIHEDRAL>
0

>  <SCORE.SYSTEM.SOLV>
0

>  <SCORE.SYSTEM.norm>
0

>  <SCORE.heavy>
42

>  <SCORE.norm>
-0.49646

>  <RMSD>
7.376

$$$$
1NEM.B
 OpenBabel11021811403D
libRbt.so/2013.1/901 2013/11/27
 42 45  0  0  0  0  0  0  0  0999 V2000
   -4.6585    1.4701   -1.7183 O   0  0  0  0  0  0  0  0  0  0  0  0
   -4.8112    0.6867   -0.5329 C   0  0  0  0  0  0  0  0  0  0  0  0
   -3.6782   -0.3181   -0.3298 C   0  0  1  0  0  0  0  0  0  0  0  0
   -2.4793    0.1435   -0.9455 O   0  0  0  0  0  0  0  0  0  0  0  0
   -3.2659   -0.5251    1.1189 C   0  0  1  0  0  0  0  0  0  0  0  0
   -4.3071   -1.2701    1.7546 O   0  0  0  0  0  0  0  0  0  0  0  0
   -1.9550   -1.2540    0.8906 C   0  0  1  0  0  0  0  0  0  0  0  0
   -2.1538   -2.5762    0.3792 O   0  0  0  0  0  0  0  0  0  0  0  0
   -1.3668   -0.3493   -0.1986 C   0  0  2  0  0  0  0  0  0  0  0  0
   -3.9591   -1.9361    2.9346 C   0  0  2  0  0  0  0  0  0  0  0  0
   -3.5032   -3.3618    2.5955 C   0  0  2  0  0  0  0  0  0  0  0  0
   -4.5389   -4.0482    1.7791 N   0  3  0  0  0  0  0  0  0  0  0  0
   -3.1746   -4.1469    3.8695 C   0  0  1  0  0  0  0  0  0  0  0  0
   -1.9800   -3.6390    4.4488 O   0  0  0  0  0  0  0  0  0  0  0  0
   -4.3175   -4.0557    4.8853 C   0  0  2  0  0  0  0  0  0  0  0  0
   -5.4570   -4.7623    4.4116 O   0  0  0  0  0  0  0  0  0  0  0  0
   -4.6753   -2.5917    5.1253 C   0  0  1  0  0  0  0  0  0  0  0  0
   -5.0247   -1.9663    3.8752 O   0  0  0  0  0  0  0  0  0  0  0  0
   -5.8399   -2.4088    6.0825 C   0  0  0  0  0  0  0  0  0  0  0  0
   -5.4344   -2.6120    7.4911 N   0  3  0  0  0  0  0  0  0  0  0  0
    5.1618    0.6436    3.4259 C   0  0  0  0  0  0  0  0  0  0  0  0
    3.1670   -0.2765    0.4424 C   0  0  2  0  0  0  0  0  0  0  0  0
    2.6375   -1.6480    0.8542 C   0  0  2  0  0  0  0  0  0  0  0  0
    1.4573   -2.0101    0.0335 N   0  3  0  0  0  0  0  0  0  0  0  0
    2.2448   -1.6388    2.3256 C   0  0  1  0  0  0  0  0  0  0  0  0
    1.8279   -2.9383    2.7152 O   0  0  0  0  0  0  0  0  0  0  0  0
    3.4371   -1.1943    3.1698 C   0  0  2  0  0  0  0  0  0  0  0  0
    3.0588   -1.1164    4.5381 O   0  0  0  0  0  0  0  0  0  0  0  0
    5.4628    2.0635    3.1323 N   0  3  0  0  0  0  0  0  0  0  0  0
    3.9192    0.1734    2.6901 C   0  0  2  0  0  0  0  0  0  0  0  0
    4.2449    0.1200    1.2862 O   0  0  0  0  0  0  0  0  0  0  0  0
    0.2280    2.4728   -2.8889 C   0  0  2  0  0  0  0  0  0  0  0  0
   -0.5100    2.6268   -4.1636 N   0  3  0  0  0  0  0  0  0  0  0  0
    1.5031    1.6695   -3.1188 C   0  0  0  0  0  0  0  0  0  0  0  0
    2.2715    1.5012   -1.8155 C   0  0  2  0  0  0  0  0  0  0  0  0
    3.4732    0.7307   -2.1026 N   0  3  0  0  0  0  0  0  0  0  0  0
    1.3977    0.7849   -0.7885 C   0  0  1  0  0  0  0  0  0  0  0  0
    2.1217    0.6548    0.4505 O   0  0  0  0  0  0  0  0  0  0  0  0
    0.0985    1.5641   -0.5410 C   0  0  2  0  0  0  0  0  0  0  0  0
   -0.7466    0.8116    0.3501 O   0  0  0  0  0  0  0  0  0  0  0  0
   -0.6633    1.8075   -1.8414 C   0  0  1  0  0  0  0  0  0  0  0  0
   -1.7897    2.6352   -1.5836 O   0  0  0  0  0  0  0  0  0  0  0  0
  1  2  1  0  0  0  0
  3  2  1  1  0  0  0
  3  5  1  0  0  0  0
  3  4  1  0  0  0  0
  4  9  1  0  0  0  0
  5  7  1  0  0  0  0
  5  6  1  1  0  0  0
  7  9  1  0  0  0  0
  7  8  1  6  0  0  0
  9 40  1  1  0  0  0
 10  6  1  6  0  0  0
 10 11  1  0  0  0  0
 10 18  1  0  0  0  0
 11 13  1  0  0  0  0
 11 12  1  1  0  0  0
 13 15  1  0  0  0  0
 13 14  1  1  0  0  0
 15 17  1  0  0  0  0
 15 16  1  6  0  0  0
 17 19  1  1  0  0  0
 17 18  1  0  0  0  0
 19 20  1  0  0  0  0
 21 29  1  0  0  0  0
 22 23  1  0  0  0  0
 22 31  1  0  0  0  0
 22 38  1  1  0  0  0
 23 25  1  0  0  0  0
 23 24  1  6  0  0  0
 25 27  1  0  0  0  0
 25 26  1  1  0  0  0
 27 30  1  0  0  0  0
 27 28  1  1  0  0  0
 30 21  1  1  0  0  0
 30 31  1  0  0  0  0
 32 34  1  0  0  0  0
 32 41  1  0  0  0  0
 32 33  1  6  0  0  0
 34 35  1  0  0  0  0
 35 37  1  0  0  0  0
 35 36  1  6  0  0  0
 37 39  1  0  0  0  0
 37 38  1  1  0  0  0
 39 41  1  0  0  0  0
 39 40  1  1  0  0  0
 41 42  1  1  0  0  0
M  CHG  6  12   1  20   1  24   1  29   1  33   1  36   1
M  END
>  <CHROM.1>
-51.79926544,27.35805515,159.96153800,-91.60610809,82.32673838,-79.25705057
168.08306174,58.07585045,75.10684877,76.87766666,153.11749787,-169.32201756
56.67667952,-89.57724857,175.94469528,-157.76393284,-51.13996700,158.66752227
156.66468155,-72.04312259,-72.55083511,-66.17496591,-0.79333440,-0.72600594
1.30816143,2.46151710,0.15270416,2.11775813

>  <Name>
1NEM.B

>  <RI>
0

>  <Rbt.Current_Directory>
/home/itssahil/PROJECTS/Mol_Feturizer/New_Systems/rnas/1nem

>  <Rbt.Executable>
rbdock ($Id: //depot/dev/client3/rdock/2013.1/src/exe/rbdock.cxx#4 $)

>  <Rbt.Library>
libRbt.so (2013.1, Build901 2013/11/27)

>  <Rbt.Parameter_File>
/export/apps/rDock/src/rDock_2013.1_src/data/scripts/dock_solv.prm

>  <Rbt.Receptor>
prm/pocket_docking_3.prm

>  <SCORE>
-17.4087

>  <SCORE.INTER>
-29.2454

>  <SCORE.INTER.CONST>
1

>  <SCORE.INTER.POLAR>
-3.7109

>  <SCORE.INTER.ROT>
9

>  <SCORE.INTER.SOLV>
29.725

>  <SCORE.INTER.VDW>
-26.6356

>  <SCORE.INTER.norm>
-0.696318

>  <SCORE.INTRA>
10.2673

>  <SCORE.INTRA.DIHEDRAL>
5.1686

>  <SCORE.INTRA.DIHEDRAL.0>
22.4324

>  <SCORE.INTRA.POLAR>
0.193727

>  <SCORE.INTRA.POLAR.0>
-1.83749

>  <SCORE.INTRA.REPUL>
0.0315343

>  <SCORE.INTRA.REPUL.0>
0

>  <SCORE.INTRA.SOLV>
-0.10954

>  <SCORE.INTRA.SOLV.lig_0>
-160.638

>  <SCORE.INTRA.VDW>
6.92146

>  <SCORE.INTRA.VDW.0>
-7.61953

>  <SCORE.INTRA.norm>
0.24446

>  <SCORE.RESTR>
1.56938

>  <SCORE.RESTR.CAVITY>
1.56938

>  <SCORE.RESTR.norm>
0.0373663

>  <SCORE.SYSTEM>
0

>  <SCORE.SYSTEM.CONST>
0

>  <SCORE.SYSTEM.DIHEDRAL>
0

>  <SCORE.SYSTEM.SOLV>
0

>  <SCORE.SYSTEM.norm>
0

>  <SCORE.heavy>
42

>  <SCORE.norm>
-0.414492

>  <RMSD>
7.425

$$$$
1NEM.B
 OpenBabel11021811403D
libRbt.so/2013.1/901 2013/11/27
 42 45  0  0  0  0  0  0  0  0999 V2000
    0.1260   -4.1135    2.7391 O   0  0  0  0  0  0  0  0  0  0  0  0
   -0.5623   -3.8364    1.5177 C   0  0  0  0  0  0  0  0  0  0  0  0
   -1.4073   -2.5650    1.5823 C   0  0  1  0  0  0  0  0  0  0  0  0
   -0.6177   -1.4194    1.2764 O   0  0  0  0  0  0  0  0  0  0  0  0
   -2.5288   -2.4959    0.5581 C   0  0  1  0  0  0  0  0  0  0  0  0
   -3.5360   -3.4238    0.9679 O   0  0  0  0  0  0  0  0  0  0  0  0
   -2.8739   -1.0238    0.6832 C   0  0  1  0  0  0  0  0  0  0  0  0
   -3.5057   -0.7211    1.9316 O   0  0  0  0  0  0  0  0  0  0  0  0
   -1.4549   -0.4440    0.6549 C   0  0  2  0  0  0  0  0  0  0  0  0
   -3.8630   -3.4207    2.3282 C   0  0  2  0  0  0  0  0  0  0  0  0
   -4.1039   -4.8631    2.7940 C   0  0  2  0  0  0  0  0  0  0  0  0
   -5.1076   -5.5217    1.9170 N   0  3  0  0  0  0  0  0  0  0  0  0
   -4.5290   -4.8971    4.2656 C   0  0  1  0  0  0  0  0  0  0  0  0
   -3.4229   -4.5548    5.0903 O   0  0  0  0  0  0  0  0  0  0  0  0
   -5.6858   -3.9284    4.5295 C   0  0  2  0  0  0  0  0  0  0  0  0
   -6.8699   -4.3870    3.8893 O   0  0  0  0  0  0  0  0  0  0  0  0
   -5.3199   -2.5394    4.0141 C   0  0  1  0  0  0  0  0  0  0  0  0
   -4.9970   -2.6115    2.6118 O   0  0  0  0  0  0  0  0  0  0  0  0
   -6.4353   -1.5234    4.1865 C   0  0  0  0  0  0  0  0  0  0  0  0
   -6.0895   -0.2161    3.5854 N   0  3  0  0  0  0  0  0  0  0  0  0
    4.5459    1.5321    3.1587 C   0  0  0  0  0  0  0  0  0  0  0  0
    2.9630   -0.1387    0.2553 C   0  0  2  0  0  0  0  0  0  0  0  0
    2.9004   -1.5833    0.7455 C   0  0  2  0  0  0  0  0  0  0  0  0
    1.9020   -2.3485   -0.0389 N   0  3  0  0  0  0  0  0  0  0  0  0
    2.5202   -1.6212    2.2196 C   0  0  1  0  0  0  0  0  0  0  0  0
    2.5412   -2.9628    2.6823 O   0  0  0  0  0  0  0  0  0  0  0  0
    3.5036   -0.7730    3.0229 C   0  0  2  0  0  0  0  0  0  0  0  0
    3.1153   -0.7469    4.3904 O   0  0  0  0  0  0  0  0  0  0  0  0
    3.9322    2.3204    4.2519 N   0  3  0  0  0  0  0  0  0  0  0  0
    3.5227    0.6492    2.4658 C   0  0  2  0  0  0  0  0  0  0  0  0
    3.8534    0.6275    1.0622 O   0  0  0  0  0  0  0  0  0  0  0  0
   -0.1967    2.6653   -2.8438 C   0  0  2  0  0  0  0  0  0  0  0  0
   -0.7082    3.0533   -4.1784 N   0  3  0  0  0  0  0  0  0  0  0  0
    1.3122    2.4565   -2.9046 C   0  0  0  0  0  0  0  0  0  0  0  0
    1.8520    2.0547   -1.5392 C   0  0  2  0  0  0  0  0  0  0  0  0
    3.2912    1.8731   -1.6644 N   0  3  0  0  0  0  0  0  0  0  0  0
    1.1786    0.7651   -1.0757 C   0  0  1  0  0  0  0  0  0  0  0  0
    1.6741    0.4071    0.2292 O   0  0  0  0  0  0  0  0  0  0  0  0
   -0.3452    0.9386   -1.0131 C   0  0  2  0  0  0  0  0  0  0  0  0
   -0.9553   -0.3216   -0.6750 O   0  0  0  0  0  0  0  0  0  0  0  0
   -0.9096    1.4066   -2.3521 C   0  0  1  0  0  0  0  0  0  0  0  0
   -2.2991    1.6728   -2.2143 O   0  0  0  0  0  0  0  0  0  0  0  0
  1  2  1  0  0  0  0
  3  2  1  6  0  0  0
  3  5  1  0  0  0  0
  3  4  1  0  0  0  0
  4  9  1  0  0  0  0
  5  7  1  0  0  0  0
  5  6  1  1  0  0  0
  7  9  1  0  0  0  0
  7  8  1  1  0  0  0
  9 40  1  6  0  0  0
 10  6  1  6  0  0  0
 10 11  1  0  0  0  0
 10 18  1  0  0  0  0
 11 13  1  0  0  0  0
 11 12  1  6  0  0  0
 13 15  1  0  0  0  0
 13 14  1  1  0  0  0
 15 17  1  0  0  0  0
 15 16  1  6  0  0  0
 17 19  1  6  0  0  0
 17 18  1  0  0  0  0
 19 20  1  0  0  0  0
 21 29  1  0  0  0  0
 22 23  1  0  0  0  0
 22 31  1  0  0  0  0
 22 38  1  1  0  0  0
 23 25  1  0  0  0  0
 23 24  1  6  0  0  0
 25 27  1  0  0  0  0
 25 26  1  1  0  0  0
 27 30  1  0  0  0  0
 27 28  1  1  0  0  0
 30 21  1  1  0  0  0
 30 31  1  0  0  0  0
 32 34  1  0  0  0  0
 32 41  1  0  0  0  0
 32 33  1  6  0  0  0
 34 35  1  0  0  0  0
 35 37  1  0  0  0  0
 35 36  1  6  0  0  0
 37 39  1  0  0  0  0
 37 38  1  1  0  0  0
 39 41  1  0  0  0  0
 39 40  1  6  0  0  0
 41 42  1  1  0  0  0
M  CHG  6  12   1  20   1  24   1  29   1  33   1  36   1
M  END
>  <CHROM.1>
160.35514464,85.60702921,44.22037156,-141.40743952,172.55414681,-112.88599776
-62.49713392,58.84558715,179.53811525,-175.64473807,142.54643988,-95.37181359
-71.73506567,-115.55942013,157.82956870,58.60174526,-59.53579372,54.70212269
-68.63390330,-75.40870255,105.74377117,-175.20465129,-0.81521691,-1.11643545
1.33347867,-2.50608848,-0.21995377,-0.91235354

>  <Name>
1NEM.B

>  <RI>
0

>  <Rbt.Current_Directory>
/home/itssahil/PROJECTS/Mol_Feturizer/New_Systems/rnas/1nem

>  <Rbt.Executable>
rbdock ($Id: //depot/dev/client3/rdock/2013.1/src/exe/rbdock.cxx#4 $)

>  <Rbt.Library>
libRbt.so (2013.1, Build901 2013/11/27)

>  <Rbt.Parameter_File>
/export/apps/rDock/src/rDock_2013.1_src/data/scripts/dock_solv.prm

>  <Rbt.Receptor>
prm/pocket_docking_5.prm

>  <SCORE>
-33.7956

>  <SCORE.INTER>
-40.7143

>  <SCORE.INTER.CONST>
1

>  <SCORE.INTER.POLAR>
-6.35958

>  <SCORE.INTER.ROT>
9

>  <SCORE.INTER.SOLV>
37.0934

>  <SCORE.INTER.VDW>
-27.9087

>  <SCORE.INTER.norm>
-0.969389

>  <SCORE.INTRA>
6.91877

>  <SCORE.INTRA.DIHEDRAL>
17.6289

>  <SCORE.INTRA.DIHEDRAL.0>
22.4324

>  <SCORE.INTRA.POLAR>
-2.26604

>  <SCORE.INTRA.POLAR.0>
-1.83749

>  <SCORE.INTRA.REPUL>
0.115093

>  <SCORE.INTRA.REPUL.0>
0

>  <SCORE.INTRA.SOLV>
2.00761

>  <SCORE.INTRA.SOLV.lig_0>
-160.638

>  <SCORE.INTRA.VDW>
4.22959

>  <SCORE.INTRA.VDW.0>
-7.61953

>  <SCORE.INTRA.norm>
0.164733

>  <SCORE.RESTR>
0

>  <SCORE.RESTR.CAVITY>
0

>  <SCORE.RESTR.norm>
0

>  <SCORE.SYSTEM>
0

>  <SCORE.SYSTEM.CONST>
0

>  <SCORE.SYSTEM.DIHEDRAL>
0

>  <SCORE.SYSTEM.SOLV>
0

>  <SCORE.SYSTEM.norm>
0

>  <SCORE.heavy>
42

>  <SCORE.norm>
-0.804656

>  <RMSD>
7.433

$$$$
1NEM.B
 OpenBabel11021811403D
libRbt.so/2013.1/901 2013/11/27
 42 45  0  0  0  0  0  0  0  0999 V2000
    1.6512    1.7129    6.4562 O   0  0  0  0  0  0  0  0  0  0  0  0
    1.8210    2.1875    5.1190 C   0  0  0  0  0  0  0  0  0  0  0  0
    2.6522    1.2444    4.2504 C   0  0  1  0  0  0  0  0  0  0  0  0
    2.5644    1.6154    2.8778 O   0  0  0  0  0  0  0  0  0  0  0  0
    4.1473    1.2819    4.5242 C   0  0  1  0  0  0  0  0  0  0  0  0
    4.3652    0.6367    5.7810 O   0  0  0  0  0  0  0  0  0  0  0  0
    4.6328    0.5431    3.2913 C   0  0  1  0  0  0  0  0  0  0  0  0
    4.2940   -0.8473    3.3261 O   0  0  0  0  0  0  0  0  0  0  0  0
    3.7899    1.2659    2.2340 C   0  0  2  0  0  0  0  0  0  0  0  0
    5.6910    0.5771    6.2239 C   0  0  2  0  0  0  0  0  0  0  0  0
    5.7604   -0.2720    7.5004 C   0  0  2  0  0  0  0  0  0  0  0  0
    4.7934    0.2399    8.5070 N   0  3  0  0  0  0  0  0  0  0  0  0
    7.1884   -0.3081    8.0544 C   0  0  1  0  0  0  0  0  0  0  0  0
    8.0137   -1.0861    7.1976 O   0  0  0  0  0  0  0  0  0  0  0  0
    7.7676    1.1042    8.1824 C   0  0  2  0  0  0  0  0  0  0  0  0
    7.0922    1.8241    9.2060 O   0  0  0  0  0  0  0  0  0  0  0  0
    7.6293    1.8382    6.8516 C   0  0  1  0  0  0  0  0  0  0  0  0
    6.2446    1.8660    6.4543 O   0  0  0  0  0  0  0  0  0  0  0  0
    8.1311    3.2705    6.9025 C   0  0  0  0  0  0  0  0  0  0  0  0
    7.1757    4.1664    7.5912 N   0  3  0  0  0  0  0  0  0  0  0  0
    0.6025    4.4570   -3.8622 C   0  0  0  0  0  0  0  0  0  0  0  0
    2.0731    4.6615   -0.4678 C   0  0  2  0  0  0  0  0  0  0  0  0
    0.8303    4.4891    0.4021 C   0  0  2  0  0  0  0  0  0  0  0  0
    1.2163    4.0770    1.7727 N   0  3  0  0  0  0  0  0  0  0  0  0
   -0.0901    3.4361   -0.2007 C   0  0  1  0  0  0  0  0  0  0  0  0
   -1.2758    3.3409    0.5736 O   0  0  0  0  0  0  0  0  0  0  0  0
   -0.4313    3.8187   -1.6391 C   0  0  2  0  0  0  0  0  0  0  0  0
   -1.2341    2.8059   -2.2317 O   0  0  0  0  0  0  0  0  0  0  0  0
    1.8259    4.3686   -4.6920 N   0  3  0  0  0  0  0  0  0  0  0  0
    0.8581    3.9885   -2.4403 C   0  0  2  0  0  0  0  0  0  0  0  0
    1.7079    4.9688   -1.8106 O   0  0  0  0  0  0  0  0  0  0  0  0
    7.0617    2.9455   -0.7559 C   0  0  2  0  0  0  0  0  0  0  0  0
    8.5191    3.1709   -0.6200 N   0  3  0  0  0  0  0  0  0  0  0  0
    6.4169    4.1248   -1.4753 C   0  0  0  0  0  0  0  0  0  0  0  0
    4.9172    3.9077   -1.6202 C   0  0  2  0  0  0  0  0  0  0  0  0
    4.3643    5.0628   -2.3132 N   0  3  0  0  0  0  0  0  0  0  0  0
    4.2824    3.7449   -0.2411 C   0  0  1  0  0  0  0  0  0  0  0  0
    2.8681    3.5118   -0.3882 O   0  0  0  0  0  0  0  0  0  0  0  0
    4.9174    2.5697    0.5152 C   0  0  2  0  0  0  0  0  0  0  0  0
    4.3717    2.5088    1.8468 O   0  0  0  0  0  0  0  0  0  0  0  0
    6.4325    2.7255    0.6189 C   0  0  1  0  0  0  0  0  0  0  0  0
    6.9895    1.5607    1.2136 O   0  0  0  0  0  0  0  0  0  0  0  0
  1  2  1  0  0  0  0
  3  2  1  1  0  0  0
  3  5  1  0  0  0  0
  3  4  1  0  0  0  0
  4  9  1  0  0  0  0
  5  7  1  0  0  0  0
  5  6  1  1  0  0  0
  7  9  1  0  0  0  0
  7  8  1  1  0  0  0
  9 40  1  1  0  0  0
 10  6  1  1  0  0  0
 10 11  1  0  0  0  0
 10 18  1  0  0  0  0
 11 13  1  0  0  0  0
 11 12  1  1  0  0  0
 13 15  1  0  0  0  0
 13 14  1  6  0  0  0
 15 17  1  0  0  0  0
 15 16  1  1  0  0  0
 17 19  1  1  0  0  0
 17 18  1  0  0  0  0
 19 20  1  0  0  0  0
 21 29  1  0  0  0  0
 22 23  1  0  0  0  0
 22 31  1  0  0  0  0
 22 38  1  6  0  0  0
 23 25  1  0  0  0  0
 23 24  1  1  0  0  0
 25 27  1  0  0  0  0
 25 26  1  1  0  0  0
 27 30  1  0  0  0  0
 27 28  1  6  0  0  0
 30 21  1  6  0  0  0
 30 31  1  0  0  0  0
 32 34  1  0  0  0  0
 32 41  1  0  0  0  0
 32 33  1  1  0  0  0
 34 35  1  0  0  0  0
 35 37  1  0  0  0  0
 35 36  1  1  0  0  0
 37 39  1  0  0  0  0
 37 38  1  6  0  0  0
 39 41  1  0  0  0  0
 39 40  1  1  0  0  0
 41 42  1  6  0  0  0
M  CHG  6  12   1  20   1  24   1  29   1  33   1  36   1
M  END
>  <CHROM.1>
-169.95091898,168.13358166,-179.43952511,-173.99013888,-175.82801640,-135.42682539
-166.89562025,-54.45051710,63.71765375,-76.19329476,-70.61146398,-169.19308242
67.48783216,-136.26628805,176.78605418,64.66833139,-59.83959301,65.40441787
60.94346496,-86.88840762,125.04042734,70.28370540,4.10025193,2.45492253,2.47063347
1.11512933,0.00529137,1.88916973

>  <Name>
1NEM.B

>  <RI>
0

>  <Rbt.Current_Directory>
/home/itssahil/PROJECTS/Mol_Feturizer/New_Systems/rnas/1nem

>  <Rbt.Executable>
rbdock ($Id: //depot/dev/client3/rdock/2013.1/src/exe/rbdock.cxx#4 $)

>  <Rbt.Library>
libRbt.so (2013.1, Build901 2013/11/27)

>  <Rbt.Parameter_File>
/export/apps/rDock/src/rDock_2013.1_src/data/scripts/dock_solv.prm

>  <Rbt.Receptor>
prm/pocket_docking_7.prm

>  <SCORE>
-35.1908

>  <SCORE.INTER>
-35.9769

>  <SCORE.INTER.CONST>
1

>  <SCORE.INTER.POLAR>
-6.47762

>  <SCORE.INTER.ROT>
9

>  <SCORE.INTER.SOLV>
14.4587

>  <SCORE.INTER.VDW>
-16.8121

>  <SCORE.INTER.norm>
-0.856593

>  <SCORE.INTRA>
0.786141

>  <SCORE.INTRA.DIHEDRAL>
4.75689

>  <SCORE.INTRA.DIHEDRAL.0>
22.4324

>  <SCORE.INTRA.POLAR>
-1.07885

>  <SCORE.INTRA.POLAR.0>
-1.83749

>  <SCORE.INTRA.REPUL>
0

>  <SCORE.INTRA.REPUL.0>
0

>  <SCORE.INTRA.SOLV>
3.05327

>  <SCORE.INTRA.SOLV.lig_0>
-160.638

>  <SCORE.INTRA.VDW>
0.549137

>  <SCORE.INTRA.VDW.0>
-7.61953

>  <SCORE.INTRA.norm>
0.0187176

>  <SCORE.RESTR>
0

>  <SCORE.RESTR.CAVITY>
0

>  <SCORE.RESTR.norm>
0

>  <SCORE.SYSTEM>
0

>  <SCORE.SYSTEM.CONST>
0

>  <SCORE.SYSTEM.DIHEDRAL>
0

>  <SCORE.SYSTEM.SOLV>
0

>  <SCORE.SYSTEM.norm>
0

>  <SCORE.heavy>
42

>  <SCORE.norm>
-0.837876

>  <RMSD>
7.492

$$$$
1NEM.B
 OpenBabel11021811403D
libRbt.so/2013.1/901 2013/11/27
 42 45  0  0  0  0  0  0  0  0999 V2000
   -4.5296    1.9234    0.2063 O   0  0  0  0  0  0  0  0  0  0  0  0
   -4.2087    0.9926   -0.8294 C   0  0  0  0  0  0  0  0  0  0  0  0
   -2.7095    0.7219   -0.9472 C   0  0  1  0  0  0  0  0  0  0  0  0
   -2.0029    1.9226   -1.2449 O   0  0  0  0  0  0  0  0  0  0  0  0
   -2.0491    0.2404    0.3348 C   0  0  1  0  0  0  0  0  0  0  0  0
   -2.4765   -1.1061    0.5530 O   0  0  0  0  0  0  0  0  0  0  0  0
   -0.5968    0.4337   -0.0594 C   0  0  1  0  0  0  0  0  0  0  0  0
   -0.1779   -0.5046   -1.0560 O   0  0  0  0  0  0  0  0  0  0  0  0
   -0.7004    1.8379   -0.6662 C   0  0  2  0  0  0  0  0  0  0  0  0
   -1.8991   -1.7697    1.6409 C   0  0  2  0  0  0  0  0  0  0  0  0
   -1.0573   -2.9458    1.1276 C   0  0  2  0  0  0  0  0  0  0  0  0
   -1.8773   -3.8106    0.2386 N   0  3  0  0  0  0  0  0  0  0  0  0
   -0.4595   -3.7388    2.2943 C   0  0  1  0  0  0  0  0  0  0  0  0
    0.5549   -2.9685    2.9253 O   0  0  0  0  0  0  0  0  0  0  0  0
   -1.5355   -4.1098    3.3194 C   0  0  2  0  0  0  0  0  0  0  0  0
   -2.4344   -5.0641    2.7687 O   0  0  0  0  0  0  0  0  0  0  0  0
   -2.2990   -2.8567    3.7385 C   0  0  1  0  0  0  0  0  0  0  0  0
   -2.8686   -2.2240    2.5761 O   0  0  0  0  0  0  0  0  0  0  0  0
   -3.4252   -3.1405    4.7168 C   0  0  0  0  0  0  0  0  0  0  0  0
   -4.3216   -1.9745    4.8807 N   0  3  0  0  0  0  0  0  0  0  0  0
    4.6448    0.6541   -0.2632 C   0  0  0  0  0  0  0  0  0  0  0  0
    1.8561    2.3070    1.5307 C   0  0  2  0  0  0  0  0  0  0  0  0
    2.3068    2.1524    2.9812 C   0  0  2  0  0  0  0  0  0  0  0  0
    1.5982    3.1264    3.8453 N   0  3  0  0  0  0  0  0  0  0  0  0
    3.8085    2.3798    3.0912 C   0  0  1  0  0  0  0  0  0  0  0  0
    4.2270    2.1572    4.4290 O   0  0  0  0  0  0  0  0  0  0  0  0
    4.5399    1.4284    2.1467 C   0  0  2  0  0  0  0  0  0  0  0  0
    5.9382    1.6817    2.1921 O   0  0  0  0  0  0  0  0  0  0  0  0
    4.2675    0.9777   -1.6581 N   0  3  0  0  0  0  0  0  0  0  0  0
    4.0260    1.6299    0.7225 C   0  0  2  0  0  0  0  0  0  0  0  0
    2.5974    1.4377    0.6788 O   0  0  0  0  0  0  0  0  0  0  0  0
   -0.0267    5.7952   -1.9319 C   0  0  2  0  0  0  0  0  0  0  0  0
   -0.5827    6.1403   -3.2604 N   0  3  0  0  0  0  0  0  0  0  0  0
    1.4831    5.6086   -2.0313 C   0  0  0  0  0  0  0  0  0  0  0  0
    2.0684    5.2509   -0.6724 C   0  0  2  0  0  0  0  0  0  0  0  0
    3.5063    5.0887   -0.8349 N   0  3  0  0  0  0  0  0  0  0  0  0
    1.4300    3.9634   -0.1567 C   0  0  1  0  0  0  0  0  0  0  0  0
    1.9686    3.6472    1.1419 O   0  0  0  0  0  0  0  0  0  0  0  0
   -0.0941    4.1145   -0.0541 C   0  0  2  0  0  0  0  0  0  0  0  0
   -0.6734    2.8541    0.3337 O   0  0  0  0  0  0  0  0  0  0  0  0
   -0.7044    4.5387   -1.3876 C   0  0  1  0  0  0  0  0  0  0  0  0
   -2.0935    4.7865   -1.2161 O   0  0  0  0  0  0  0  0  0  0  0  0
  1  2  1  0  0  0  0
  3  2  1  1  0  0  0
  3  5  1  0  0  0  0
  3  4  1  0  0  0  0
  4  9  1  0  0  0  0
  5  7  1  0  0  0  0
  5  6  1  6  0  0  0
  7  9  1  0  0  0  0
  7  8  1  6  0  0  0
  9 40  1  1  0  0  0
 10  6  1  6  0  0  0
 10 11  1  0  0  0  0
 10 18  1  0  0  0  0
 11 13  1  0  0  0  0
 11 12  1  1  0  0  0
 13 15  1  0  0  0  0
 13 14  1  1  0  0  0
 15 17  1  0  0  0  0
 15 16  1  6  0  0  0
 17 19  1  1  0  0  0
 17 18  1  0  0  0  0
 19 20  1  0  0  0  0
 21 29  1  0  0  0  0
 22 23  1  0  0  0  0
 22 31  1  0  0  0  0
 22 38  1  6  0  0  0
 23 25  1  0  0  0  0
 23 24  1  1  0  0  0
 25 27  1  0  0  0  0
 25 26  1  1  0  0  0
 27 30  1  0  0  0  0
 27 28  1  6  0  0  0
 30 21  1  6  0  0  0
 30 31  1  0  0  0  0
 32 34  1  0  0  0  0
 32 41  1  0  0  0  0
 32 33  1  6  0  0  0
 34 35  1  0  0  0  0
 35 37  1  0  0  0  0
 35 36  1  6  0  0  0
 37 39  1  0  0  0  0
 37 38  1  1  0  0  0
 39 41  1  0  0  0  0
 39 40  1  6  0  0  0
 41 42  1  1  0  0  0
M  CHG  6  12   1  20   1  24   1  29   1  33   1  36   1
M  END
>  <CHROM.1>
68.97958610,-60.44503238,175.50928930,-115.23906690,-50.82682631,-96.04625402
-179.66833194,58.93593081,156.60578161,-167.79256098,40.83755606,-172.69224233
68.46311313,-173.09575369,166.90872119,-59.71873271,-55.21112326,56.25811433
-172.78090705,-158.39047756,-73.18423771,69.94219482,0.10804317,1.03186964
0.86463703,2.14591252,0.29871990,2.56265086

>  <Name>
1NEM.B

>  <RI>
0

>  <Rbt.Current_Directory>
/home/itssahil/PROJECTS/Mol_Feturizer/New_Systems/rnas/1nem

>  <Rbt.Executable>
rbdock ($Id: //depot/dev/client3/rdock/2013.1/src/exe/rbdock.cxx#4 $)

>  <Rbt.Library>
libRbt.so (2013.1, Build901 2013/11/27)

>  <Rbt.Parameter_File>
/export/apps/rDock/src/rDock_2013.1_src/data/scripts/dock_solv.prm

>  <Rbt.Receptor>
prm/pocket_docking_4.prm

>  <SCORE>
-36.5521

>  <SCORE.INTER>
-42.5795

>  <SCORE.INTER.CONST>
1

>  <SCORE.INTER.POLAR>
-6.2889

>  <SCORE.INTER.ROT>
9

>  <SCORE.INTER.SOLV>
35.6029

>  <SCORE.INTER.VDW>
-28.891

>  <SCORE.INTER.norm>
-1.0138

>  <SCORE.INTRA>
3.07703

>  <SCORE.INTRA.DIHEDRAL>
-0.571534

>  <SCORE.INTRA.DIHEDRAL.0>
22.4324

>  <SCORE.INTRA.POLAR>
1.29467

>  <SCORE.INTRA.POLAR.0>
-1.83749

>  <SCORE.INTRA.REPUL>
0

>  <SCORE.INTRA.REPUL.0>
0

>  <SCORE.INTRA.SOLV>
-6.2061

>  <SCORE.INTRA.SOLV.lig_0>
-160.638

>  <SCORE.INTRA.VDW>
2.06398

>  <SCORE.INTRA.VDW.0>
-7.61953

>  <SCORE.INTRA.norm>
0.0732627

>  <SCORE.RESTR>
2.95042

>  <SCORE.RESTR.CAVITY>
2.95042

>  <SCORE.RESTR.norm>
0.0702481

>  <SCORE.SYSTEM>
0

>  <SCORE.SYSTEM.CONST>
0

>  <SCORE.SYSTEM.DIHEDRAL>
0

>  <SCORE.SYSTEM.SOLV>
0

>  <SCORE.SYSTEM.norm>
0

>  <SCORE.heavy>
42

>  <SCORE.norm>
-0.870288

>  <RMSD>
7.512

$$$$
1NEM.B
 OpenBabel11021811403D
libRbt.so/2013.1/901 2013/11/27
 42 45  0  0  0  0  0  0  0  0999 V2000
    2.2738    2.6974    2.9122 O   0  0  0  0  0  0  0  0  0  0  0  0
    1.5310    3.4929    1.9862 C   0  0  0  0  0  0  0  0  0  0  0  0
    2.1492    3.5186    0.5891 C   0  0  1  0  0  0  0  0  0  0  0  0
    1.2550    4.1143   -0.3463 O   0  0  0  0  0  0  0  0  0  0  0  0
    3.4003    4.3735    0.4646 C   0  0  1  0  0  0  0  0  0  0  0  0
    4.4561    3.6814    1.1352 O   0  0  0  0  0  0  0  0  0  0  0  0
    3.4907    4.4427   -1.0483 C   0  0  1  0  0  0  0  0  0  0  0  0
    3.8540    3.1843   -1.6261 O   0  0  0  0  0  0  0  0  0  0  0  0
    2.0240    4.7630   -1.3594 C   0  0  2  0  0  0  0  0  0  0  0  0
    5.7204    4.2777    1.0783 C   0  0  2  0  0  0  0  0  0  0  0  0
    6.7568    3.2272    0.6568 C   0  0  2  0  0  0  0  0  0  0  0  0
    6.6714    2.0399    1.5475 N   0  3  0  0  0  0  0  0  0  0  0  0
    8.1670    3.8261    0.6457 C   0  0  1  0  0  0  0  0  0  0  0  0
    8.2896    4.7393   -0.4367 O   0  0  0  0  0  0  0  0  0  0  0  0
    8.4721    4.5464    1.9627 C   0  0  2  0  0  0  0  0  0  0  0  0
    8.5789    3.6080    3.0257 O   0  0  0  0  0  0  0  0  0  0  0  0
    7.3655    5.5527    2.2657 C   0  0  1  0  0  0  0  0  0  0  0  0
    6.0941    4.8764    2.3124 O   0  0  0  0  0  0  0  0  0  0  0  0
    7.5596    6.2772    3.5861 C   0  0  0  0  0  0  0  0  0  0  0  0
    7.6455    5.3363    4.7250 N   0  3  0  0  0  0  0  0  0  0  0  0
   -0.1977    2.6683   -6.8362 C   0  0  0  0  0  0  0  0  0  0  0  0
   -1.0432    4.1756   -3.5589 C   0  0  2  0  0  0  0  0  0  0  0  0
   -1.1821    2.9287   -2.6888 C   0  0  2  0  0  0  0  0  0  0  0  0
   -1.0618    3.2872   -1.2555 N   0  3  0  0  0  0  0  0  0  0  0  0
   -0.1032    1.9157   -3.0476 C   0  0  1  0  0  0  0  0  0  0  0  0
   -0.2901    0.7318   -2.2874 O   0  0  0  0  0  0  0  0  0  0  0  0
   -0.1756    1.5989   -4.5397 C   0  0  2  0  0  0  0  0  0  0  0  0
    0.8723    0.7065   -4.8962 O   0  0  0  0  0  0  0  0  0  0  0  0
    0.8917    3.3215   -7.5974 N   0  3  0  0  0  0  0  0  0  0  0  0
   -0.0457    2.8923   -5.3417 C   0  0  2  0  0  0  0  0  0  0  0  0
   -1.0665    3.8289   -4.9411 O   0  0  0  0  0  0  0  0  0  0  0  0
    0.5290    9.0959   -3.2260 C   0  0  2  0  0  0  0  0  0  0  0  0
    0.3460   10.5185   -2.8572 N   0  3  0  0  0  0  0  0  0  0  0  0
   -0.8075    8.4878   -3.6361 C   0  0  0  0  0  0  0  0  0  0  0  0
   -0.6349    7.0239   -4.0160 C   0  0  2  0  0  0  0  0  0  0  0  0
   -1.9410    6.5051   -4.3973 N   0  3  0  0  0  0  0  0  0  0  0  0
   -0.0643    6.2460   -2.8325 C   0  0  1  0  0  0  0  0  0  0  0  0
    0.1224    4.8677   -3.2092 O   0  0  0  0  0  0  0  0  0  0  0  0
    1.2793    6.8400   -2.3875 C   0  0  2  0  0  0  0  0  0  0  0  0
    1.7379    6.1517   -1.2082 O   0  0  0  0  0  0  0  0  0  0  0  0
    1.1528    8.3263   -2.0629 C   0  0  1  0  0  0  0  0  0  0  0  0
    2.4387    8.8606   -1.7772 O   0  0  0  0  0  0  0  0  0  0  0  0
  1  2  1  0  0  0  0
  3  2  1  1  0  0  0
  3  5  1  0  0  0  0
  3  4  1  0  0  0  0
  4  9  1  0  0  0  0
  5  7  1  0  0  0  0
  5  6  1  6  0  0  0
  7  9  1  0  0  0  0
  7  8  1  6  0  0  0
  9 40  1  1  0  0  0
 10  6  1  1  0  0  0
 10 11  1  0  0  0  0
 10 18  1  0  0  0  0
 11 13  1  0  0  0  0
 11 12  1  1  0  0  0
 13 15  1  0  0  0  0
 13 14  1  6  0  0  0
 15 17  1  0  0  0  0
 15 16  1  1  0  0  0
 17 19  1  1  0  0  0
 17 18  1  0  0  0  0
 19 20  1  0  0  0  0
 21 29  1  0  0  0  0
 22 23  1  0  0  0  0
 22 31  1  0  0  0  0
 22 38  1  1  0  0  0
 23 25  1  0  0  0  0
 23 24  1  1  0  0  0
 25 27  1  0  0  0  0
 25 26  1  1  0  0  0
 27 30  1  0  0  0  0
 27 28  1  6  0  0  0
 30 21  1  6  0  0  0
 30 31  1  0  0  0  0
 32 34  1  0  0  0  0
 32 41  1  0  0  0  0
 32 33  1  1  0  0  0
 34 35  1  0  0  0  0
 35 37  1  0  0  0  0
 35 36  1  1  0  0  0
 37 39  1  0  0  0  0
 37 38  1  6  0  0  0
 39 41  1  0  0  0  0
 39 40  1  1  0  0  0
 41 42  1  6  0  0  0
M  CHG  6  12   1  20   1  24   1  29   1  33   1  36   1
M  END
>  <CHROM.1>
-177.87976871,169.42256303,176.96620060,-131.00106884,68.88114092,-126.22663033
168.36859594,-55.90132003,72.24668472,-57.68242838,42.81242831,-131.14037777
146.87823851,-124.00924365,-179.91058449,70.71402288,69.41348294,110.01459724
-79.95675832,-62.25333789,63.42909856,56.57385473,2.55302226,4.58043500,-1.27440245
-0.03782584,0.71874415,-3.03592335

>  <Name>
1NEM.B

>  <RI>
0

>  <Rbt.Current_Directory>
/home/itssahil/PROJECTS/Mol_Feturizer/New_Systems/rnas/1nem

>  <Rbt.Executable>
rbdock ($Id: //depot/dev/client3/rdock/2013.1/src/exe/rbdock.cxx#4 $)

>  <Rbt.Library>
libRbt.so (2013.1, Build901 2013/11/27)

>  <Rbt.Parameter_File>
/export/apps/rDock/src/rDock_2013.1_src/data/scripts/dock_solv.prm

>  <Rbt.Receptor>
prm/pocket_docking_8.prm

>  <SCORE>
-24.6052

>  <SCORE.INTER>
-33.5381

>  <SCORE.INTER.CONST>
1

>  <SCORE.INTER.POLAR>
-4.92253

>  <SCORE.INTER.ROT>
9

>  <SCORE.INTER.SOLV>
20.8621

>  <SCORE.INTER.VDW>
-22.5043

>  <SCORE.INTER.norm>
-0.798527

>  <SCORE.INTRA>
8.20018

>  <SCORE.INTRA.DIHEDRAL>
13.9063

>  <SCORE.INTRA.DIHEDRAL.0>
22.4324

>  <SCORE.INTRA.POLAR>
-1.81394

>  <SCORE.INTRA.POLAR.0>
-1.83749

>  <SCORE.INTRA.REPUL>
0

>  <SCORE.INTRA.REPUL.0>
0

>  <SCORE.INTRA.SOLV>
0.293816

>  <SCORE.INTRA.SOLV.lig_0>
-160.638

>  <SCORE.INTRA.VDW>
7.26753

>  <SCORE.INTRA.VDW.0>
-7.61953

>  <SCORE.INTRA.norm>
0.195242

>  <SCORE.RESTR>
0.732783

>  <SCORE.RESTR.CAVITY>
0.732783

>  <SCORE.RESTR.norm>
0.0174472

>  <SCORE.SYSTEM>
0

>  <SCORE.SYSTEM.CONST>
0

>  <SCORE.SYSTEM.DIHEDRAL>
0

>  <SCORE.SYSTEM.SOLV>
0

>  <SCORE.SYSTEM.norm>
0

>  <SCORE.heavy>
42

>  <SCORE.norm>
-0.585838

>  <RMSD>
7.516

$$$$
1NEM.B
 OpenBabel11021811403D
libRbt.so/2013.1/901 2013/11/27
 42 45  0  0  0  0  0  0  0  0999 V2000
    4.0609    3.4781    7.6341 O   0  0  0  0  0  0  0  0  0  0  0  0
    3.0477    3.0364    6.7284 C   0  0  0  0  0  0  0  0  0  0  0  0
    3.3132    1.6398    6.1683 C   0  0  1  0  0  0  0  0  0  0  0  0
    2.2714    1.2472    5.2795 O   0  0  0  0  0  0  0  0  0  0  0  0
    4.5622    1.5280    5.3086 C   0  0  1  0  0  0  0  0  0  0  0  0
    5.6892    1.6073    6.1844 O   0  0  0  0  0  0  0  0  0  0  0  0
    4.2928    0.1767    4.6736 C   0  0  1  0  0  0  0  0  0  0  0  0
    4.4055   -0.8952    5.6156 O   0  0  0  0  0  0  0  0  0  0  0  0
    2.8246    0.3857    4.2844 C   0  0  2  0  0  0  0  0  0  0  0  0
    6.9292    1.2752    5.6282 C   0  0  2  0  0  0  0  0  0  0  0  0
    7.1375   -0.2422    5.7258 C   0  0  2  0  0  0  0  0  0  0  0  0
    6.9470   -0.6942    7.1292 N   0  3  0  0  0  0  0  0  0  0  0  0
    8.5150   -0.6394    5.1852 C   0  0  1  0  0  0  0  0  0  0  0  0
    8.5382   -0.4793    3.7729 O   0  0  0  0  0  0  0  0  0  0  0  0
    9.6226    0.2094    5.8168 C   0  0  2  0  0  0  0  0  0  0  0  0
    9.7643   -0.1099    7.1952 O   0  0  0  0  0  0  0  0  0  0  0  0
    9.2890    1.6900    5.6569 C   0  0  1  0  0  0  0  0  0  0  0  0
    8.0053    1.9651    6.2504 O   0  0  0  0  0  0  0  0  0  0  0  0
   10.3110    2.6077    6.3044 C   0  0  0  0  0  0  0  0  0  0  0  0
    9.9885    4.0353    6.0856 N   0  3  0  0  0  0  0  0  0  0  0  0
    5.0192    4.1700   -0.2534 C   0  0  0  0  0  0  0  0  0  0  0  0
    1.9329    3.4713    1.6737 C   0  0  2  0  0  0  0  0  0  0  0  0
    1.1705    4.7818    1.4932 C   0  0  2  0  0  0  0  0  0  0  0  0
   -0.2703    4.5806    1.7779 N   0  3  0  0  0  0  0  0  0  0  0  0
    1.3364    5.2934    0.0685 C   0  0  1  0  0  0  0  0  0  0  0  0
    0.6887    6.5493   -0.0647 O   0  0  0  0  0  0  0  0  0  0  0  0
    2.8224    5.4318   -0.2550 C   0  0  2  0  0  0  0  0  0  0  0  0
    2.9872    5.8429   -1.6060 O   0  0  0  0  0  0  0  0  0  0  0  0
    5.3783    3.9192   -1.6680 N   0  3  0  0  0  0  0  0  0  0  0  0
    3.5182    4.0896   -0.0366 C   0  0  2  0  0  0  0  0  0  0  0  0
    3.3025    3.6332    1.3143 O   0  0  0  0  0  0  0  0  0  0  0  0
    2.3231   -1.6455    0.5101 C   0  0  2  0  0  0  0  0  0  0  0  0
    3.1222   -2.8705    0.2773 N   0  3  0  0  0  0  0  0  0  0  0  0
    2.3741   -0.7482   -0.7213 C   0  0  0  0  0  0  0  0  0  0  0  0
    1.5583    0.5169   -0.4953 C   0  0  2  0  0  0  0  0  0  0  0  0
    1.6463    1.3260   -1.7027 N   0  3  0  0  0  0  0  0  0  0  0  0
    2.1056    1.2770    0.7106 C   0  0  1  0  0  0  0  0  0  0  0  0
    1.3109    2.4578    0.9348 O   0  0  0  0  0  0  0  0  0  0  0  0
    2.0775    0.3966    1.9677 C   0  0  2  0  0  0  0  0  0  0  0  0
    2.6948    1.1045    3.0597 O   0  0  0  0  0  0  0  0  0  0  0  0
    2.8324   -0.9123    1.7500 C   0  0  1  0  0  0  0  0  0  0  0  0
    2.6756   -1.7458    2.8907 O   0  0  0  0  0  0  0  0  0  0  0  0
  1  2  1  0  0  0  0
  3  2  1  6  0  0  0
  3  5  1  0  0  0  0
  3  4  1  0  0  0  0
  4  9  1  0  0  0  0
  5  7  1  0  0  0  0
  5  6  1  1  0  0  0
  7  9  1  0  0  0  0
  7  8  1  1  0  0  0
  9 40  1  6  0  0  0
 10  6  1  1  0  0  0
 10 11  1  0  0  0  0
 10 18  1  0  0  0  0
 11 13  1  0  0  0  0
 11 12  1  1  0  0  0
 13 15  1  0  0  0  0
 13 14  1  6  0  0  0
 15 17  1  0  0  0  0
 15 16  1  1  0  0  0
 17 19  1  1  0  0  0
 17 18  1  0  0  0  0
 19 20  1  0  0  0  0
 21 29  1  0  0  0  0
 22 23  1  0  0  0  0
 22 31  1  0  0  0  0
 22 38  1  6  0  0  0
 23 25  1  0  0  0  0
 23 24  1  6  0  0  0
 25 27  1  0  0  0  0
 25 26  1  1  0  0  0
 27 30  1  0  0  0  0
 27 28  1  6  0  0  0
 30 21  1  1  0  0  0
 30 31  1  0  0  0  0
 32 34  1  0  0  0  0
 32 41  1  0  0  0  0
 32 33  1  6  0  0  0
 34 35  1  0  0  0  0
 35 37  1  0  0  0  0
 35 36  1  6  0  0  0
 37 39  1  0  0  0  0
 37 38  1  1  0  0  0
 39 41  1  0  0  0  0
 39 40  1  1  0  0  0
 41 42  1  1  0  0  0
M  CHG  6  12   1  20   1  24   1  29   1  33   1  36   1
M  END
>  <CHROM.1>
-71.43460202,179.67398819,168.41515493,-86.29872374,-177.88362495,-128.92783603
38.58108358,177.13098884,170.64895923,177.71439820,-56.14814569,-88.79840399
-60.35267506,163.61790592,88.23625952,-153.11939161,161.35477897,6.29437788
175.35434585,-158.71864275,-176.15261572,-61.44530342,4.35258522,1.74470016
3.05816493,-0.42957580,-0.74123652,-0.23759428

>  <Name>
1NEM.B

>  <RI>
0

>  <Rbt.Current_Directory>
/home/itssahil/PROJECTS/Mol_Feturizer/New_Systems/rnas/1nem

>  <Rbt.Executable>
rbdock ($Id: //depot/dev/client3/rdock/2013.1/src/exe/rbdock.cxx#4 $)

>  <Rbt.Library>
libRbt.so (2013.1, Build901 2013/11/27)

>  <Rbt.Parameter_File>
/export/apps/rDock/src/rDock_2013.1_src/data/scripts/dock_solv.prm

>  <Rbt.Receptor>
prm/pocket_docking_6.prm

>  <SCORE>
-17.1974

>  <SCORE.INTER>
-26.0546

>  <SCORE.INTER.CONST>
1

>  <SCORE.INTER.POLAR>
-5.05124

>  <SCORE.INTER.ROT>
9

>  <SCORE.INTER.SOLV>
27.7641

>  <SCORE.INTER.VDW>
-19.387

>  <SCORE.INTER.norm>
-0.620349

>  <SCORE.INTRA>
8.85726

>  <SCORE.INTRA.DIHEDRAL>
6.39905

>  <SCORE.INTRA.DIHEDRAL.0>
22.4324

>  <SCORE.INTRA.POLAR>
0.755215

>  <SCORE.INTRA.POLAR.0>
-1.83749

>  <SCORE.INTRA.REPUL>
0

>  <SCORE.INTRA.REPUL.0>
0

>  <SCORE.INTRA.SOLV>
-4.89194

>  <SCORE.INTRA.SOLV.lig_0>
-160.638

>  <SCORE.INTRA.VDW>
5.53597

>  <SCORE.INTRA.VDW.0>
-7.61953

>  <SCORE.INTRA.norm>
0.210887

>  <SCORE.RESTR>
0

>  <SCORE.RESTR.CAVITY>
0

>  <SCORE.RESTR.norm>
0

>  <SCORE.SYSTEM>
0

>  <SCORE.SYSTEM.CONST>
0

>  <SCORE.SYSTEM.DIHEDRAL>
0

>  <SCORE.SYSTEM.SOLV>
0

>  <SCORE.SYSTEM.norm>
0

>  <SCORE.heavy>
42

>  <SCORE.norm>
-0.409462

>  <RMSD>
7.521

$$$$
1NEM.B
 OpenBabel11021811403D
libRbt.so/2013.1/901 2013/11/27
 42 45  0  0  0  0  0  0  0  0999 V2000
   -4.6691    2.9127    0.2766 O   0  0  0  0  0  0  0  0  0  0  0  0
   -4.3017    1.8408    1.1473 C   0  0  0  0  0  0  0  0  0  0  0  0
   -3.6344    0.6773    0.4153 C   0  0  1  0  0  0  0  0  0  0  0  0
   -2.6825    1.1567   -0.5300 O   0  0  0  0  0  0  0  0  0  0  0  0
   -2.8089   -0.2407    1.3027 C   0  0  1  0  0  0  0  0  0  0  0  0
   -3.7240   -1.0031    2.0930 O   0  0  0  0  0  0  0  0  0  0  0  0
   -2.0536   -0.9958    0.2252 C   0  0  1  0  0  0  0  0  0  0  0  0
   -2.9048   -1.8777   -0.5143 O   0  0  0  0  0  0  0  0  0  0  0  0
   -1.6364    0.1923   -0.6495 C   0  0  2  0  0  0  0  0  0  0  0  0
   -3.1613   -1.9833    2.9174 C   0  0  2  0  0  0  0  0  0  0  0  0
   -2.8795   -3.2426    2.0866 C   0  0  2  0  0  0  0  0  0  0  0  0
   -4.1110   -3.6677    1.3705 N   0  3  0  0  0  0  0  0  0  0  0  0
   -2.3218   -4.3644    2.9687 C   0  0  1  0  0  0  0  0  0  0  0  0
   -0.9996   -4.0389    3.3764 O   0  0  0  0  0  0  0  0  0  0  0  0
   -3.2006   -4.5853    4.2037 C   0  0  2  0  0  0  0  0  0  0  0  0
   -4.4576   -5.1313    3.8242 O   0  0  0  0  0  0  0  0  0  0  0  0
   -3.4070   -3.2595    4.9306 C   0  0  1  0  0  0  0  0  0  0  0  0
   -3.9891   -2.2975    4.0297 O   0  0  0  0  0  0  0  0  0  0  0  0
   -4.3146   -3.3756    6.1426 C   0  0  0  0  0  0  0  0  0  0  0  0
   -4.6031   -2.0553    6.7452 N   0  3  0  0  0  0  0  0  0  0  0  0
   -0.2547    4.3464    1.6251 C   0  0  0  0  0  0  0  0  0  0  0  0
    2.7963    2.6487    0.3856 C   0  0  2  0  0  0  0  0  0  0  0  0
    3.6425    2.6007    1.6554 C   0  0  2  0  0  0  0  0  0  0  0  0
    4.7011    1.5707    1.5280 N   0  3  0  0  0  0  0  0  0  0  0  0
    2.7663    2.2771    2.8581 C   0  0  1  0  0  0  0  0  0  0  0  0
    3.5497    2.3119    4.0411 O   0  0  0  0  0  0  0  0  0  0  0  0
    1.6299    3.2929    2.9505 C   0  0  2  0  0  0  0  0  0  0  0  0
    0.7675    2.9573    4.0299 O   0  0  0  0  0  0  0  0  0  0  0  0
   -0.7391    4.6041    0.2496 N   0  3  0  0  0  0  0  0  0  0  0  0
    0.8410    3.2949    1.6424 C   0  0  2  0  0  0  0  0  0  0  0  0
    1.7204    3.5715    0.5334 O   0  0  0  0  0  0  0  0  0  0  0  0
    0.2675    2.4515   -3.4708 C   0  0  2  0  0  0  0  0  0  0  0  0
   -0.4179    2.3402   -4.7789 N   0  3  0  0  0  0  0  0  0  0  0  0
    1.7022    1.9500   -3.5899 C   0  0  0  0  0  0  0  0  0  0  0  0
    2.4188    2.0565   -2.2510 C   0  0  2  0  0  0  0  0  0  0  0  0
    3.7777    1.5658   -2.4323 N   0  3  0  0  0  0  0  0  0  0  0  0
    1.6778    1.2325   -1.2006 C   0  0  1  0  0  0  0  0  0  0  0  0
    2.3461    1.3613    0.0695 O   0  0  0  0  0  0  0  0  0  0  0  0
    0.2243    1.7063   -1.0629 C   0  0  2  0  0  0  0  0  0  0  0  0
   -0.4734    0.8441   -0.1439 O   0  0  0  0  0  0  0  0  0  0  0  0
   -0.5031    1.6744   -2.4047 C   0  0  1  0  0  0  0  0  0  0  0  0
   -1.8003    2.2359   -2.2546 O   0  0  0  0  0  0  0  0  0  0  0  0
  1  2  1  0  0  0  0
  3  2  1  1  0  0  0
  3  5  1  0  0  0  0
  3  4  1  0  0  0  0
  4  9  1  0  0  0  0
  5  7  1  0  0  0  0
  5  6  1  6  0  0  0
  7  9  1  0  0  0  0
  7  8  1  6  0  0  0
  9 40  1  1  0  0  0
 10  6  1  6  0  0  0
 10 11  1  0  0  0  0
 10 18  1  0  0  0  0
 11 13  1  0  0  0  0
 11 12  1  1  0  0  0
 13 15  1  0  0  0  0
 13 14  1  1  0  0  0
 15 17  1  0  0  0  0
 15 16  1  6  0  0  0
 17 19  1  1  0  0  0
 17 18  1  0  0  0  0
 19 20  1  0  0  0  0
 21 29  1  0  0  0  0
 22 23  1  0  0  0  0
 22 31  1  0  0  0  0
 22 38  1  1  0  0  0
 23 25  1  0  0  0  0
 23 24  1  6  0  0  0
 25 27  1  0  0  0  0
 25 26  1  1  0  0  0
 27 30  1  0  0  0  0
 27 28  1  1  0  0  0
 30 21  1  1  0  0  0
 30 31  1  0  0  0  0
 32 34  1  0  0  0  0
 32 41  1  0  0  0  0
 32 33  1  6  0  0  0
 34 35  1  0  0  0  0
 35 37  1  0  0  0  0
 35 36  1  6  0  0  0
 37 39  1  0  0  0  0
 37 38  1  1  0  0  0
 39 41  1  0  0  0  0
 39 40  1  1  0  0  0
 41 42  1  1  0  0  0
M  CHG  6  12   1  20   1  24   1  29   1  33   1  36   1
M  END
>  <CHROM.1>
-51.72114015,43.60117064,175.67430376,-81.51173972,-175.97435121,-82.65803589
171.62490176,75.24342833,175.53889465,-174.31923420,-56.56067907,163.51271004
-85.27593550,-172.36469295,72.77946423,61.63620010,64.43076362,-74.57540393
-163.92487503,41.21011605,-122.36277378,-57.10637454,-0.85716379,0.42044820
1.06618142,2.36582330,0.56707935,1.97531452

>  <Name>
1NEM.B

>  <RI>
0

>  <Rbt.Current_Directory>
/home/itssahil/PROJECTS/Mol_Feturizer/New_Systems/rnas/1nem

>  <Rbt.Executable>
rbdock ($Id: //depot/dev/client3/rdock/2013.1/src/exe/rbdock.cxx#4 $)

>  <Rbt.Library>
libRbt.so (2013.1, Build901 2013/11/27)

>  <Rbt.Parameter_File>
/export/apps/rDock/src/rDock_2013.1_src/data/scripts/dock_solv.prm

>  <Rbt.Receptor>
prm/pocket_docking_5.prm

>  <SCORE>
-22.2865

>  <SCORE.INTER>
-37.461

>  <SCORE.INTER.CONST>
1

>  <SCORE.INTER.POLAR>
-5.74203

>  <SCORE.INTER.ROT>
9

>  <SCORE.INTER.SOLV>
33.9366

>  <SCORE.INTER.VDW>
-26.7461

>  <SCORE.INTER.norm>
-0.891929

>  <SCORE.INTRA>
15.1745

>  <SCORE.INTRA.DIHEDRAL>
-1.38107

>  <SCORE.INTRA.DIHEDRAL.0>
22.4324

>  <SCORE.INTRA.POLAR>
0.926958

>  <SCORE.INTRA.POLAR.0>
-1.83749

>  <SCORE.INTRA.REPUL>
0

>  <SCORE.INTRA.REPUL.0>
0

>  <SCORE.INTRA.SOLV>
-0.281412

>  <SCORE.INTRA.SOLV.lig_0>
-160.638

>  <SCORE.INTRA.VDW>
12.8541

>  <SCORE.INTRA.VDW.0>
-7.61953

>  <SCORE.INTRA.norm>
0.361298

>  <SCORE.RESTR>
0

>  <SCORE.RESTR.CAVITY>
0

>  <SCORE.RESTR.norm>
0

>  <SCORE.SYSTEM>
0

>  <SCORE.SYSTEM.CONST>
0

>  <SCORE.SYSTEM.DIHEDRAL>
0

>  <SCORE.SYSTEM.SOLV>
0

>  <SCORE.SYSTEM.norm>
0

>  <SCORE.heavy>
42

>  <SCORE.norm>
-0.530632

>  <RMSD>
7.561

$$$$
1NEM.B
 OpenBabel11021811403D
libRbt.so/2013.1/901 2013/11/27
 42 45  0  0  0  0  0  0  0  0999 V2000
    0.1171    3.2910    4.4863 O   0  0  0  0  0  0  0  0  0  0  0  0
   -0.6753    4.1684    3.6836 C   0  0  0  0  0  0  0  0  0  0  0  0
   -0.1572    4.3014    2.2523 C   0  0  1  0  0  0  0  0  0  0  0  0
    1.2612    4.4340    2.2406 O   0  0  0  0  0  0  0  0  0  0  0  0
   -0.3983    3.0836    1.3746 C   0  0  1  0  0  0  0  0  0  0  0  0
   -1.7957    3.0451    1.0762 O   0  0  0  0  0  0  0  0  0  0  0  0
    0.5295    3.4318    0.2258 C   0  0  1  0  0  0  0  0  0  0  0  0
    0.0435    4.5352   -0.5459 O   0  0  0  0  0  0  0  0  0  0  0  0
    1.7611    3.8549    1.0350 C   0  0  2  0  0  0  0  0  0  0  0  0
   -2.3333    1.7847    0.7941 C   0  0  2  0  0  0  0  0  0  0  0  0
   -2.6073    1.6770   -0.7121 C   0  0  2  0  0  0  0  0  0  0  0  0
   -3.4427    2.8216   -1.1620 N   0  3  0  0  0  0  0  0  0  0  0  0
   -3.2583    0.3326   -1.0532 C   0  0  1  0  0  0  0  0  0  0  0  0
   -2.3056   -0.7114   -0.9023 O   0  0  0  0  0  0  0  0  0  0  0  0
   -4.4670    0.0594   -0.1528 C   0  0  2  0  0  0  0  0  0  0  0  0
   -5.5229    0.9623   -0.4558 O   0  0  0  0  0  0  0  0  0  0  0  0
   -4.0604    0.2061    1.3108 C   0  0  1  0  0  0  0  0  0  0  0  0
   -3.5184    1.5222    1.5343 O   0  0  0  0  0  0  0  0  0  0  0  0
   -5.2149    0.0045    2.2764 C   0  0  0  0  0  0  0  0  0  0  0  0
   -4.9909   -1.1526    3.1713 N   0  3  0  0  0  0  0  0  0  0  0  0
    5.2453    0.0456    2.9176 C   0  0  0  0  0  0  0  0  0  0  0  0
    2.7869   -0.9289    0.3226 C   0  0  2  0  0  0  0  0  0  0  0  0
    2.0082   -2.0218    1.0508 C   0  0  2  0  0  0  0  0  0  0  0  0
    0.6960   -2.2397    0.3966 N   0  3  0  0  0  0  0  0  0  0  0  0
    1.7875   -1.6285    2.5053 C   0  0  1  0  0  0  0  0  0  0  0  0
    1.1317   -2.6848    3.1899 O   0  0  0  0  0  0  0  0  0  0  0  0
    3.1326   -1.3307    3.1639 C   0  0  2  0  0  0  0  0  0  0  0  0
    2.9302   -0.8958    4.5024 O   0  0  0  0  0  0  0  0  0  0  0  0
    5.6297   -0.9246    3.9683 N   0  3  0  0  0  0  0  0  0  0  0  0
    3.8572   -0.2432    2.3731 C   0  0  2  0  0  0  0  0  0  0  0  0
    4.0103   -0.6489    0.9977 O   0  0  0  0  0  0  0  0  0  0  0  0
    4.9889    2.7604   -1.4018 C   0  0  2  0  0  0  0  0  0  0  0  0
    5.6292    3.8842   -2.1232 N   0  3  0  0  0  0  0  0  0  0  0  0
    4.1420    1.9374   -2.3659 C   0  0  0  0  0  0  0  0  0  0  0  0
    3.4754    0.7791   -1.6370 C   0  0  2  0  0  0  0  0  0  0  0  0
    2.6866    0.0354   -2.6091 N   0  3  0  0  0  0  0  0  0  0  0  0
    2.5910    1.3149   -0.5136 C   0  0  1  0  0  0  0  0  0  0  0  0
    1.9862    0.2117    0.1888 O   0  0  0  0  0  0  0  0  0  0  0  0
    3.4128    2.1581    0.4712 C   0  0  2  0  0  0  0  0  0  0  0  0
    2.5333    2.7328    1.4566 O   0  0  0  0  0  0  0  0  0  0  0  0
    4.1483    3.2903   -0.2413 C   0  0  1  0  0  0  0  0  0  0  0  0
    4.9904    3.9652    0.6839 O   0  0  0  0  0  0  0  0  0  0  0  0
  1  2  1  0  0  0  0
  3  2  1  1  0  0  0
  3  5  1  0  0  0  0
  3  4  1  0  0  0  0
  4  9  1  0  0  0  0
  5  7  1  0  0  0  0
  5  6  1  6  0  0  0
  7  9  1  0  0  0  0
  7  8  1  1  0  0  0
  9 40  1  1  0  0  0
 10  6  1  6  0  0  0
 10 11  1  0  0  0  0
 10 18  1  0  0  0  0
 11 13  1  0  0  0  0
 11 12  1  1  0  0  0
 13 15  1  0  0  0  0
 13 14  1  1  0  0  0
 15 17  1  0  0  0  0
 15 16  1  6  0  0  0
 17 19  1  1  0  0  0
 17 18  1  0  0  0  0
 19 20  1  0  0  0  0
 21 29  1  0  0  0  0
 22 23  1  0  0  0  0
 22 31  1  0  0  0  0
 22 38  1  1  0  0  0
 23 25  1  0  0  0  0
 23 24  1  6  0  0  0
 25 27  1  0  0  0  0
 25 26  1  1  0  0  0
 27 30  1  0  0  0  0
 27 28  1  1  0  0  0
 30 21  1  1  0  0  0
 30 31  1  0  0  0  0
 32 34  1  0  0  0  0
 32 41  1  0  0  0  0
 32 33  1  6  0  0  0
 34 35  1  0  0  0  0
 35 37  1  0  0  0  0
 35 36  1  6  0  0  0
 37 39  1  0  0  0  0
 37 38  1  1  0  0  0
 39 41  1  0  0  0  0
 39 40  1  1  0  0  0
 41 42  1  1  0  0  0
M  CHG  6  12   1  20   1  24   1  29   1  33   1  36   1
M  END
>  <CHROM.1>
-173.33225200,-43.08336937,-153.67031378,-106.15238340,-72.98846158,-165.49428248
-86.85336346,-61.77512687,152.33229843,117.82336621,-66.20544696,7.72442164
-179.69000471,-178.54398969,168.24637484,-73.75899817,-40.16873165,-172.34045051
-44.95636677,35.81008792,-76.75633360,67.16999082,0.75723275,1.20877390,0.91775064
-3.09282838,-0.01025212,-0.54573965

>  <Name>
1NEM.B

>  <RI>
0

>  <Rbt.Current_Directory>
/home/itssahil/PROJECTS/Mol_Feturizer/New_Systems/rnas/1nem

>  <Rbt.Executable>
rbdock ($Id: //depot/dev/client3/rdock/2013.1/src/exe/rbdock.cxx#4 $)

>  <Rbt.Library>
libRbt.so (2013.1, Build901 2013/11/27)

>  <Rbt.Parameter_File>
/export/apps/rDock/src/rDock_2013.1_src/data/scripts/dock_solv.prm

>  <Rbt.Receptor>
prm/pocket_docking_4.prm

>  <SCORE>
-26.5465

>  <SCORE.INTER>
-40.4478

>  <SCORE.INTER.CONST>
1

>  <SCORE.INTER.POLAR>
-5.83155

>  <SCORE.INTER.ROT>
9

>  <SCORE.INTER.SOLV>
40.3386

>  <SCORE.INTER.VDW>
-30.5729

>  <SCORE.INTER.norm>
-0.963044

>  <SCORE.INTRA>
12.0556

>  <SCORE.INTRA.DIHEDRAL>
13.1401

>  <SCORE.INTRA.DIHEDRAL.0>
22.4324

>  <SCORE.INTRA.POLAR>
0.274129

>  <SCORE.INTRA.POLAR.0>
-1.83749

>  <SCORE.INTRA.REPUL>
0.108194

>  <SCORE.INTRA.REPUL.0>
0

>  <SCORE.INTRA.SOLV>
-3.59997

>  <SCORE.INTRA.SOLV.lig_0>
-160.638

>  <SCORE.INTRA.VDW>
5.81248

>  <SCORE.INTRA.VDW.0>
-7.61953

>  <SCORE.INTRA.norm>
0.287038

>  <SCORE.RESTR>
1.84573

>  <SCORE.RESTR.CAVITY>
1.84573

>  <SCORE.RESTR.norm>
0.043946

>  <SCORE.SYSTEM>
0

>  <SCORE.SYSTEM.CONST>
0

>  <SCORE.SYSTEM.DIHEDRAL>
0

>  <SCORE.SYSTEM.SOLV>
0

>  <SCORE.SYSTEM.norm>
0

>  <SCORE.heavy>
42

>  <SCORE.norm>
-0.63206

>  <RMSD>
7.578

$$$$
1NEM.B
 OpenBabel11021811403D
libRbt.so/2013.1/901 2013/11/27
 42 45  0  0  0  0  0  0  0  0999 V2000
   -2.4238   -4.1039    6.9476 O   0  0  0  0  0  0  0  0  0  0  0  0
   -3.6935   -3.7334    6.4066 C   0  0  0  0  0  0  0  0  0  0  0  0
   -4.2029   -4.7134    5.3507 C   0  0  1  0  0  0  0  0  0  0  0  0
   -5.6262   -4.6954    5.2919 O   0  0  0  0  0  0  0  0  0  0  0  0
   -3.7933   -4.3795    3.9251 C   0  0  1  0  0  0  0  0  0  0  0  0
   -2.3983   -4.6676    3.8055 O   0  0  0  0  0  0  0  0  0  0  0  0
   -4.7409   -5.3036    3.1835 C   0  0  1  0  0  0  0  0  0  0  0  0
   -4.3900   -6.6817    3.3468 O   0  0  0  0  0  0  0  0  0  0  0  0
   -6.0289   -4.9915    3.9545 C   0  0  2  0  0  0  0  0  0  0  0  0
   -1.6622   -3.8236    2.9670 C   0  0  2  0  0  0  0  0  0  0  0  0
   -1.7999   -4.3057    1.5165 C   0  0  2  0  0  0  0  0  0  0  0  0
   -1.4373   -5.7444    1.4204 N   0  3  0  0  0  0  0  0  0  0  0  0
   -0.9541   -3.4446    0.5729 C   0  0  1  0  0  0  0  0  0  0  0  0
   -1.5339   -2.1519    0.4574 O   0  0  0  0  0  0  0  0  0  0  0  0
    0.4856   -3.3185    1.0808 C   0  0  2  0  0  0  0  0  0  0  0  0
    1.1541   -4.5700    0.9863 O   0  0  0  0  0  0  0  0  0  0  0  0
    0.4786   -2.8400    2.5299 C   0  0  1  0  0  0  0  0  0  0  0  0
   -0.2918   -3.7507    3.3380 O   0  0  0  0  0  0  0  0  0  0  0  0
    1.8682   -2.7381    3.1338 C   0  0  0  0  0  0  0  0  0  0  0  0
    2.7242   -1.7855    2.3925 N   0  3  0  0  0  0  0  0  0  0  0  0
   -2.6132    0.2489   -0.1822 C   0  0  0  0  0  0  0  0  0  0  0  0
   -4.7278   -1.6482    2.1961 C   0  0  2  0  0  0  0  0  0  0  0  0
   -5.0120   -0.5823    3.2517 C   0  0  2  0  0  0  0  0  0  0  0  0
   -6.1999   -0.9591    4.0545 N   0  3  0  0  0  0  0  0  0  0  0  0
   -5.2606    0.7638    2.5845 C   0  0  1  0  0  0  0  0  0  0  0  0
   -5.4464    1.7604    3.5779 O   0  0  0  0  0  0  0  0  0  0  0  0
   -4.0705    1.1219    1.6972 C   0  0  2  0  0  0  0  0  0  0  0  0
   -4.3246    2.3442    1.0169 O   0  0  0  0  0  0  0  0  0  0  0  0
   -2.8967    1.2141   -1.2690 N   0  3  0  0  0  0  0  0  0  0  0  0
   -3.8389    0.0053    0.6809 C   0  0  2  0  0  0  0  0  0  0  0  0
   -3.6435   -1.2514    1.3607 O   0  0  0  0  0  0  0  0  0  0  0  0
   -7.9880   -5.4332    0.3610 C   0  0  2  0  0  0  0  0  0  0  0  0
   -8.2644   -6.8543    0.0484 N   0  3  0  0  0  0  0  0  0  0  0  0
   -6.9248   -4.8886   -0.5862 C   0  0  0  0  0  0  0  0  0  0  0  0
   -6.6287   -3.4282   -0.2749 C   0  0  2  0  0  0  0  0  0  0  0  0
   -5.6118   -2.9701   -1.2108 N   0  3  0  0  0  0  0  0  0  0  0  0
   -6.1422   -3.2948    1.1662 C   0  0  1  0  0  0  0  0  0  0  0  0
   -5.8912   -1.9070    1.4616 O   0  0  0  0  0  0  0  0  0  0  0  0
   -7.1874   -3.8444    2.1469 C   0  0  2  0  0  0  0  0  0  0  0  0
   -6.6559   -3.8000    3.4849 O   0  0  0  0  0  0  0  0  0  0  0  0
   -7.5555   -5.2893    1.8192 C   0  0  1  0  0  0  0  0  0  0  0  0
   -8.6114   -5.7146    2.6704 O   0  0  0  0  0  0  0  0  0  0  0  0
  1  2  1  0  0  0  0
  3  2  1  1  0  0  0
  3  5  1  0  0  0  0
  3  4  1  0  0  0  0
  4  9  1  0  0  0  0
  5  7  1  0  0  0  0
  5  6  1  1  0  0  0
  7  9  1  0  0  0  0
  7  8  1  1  0  0  0
  9 40  1  6  0  0  0
 10  6  1  1  0  0  0
 10 11  1  0  0  0  0
 10 18  1  0  0  0  0
 11 13  1  0  0  0  0
 11 12  1  1  0  0  0
 13 15  1  0  0  0  0
 13 14  1  1  0  0  0
 15 17  1  0  0  0  0
 15 16  1  1  0  0  0
 17 19  1  1  0  0  0
 17 18  1  0  0  0  0
 19 20  1  0  0  0  0
 21 29  1  0  0  0  0
 22 23  1  0  0  0  0
 22 31  1  0  0  0  0
 22 38  1  6  0  0  0
 23 25  1  0  0  0  0
 23 24  1  6  0  0  0
 25 27  1  0  0  0  0
 25 26  1  1  0  0  0
 27 30  1  0  0  0  0
 27 28  1  6  0  0  0
 30 21  1  1  0  0  0
 30 31  1  0  0  0  0
 32 34  1  0  0  0  0
 32 41  1  0  0  0  0
 32 33  1  6  0  0  0
 34 35  1  0  0  0  0
 35 37  1  0  0  0  0
 35 36  1  6  0  0  0
 37 39  1  0  0  0  0
 37 38  1  1  0  0  0
 39 41  1  0  0  0  0
 39 40  1  1  0  0  0
 41 42  1  1  0  0  0
M  CHG  6  12   1  20   1  24   1  29   1  33   1  36   1
M  END
>  <CHROM.1>
33.26211797,153.18761249,-145.38609820,-83.83841126,13.96019531,-178.66286735
-163.08094580,-58.45853143,-173.61266701,60.19278841,-45.65787583,-79.41246964
44.96922017,-138.51018716,154.34568378,-41.88652253,-39.65498735,70.64745169
-50.13166865,-138.03208698,-94.30947663,-174.50716179,-3.87509991,-2.99577910
2.20482005,-0.29137519,0.12496205,2.73154317

>  <Name>
1NEM.B

>  <RI>
0

>  <Rbt.Current_Directory>
/home/itssahil/PROJECTS/Mol_Feturizer/New_Systems/rnas/1nem

>  <Rbt.Executable>
rbdock ($Id: //depot/dev/client3/rdock/2013.1/src/exe/rbdock.cxx#4 $)

>  <Rbt.Library>
libRbt.so (2013.1, Build901 2013/11/27)

>  <Rbt.Parameter_File>
/export/apps/rDock/src/rDock_2013.1_src/data/scripts/dock_solv.prm

>  <Rbt.Receptor>
prm/blind_docking_100.prm

>  <SCORE>
-41.4267

>  <SCORE.INTER>
-56.8029

>  <SCORE.INTER.CONST>
1

>  <SCORE.INTER.POLAR>
-10.2779

>  <SCORE.INTER.ROT>
9

>  <SCORE.INTER.SOLV>
53.1244

>  <SCORE.INTER.VDW>
-30.9171

>  <SCORE.INTER.norm>
-1.35245

>  <SCORE.INTRA>
14.9487

>  <SCORE.INTRA.DIHEDRAL>
20.0218

>  <SCORE.INTRA.DIHEDRAL.0>
22.4324

>  <SCORE.INTRA.POLAR>
-0.0545623

>  <SCORE.INTRA.POLAR.0>
-1.83749

>  <SCORE.INTRA.REPUL>
0

>  <SCORE.INTRA.REPUL.0>
0

>  <SCORE.INTRA.SOLV>
-0.450566

>  <SCORE.INTRA.SOLV.lig_0>
-160.638

>  <SCORE.INTRA.VDW>
5.34858

>  <SCORE.INTRA.VDW.0>
-7.61953

>  <SCORE.INTRA.norm>
0.355921

>  <SCORE.RESTR>
0.427481

>  <SCORE.RESTR.CAVITY>
0.427481

>  <SCORE.RESTR.norm>
0.0101781

>  <SCORE.SYSTEM>
0

>  <SCORE.SYSTEM.CONST>
0

>  <SCORE.SYSTEM.DIHEDRAL>
0

>  <SCORE.SYSTEM.SOLV>
0

>  <SCORE.SYSTEM.norm>
0

>  <SCORE.heavy>
42

>  <SCORE.norm>
-0.986351

>  <RMSD>
7.592

$$$$
1NEM.B
 OpenBabel11021811403D
libRbt.so/2013.1/901 2013/11/27
 42 45  0  0  0  0  0  0  0  0999 V2000
   -5.2331    1.0447    2.6692 O   0  0  0  0  0  0  0  0  0  0  0  0
   -4.4304    1.6770    1.6702 C   0  0  0  0  0  0  0  0  0  0  0  0
   -3.9668    0.7146    0.5777 C   0  0  1  0  0  0  0  0  0  0  0  0
   -3.0725    1.3653   -0.3203 O   0  0  0  0  0  0  0  0  0  0  0  0
   -3.1546   -0.4693    1.0779 C   0  0  1  0  0  0  0  0  0  0  0  0
   -4.0581   -1.3514    1.7480 O   0  0  0  0  0  0  0  0  0  0  0  0
   -2.5969   -0.9516   -0.2481 C   0  0  1  0  0  0  0  0  0  0  0  0
   -3.6069   -1.5321   -1.0800 O   0  0  0  0  0  0  0  0  0  0  0  0
   -2.1504    0.3979   -0.8228 C   0  0  2  0  0  0  0  0  0  0  0  0
   -3.5009   -2.5180    2.2826 C   0  0  2  0  0  0  0  0  0  0  0  0
   -3.9714   -3.7260    1.4611 C   0  0  2  0  0  0  0  0  0  0  0  0
   -5.4553   -3.7339    1.3692 N   0  3  0  0  0  0  0  0  0  0  0  0
   -3.4342   -5.0321    2.0552 C   0  0  1  0  0  0  0  0  0  0  0  0
   -2.0326   -5.1165    1.8341 O   0  0  0  0  0  0  0  0  0  0  0  0
   -3.7235   -5.1166    3.5570 C   0  0  2  0  0  0  0  0  0  0  0  0
   -5.1196   -5.2637    3.7836 O   0  0  0  0  0  0  0  0  0  0  0  0
   -3.2136   -3.8560    4.2496 C   0  0  1  0  0  0  0  0  0  0  0  0
   -3.8253   -2.6946    3.6555 O   0  0  0  0  0  0  0  0  0  0  0  0
   -3.5078   -3.8302    5.7392 C   0  0  0  0  0  0  0  0  0  0  0  0
   -2.3226   -4.2037    6.5428 N   0  3  0  0  0  0  0  0  0  0  0  0
    1.2483    3.6417    2.1167 C   0  0  0  0  0  0  0  0  0  0  0  0
    2.9527    1.4331   -0.3213 C   0  0  2  0  0  0  0  0  0  0  0  0
    3.9830    0.7477    0.5730 C   0  0  2  0  0  0  0  0  0  0  0  0
    4.4675   -0.4996   -0.0651 N   0  3  0  0  0  0  0  0  0  0  0  0
    3.3662    0.4158    1.9251 C   0  0  1  0  0  0  0  0  0  0  0  0
    4.3540   -0.1496    2.7731 O   0  0  0  0  0  0  0  0  0  0  0  0
    2.7989    1.6866    2.5538 C   0  0  2  0  0  0  0  0  0  0  0  0
    2.1600    1.3738    3.7848 O   0  0  0  0  0  0  0  0  0  0  0  0
   -0.1982    3.7836    1.8331 N   0  3  0  0  0  0  0  0  0  0  0  0
    1.7914    2.3219    1.5975 C   0  0  2  0  0  0  0  0  0  0  0  0
    2.4142    2.5843    0.3236 O   0  0  0  0  0  0  0  0  0  0  0  0
   -0.2513    3.0896   -3.2410 C   0  0  2  0  0  0  0  0  0  0  0  0
   -1.1464    3.5454   -4.3292 N   0  3  0  0  0  0  0  0  0  0  0  0
    0.9213    2.3086   -3.8234 C   0  0  0  0  0  0  0  0  0  0  0  0
    1.8493    1.8314   -2.7152 C   0  0  2  0  0  0  0  0  0  0  0  0
    2.9436    1.0975   -3.3349 N   0  3  0  0  0  0  0  0  0  0  0  0
    1.0789    0.9416   -1.7425 C   0  0  1  0  0  0  0  0  0  0  0  0
    1.9569    0.5173   -0.6817 O   0  0  0  0  0  0  0  0  0  0  0  0
   -0.1166    1.6961   -1.1445 C   0  0  2  0  0  0  0  0  0  0  0  0
   -0.8800    0.7995   -0.3150 O   0  0  0  0  0  0  0  0  0  0  0  0
   -1.0326    2.2456   -2.2352 C   0  0  1  0  0  0  0  0  0  0  0  0
   -2.0526    3.0388   -1.6429 O   0  0  0  0  0  0  0  0  0  0  0  0
  1  2  1  0  0  0  0
  3  2  1  1  0  0  0
  3  5  1  0  0  0  0
  3  4  1  0  0  0  0
  4  9  1  0  0  0  0
  5  7  1  0  0  0  0
  5  6  1  6  0  0  0
  7  9  1  0  0  0  0
  7  8  1  6  0  0  0
  9 40  1  1  0  0  0
 10  6  1  6  0  0  0
 10 11  1  0  0  0  0
 10 18  1  0  0  0  0
 11 13  1  0  0  0  0
 11 12  1  1  0  0  0
 13 15  1  0  0  0  0
 13 14  1  1  0  0  0
 15 17  1  0  0  0  0
 15 16  1  6  0  0  0
 17 19  1  1  0  0  0
 17 18  1  0  0  0  0
 19 20  1  0  0  0  0
 21 29  1  0  0  0  0
 22 23  1  0  0  0  0
 22 31  1  0  0  0  0
 22 38  1  1  0  0  0
 23 25  1  0  0  0  0
 23 24  1  6  0  0  0
 25 27  1  0  0  0  0
 25 26  1  1  0  0  0
 27 30  1  0  0  0  0
 27 28  1  1  0  0  0
 30 21  1  1  0  0  0
 30 31  1  0  0  0  0
 32 34  1  0  0  0  0
 32 41  1  0  0  0  0
 32 33  1  6  0  0  0
 34 35  1  0  0  0  0
 35 37  1  0  0  0  0
 35 36  1  6  0  0  0
 37 39  1  0  0  0  0
 37 38  1  1  0  0  0
 39 41  1  0  0  0  0
 39 40  1  1  0  0  0
 41 42  1  1  0  0  0
M  CHG  6  12   1  20   1  24   1  29   1  33   1  36   1
M  END
>  <CHROM.1>
-44.17170147,-174.60977986,179.75172953,-109.50636775,72.57663203,-90.56537142
-46.68117434,-177.24851323,62.00941264,100.70162893,157.97047074,-140.54285236
-168.92019295,-167.45181597,76.00397325,-64.37210295,59.53126544,-23.62826693
-161.02288745,32.29981766,-108.62029434,75.63721296,-0.96723790,-0.15732063
0.82388207,2.27904201,0.26424918,2.27424795

>  <Name>
1NEM.B

>  <RI>
0

>  <Rbt.Current_Directory>
/home/itssahil/PROJECTS/Mol_Feturizer/New_Systems/rnas/1nem

>  <Rbt.Executable>
rbdock ($Id: //depot/dev/client3/rdock/2013.1/src/exe/rbdock.cxx#4 $)

>  <Rbt.Library>
libRbt.so (2013.1, Build901 2013/11/27)

>  <Rbt.Parameter_File>
/export/apps/rDock/src/rDock_2013.1_src/data/scripts/dock_solv.prm

>  <Rbt.Receptor>
prm/pocket_docking_4.prm

>  <SCORE>
-15.7121

>  <SCORE.INTER>
-38.5968

>  <SCORE.INTER.CONST>
1

>  <SCORE.INTER.POLAR>
-6.66429

>  <SCORE.INTER.ROT>
9

>  <SCORE.INTER.SOLV>
38.3511

>  <SCORE.INTER.VDW>
-25.9006

>  <SCORE.INTER.norm>
-0.918973

>  <SCORE.INTRA>
22.3963

>  <SCORE.INTRA.DIHEDRAL>
15.9963

>  <SCORE.INTRA.DIHEDRAL.0>
22.4324

>  <SCORE.INTRA.POLAR>
1.70291

>  <SCORE.INTRA.POLAR.0>
-1.83749

>  <SCORE.INTRA.REPUL>
0

>  <SCORE.INTRA.REPUL.0>
0

>  <SCORE.INTRA.SOLV>
-4.2206

>  <SCORE.INTRA.SOLV.lig_0>
-160.638

>  <SCORE.INTRA.VDW>
10.7185

>  <SCORE.INTRA.VDW.0>
-7.61953

>  <SCORE.INTRA.norm>
0.533245

>  <SCORE.RESTR>
0.488505

>  <SCORE.RESTR.CAVITY>
0.488505

>  <SCORE.RESTR.norm>
0.0116311

>  <SCORE.SYSTEM>
0

>  <SCORE.SYSTEM.CONST>
0

>  <SCORE.SYSTEM.DIHEDRAL>
0

>  <SCORE.SYSTEM.SOLV>
0

>  <SCORE.SYSTEM.norm>
0

>  <SCORE.heavy>
42

>  <SCORE.norm>
-0.374097

>  <RMSD>
7.601

$$$$
1NEM.B
 OpenBabel11021811403D
libRbt.so/2013.1/901 2013/11/27
 42 45  0  0  0  0  0  0  0  0999 V2000
   -2.9520   -1.6432   -0.7785 O   0  0  0  0  0  0  0  0  0  0  0  0
   -2.7059   -1.7572    0.6245 C   0  0  0  0  0  0  0  0  0  0  0  0
   -1.3911   -2.4664    0.9456 C   0  0  1  0  0  0  0  0  0  0  0  0
   -0.2926   -1.7865    0.3453 O   0  0  0  0  0  0  0  0  0  0  0  0
   -1.0233   -2.4835    2.4207 C   0  0  1  0  0  0  0  0  0  0  0  0
   -1.9066   -3.4021    3.0681 O   0  0  0  0  0  0  0  0  0  0  0  0
    0.4271   -2.9115    2.2986 C   0  0  1  0  0  0  0  0  0  0  0  0
    0.5549   -4.2740    1.8786 O   0  0  0  0  0  0  0  0  0  0  0  0
    0.8589   -1.9681    1.1697 C   0  0  2  0  0  0  0  0  0  0  0  0
   -2.8928   -2.8399    3.8858 C   0  0  2  0  0  0  0  0  0  0  0  0
   -3.5738   -3.9521    4.6949 C   0  0  2  0  0  0  0  0  0  0  0  0
   -4.0601   -5.0214    3.7838 N   0  3  0  0  0  0  0  0  0  0  0  0
   -4.7064   -3.3843    5.5566 C   0  0  1  0  0  0  0  0  0  0  0  0
   -4.1587   -2.6108    6.6160 O   0  0  0  0  0  0  0  0  0  0  0  0
   -5.6534   -2.5159    4.7227 C   0  0  2  0  0  0  0  0  0  0  0  0
   -6.3819   -3.3209    3.8044 O   0  0  0  0  0  0  0  0  0  0  0  0
   -4.8506   -1.4607    3.9670 C   0  0  1  0  0  0  0  0  0  0  0  0
   -3.8570   -2.1034    3.1449 O   0  0  0  0  0  0  0  0  0  0  0  0
   -5.7072   -0.5857    3.0689 C   0  0  0  0  0  0  0  0  0  0  0  0
   -4.8854    0.2590    2.1740 N   0  3  0  0  0  0  0  0  0  0  0  0
    1.6332    3.0164    2.5938 C   0  0  0  0  0  0  0  0  0  0  0  0
    4.5872    0.9043    1.8587 C   0  0  2  0  0  0  0  0  0  0  0  0
    5.2243    0.7981    3.2421 C   0  0  2  0  0  0  0  0  0  0  0  0
    6.1477   -0.3605    3.2942 N   0  3  0  0  0  0  0  0  0  0  0  0
    4.1465    0.6322    4.3049 C   0  0  1  0  0  0  0  0  0  0  0  0
    4.7455    0.6127    5.5915 O   0  0  0  0  0  0  0  0  0  0  0  0
    3.1502    1.7853    4.2067 C   0  0  2  0  0  0  0  0  0  0  0  0
    2.1024    1.6011    5.1500 O   0  0  0  0  0  0  0  0  0  0  0  0
    1.3307    3.2318    1.1603 N   0  3  0  0  0  0  0  0  0  0  0  0
    2.5690    1.8372    2.7951 C   0  0  2  0  0  0  0  0  0  0  0  0
    3.6300    1.9597    1.8261 O   0  0  0  0  0  0  0  0  0  0  0  0
    1.5564    1.1776   -1.6095 C   0  0  2  0  0  0  0  0  0  0  0  0
    0.6910    1.2176   -2.8107 N   0  3  0  0  0  0  0  0  0  0  0  0
    2.9237    0.6085   -1.9710 C   0  0  0  0  0  0  0  0  0  0  0  0
    3.8238    0.5593   -0.7444 C   0  0  2  0  0  0  0  0  0  0  0  0
    5.1083    0.0104   -1.1556 N   0  3  0  0  0  0  0  0  0  0  0  0
    3.1809   -0.3090    0.3346 C   0  0  1  0  0  0  0  0  0  0  0  0
    4.0254   -0.3274    1.5020 O   0  0  0  0  0  0  0  0  0  0  0  0
    1.7958    0.2321    0.7151 C   0  0  2  0  0  0  0  0  0  0  0  0
    1.1750   -0.6652    1.6554 O   0  0  0  0  0  0  0  0  0  0  0  0
    0.8896    0.3564   -0.5072 C   0  0  1  0  0  0  0  0  0  0  0  0
   -0.3334    0.9748   -0.1300 O   0  0  0  0  0  0  0  0  0  0  0  0
  1  2  1  0  0  0  0
  3  2  1  1  0  0  0
  3  5  1  0  0  0  0
  3  4  1  0  0  0  0
  4  9  1  0  0  0  0
  5  7  1  0  0  0  0
  5  6  1  1  0  0  0
  7  9  1  0  0  0  0
  7  8  1  6  0  0  0
  9 40  1  1  0  0  0
 10  6  1  6  0  0  0
 10 11  1  0  0  0  0
 10 18  1  0  0  0  0
 11 13  1  0  0  0  0
 11 12  1  6  0  0  0
 13 15  1  0  0  0  0
 13 14  1  1  0  0  0
 15 17  1  0  0  0  0
 15 16  1  6  0  0  0
 17 19  1  6  0  0  0
 17 18  1  0  0  0  0
 19 20  1  0  0  0  0
 21 29  1  0  0  0  0
 22 23  1  0  0  0  0
 22 31  1  0  0  0  0
 22 38  1  1  0  0  0
 23 25  1  0  0  0  0
 23 24  1  6  0  0  0
 25 27  1  0  0  0  0
 25 26  1  1  0  0  0
 27 30  1  0  0  0  0
 27 28  1  1  0  0  0
 30 21  1  1  0  0  0
 30 31  1  0  0  0  0
 32 34  1  0  0  0  0
 32 41  1  0  0  0  0
 32 33  1  6  0  0  0
 34 35  1  0  0  0  0
 35 37  1  0  0  0  0
 35 36  1  6  0  0  0
 37 39  1  0  0  0  0
 37 38  1  1  0  0  0
 39 41  1  0  0  0  0
 39 40  1  1  0  0  0
 41 42  1  1  0  0  0
M  CHG  6  12   1  20   1  24   1  29   1  33   1  36   1
M  END
>  <CHROM.1>
177.89936100,57.89698200,-107.71988179,-169.61074210,-65.70748577,-75.05955196
-104.47303554,176.68262398,-179.82387435,-169.81251252,-37.72836449,166.84296410
81.83457731,169.09732242,-175.05865061,-174.15099483,64.53082033,-52.62022894
-28.98455044,41.99679906,-65.34788828,153.71847736,0.09348477,-0.72722425
2.10528530,2.81729266,0.36919881,1.75334322

>  <Name>
1NEM.B

>  <RI>
0

>  <Rbt.Current_Directory>
/home/itssahil/PROJECTS/Mol_Feturizer/New_Systems/rnas/1nem

>  <Rbt.Executable>
rbdock ($Id: //depot/dev/client3/rdock/2013.1/src/exe/rbdock.cxx#4 $)

>  <Rbt.Library>
libRbt.so (2013.1, Build901 2013/11/27)

>  <Rbt.Parameter_File>
/export/apps/rDock/src/rDock_2013.1_src/data/scripts/dock_solv.prm

>  <Rbt.Receptor>
prm/pocket_docking_4.prm

>  <SCORE>
-33.8672

>  <SCORE.INTER>
-38.6471

>  <SCORE.INTER.CONST>
1

>  <SCORE.INTER.POLAR>
-4.06407

>  <SCORE.INTER.ROT>
9

>  <SCORE.INTER.SOLV>
28.421

>  <SCORE.INTER.VDW>
-31.2915

>  <SCORE.INTER.norm>
-0.920169

>  <SCORE.INTRA>
4.77988

>  <SCORE.INTRA.DIHEDRAL>
-0.226166

>  <SCORE.INTRA.DIHEDRAL.0>
22.4324

>  <SCORE.INTRA.POLAR>
-0.75252

>  <SCORE.INTRA.POLAR.0>
-1.83749

>  <SCORE.INTRA.REPUL>
0

>  <SCORE.INTRA.REPUL.0>
0

>  <SCORE.INTRA.SOLV>
-0.287852

>  <SCORE.INTRA.SOLV.lig_0>
-160.638

>  <SCORE.INTRA.VDW>
7.59546

>  <SCORE.INTRA.VDW.0>
-7.61953

>  <SCORE.INTRA.norm>
0.113807

>  <SCORE.RESTR>
0

>  <SCORE.RESTR.CAVITY>
0

>  <SCORE.RESTR.norm>
0

>  <SCORE.SYSTEM>
0

>  <SCORE.SYSTEM.CONST>
0

>  <SCORE.SYSTEM.DIHEDRAL>
0

>  <SCORE.SYSTEM.SOLV>
0

>  <SCORE.SYSTEM.norm>
0

>  <SCORE.heavy>
42

>  <SCORE.norm>
-0.806362

>  <RMSD>
7.651

$$$$
1NEM.B
 OpenBabel11021811403D
libRbt.so/2013.1/901 2013/11/27
 42 45  0  0  0  0  0  0  0  0999 V2000
    3.4726    3.1143    7.1185 O   0  0  0  0  0  0  0  0  0  0  0  0
    2.9990    2.4204    5.9626 C   0  0  0  0  0  0  0  0  0  0  0  0
    3.9465    1.3152    5.4982 C   0  0  1  0  0  0  0  0  0  0  0  0
    3.2906    0.4403    4.5850 O   0  0  0  0  0  0  0  0  0  0  0  0
    5.1501    1.8022    4.7072 C   0  0  1  0  0  0  0  0  0  0  0  0
    6.0329    2.4448    5.6297 O   0  0  0  0  0  0  0  0  0  0  0  0
    5.6143    0.4739    4.1399 C   0  0  1  0  0  0  0  0  0  0  0  0
    6.1658   -0.3808    5.1471 O   0  0  0  0  0  0  0  0  0  0  0  0
    4.2601   -0.0697    3.6694 C   0  0  2  0  0  0  0  0  0  0  0  0
    7.1740    3.0401    5.0813 C   0  0  2  0  0  0  0  0  0  0  0  0
    8.4014    2.1793    5.4099 C   0  0  2  0  0  0  0  0  0  0  0  0
    8.4744    1.9324    6.8741 N   0  3  0  0  0  0  0  0  0  0  0  0
    9.6827    2.8323    4.8814 C   0  0  1  0  0  0  0  0  0  0  0  0
    9.7054    2.7596    3.4620 O   0  0  0  0  0  0  0  0  0  0  0  0
    9.7799    4.2960    5.3226 C   0  0  2  0  0  0  0  0  0  0  0  0
    9.9882    4.3757    6.7270 O   0  0  0  0  0  0  0  0  0  0  0  0
    8.4981    5.0324    4.9437 C   0  0  1  0  0  0  0  0  0  0  0  0
    7.3647    4.3722    5.5399 O   0  0  0  0  0  0  0  0  0  0  0  0
    8.4853    6.4829    5.3933 C   0  0  0  0  0  0  0  0  0  0  0  0
    7.5589    7.3043    4.5828 N   0  3  0  0  0  0  0  0  0  0  0  0
    5.8968    1.6101   -2.0570 C   0  0  0  0  0  0  0  0  0  0  0  0
    3.6817    2.5769    0.7512 C   0  0  2  0  0  0  0  0  0  0  0  0
    3.5899    4.0871    0.5468 C   0  0  2  0  0  0  0  0  0  0  0  0
    2.4062    4.6298    1.2553 N   0  3  0  0  0  0  0  0  0  0  0  0
    3.4813    4.4102   -0.9374 C   0  0  1  0  0  0  0  0  0  0  0  0
    3.4749    5.8179   -1.1189 O   0  0  0  0  0  0  0  0  0  0  0  0
    4.6605    3.7896   -1.6831 C   0  0  2  0  0  0  0  0  0  0  0  0
    4.5298    4.0278   -3.0787 O   0  0  0  0  0  0  0  0  0  0  0  0
    7.1697    2.1683   -1.5460 N   0  3  0  0  0  0  0  0  0  0  0  0
    4.6957    2.2856   -1.4184 C   0  0  2  0  0  0  0  0  0  0  0  0
    4.7637    2.0331   -0.0002 O   0  0  0  0  0  0  0  0  0  0  0  0
    1.2171   -1.9777    1.3323 C   0  0  2  0  0  0  0  0  0  0  0  0
    1.1821   -3.4579    1.3670 N   0  3  0  0  0  0  0  0  0  0  0  0
    1.1000   -1.4873   -0.1064 C   0  0  0  0  0  0  0  0  0  0  0  0
    1.1369    0.0336   -0.1577 C   0  0  2  0  0  0  0  0  0  0  0  0
    1.0197    0.4358   -1.5522 N   0  3  0  0  0  0  0  0  0  0  0  0
    2.4441    0.5401    0.4472 C   0  0  1  0  0  0  0  0  0  0  0  0
    2.4588    1.9807    0.4206 O   0  0  0  0  0  0  0  0  0  0  0  0
    2.5981    0.0548    1.8953 C   0  0  2  0  0  0  0  0  0  0  0  0
    3.8846    0.4605    2.4001 O   0  0  0  0  0  0  0  0  0  0  0  0
    2.4984   -1.4658    1.9883 C   0  0  1  0  0  0  0  0  0  0  0  0
    2.5213   -1.8600    3.3538 O   0  0  0  0  0  0  0  0  0  0  0  0
  1  2  1  0  0  0  0
  3  2  1  6  0  0  0
  3  5  1  0  0  0  0
  3  4  1  0  0  0  0
  4  9  1  0  0  0  0
  5  7  1  0  0  0  0
  5  6  1  1  0  0  0
  7  9  1  0  0  0  0
  7  8  1  1  0  0  0
  9 40  1  6  0  0  0
 10  6  1  1  0  0  0
 10 11  1  0  0  0  0
 10 18  1  0  0  0  0
 11 13  1  0  0  0  0
 11 12  1  1  0  0  0
 13 15  1  0  0  0  0
 13 14  1  6  0  0  0
 15 17  1  0  0  0  0
 15 16  1  1  0  0  0
 17 19  1  1  0  0  0
 17 18  1  0  0  0  0
 19 20  1  0  0  0  0
 21 29  1  0  0  0  0
 22 23  1  0  0  0  0
 22 31  1  0  0  0  0
 22 38  1  6  0  0  0
 23 25  1  0  0  0  0
 23 24  1  1  0  0  0
 25 27  1  0  0  0  0
 25 26  1  1  0  0  0
 27 30  1  0  0  0  0
 27 28  1  6  0  0  0
 30 21  1  6  0  0  0
 30 31  1  0  0  0  0
 32 34  1  0  0  0  0
 32 41  1  0  0  0  0
 32 33  1  6  0  0  0
 34 35  1  0  0  0  0
 35 37  1  0  0  0  0
 35 36  1  6  0  0  0
 37 39  1  0  0  0  0
 37 38  1  1  0  0  0
 39 41  1  0  0  0  0
 39 40  1  6  0  0  0
 41 42  1  1  0  0  0
M  CHG  6  12   1  20   1  24   1  29   1  33   1  36   1
M  END
>  <CHROM.1>
-172.14592817,164.87248089,-176.20482066,-106.05791851,-60.92512577,-62.80831304
170.34879407,-176.68941919,73.42904928,156.61016946,-175.05384608,59.79638704
-61.99218395,174.37406795,-160.85490094,-176.15441496,-66.24558284,-87.35158096
-176.68672563,-170.42920238,-171.65031821,-64.84773405,4.92899593,2.09446644
2.55378884,0.37296283,0.78364090,2.10212592

>  <Name>
1NEM.B

>  <RI>
0

>  <Rbt.Current_Directory>
/home/itssahil/PROJECTS/Mol_Feturizer/New_Systems/rnas/1nem

>  <Rbt.Executable>
rbdock ($Id: //depot/dev/client3/rdock/2013.1/src/exe/rbdock.cxx#4 $)

>  <Rbt.Library>
libRbt.so (2013.1, Build901 2013/11/27)

>  <Rbt.Parameter_File>
/export/apps/rDock/src/rDock_2013.1_src/data/scripts/dock_solv.prm

>  <Rbt.Receptor>
prm/pocket_docking_7.prm

>  <SCORE>
-22.4377

>  <SCORE.INTER>
-24.1763

>  <SCORE.INTER.CONST>
1

>  <SCORE.INTER.POLAR>
-3.92384

>  <SCORE.INTER.ROT>
9

>  <SCORE.INTER.SOLV>
19.8782

>  <SCORE.INTER.VDW>
-19.2641

>  <SCORE.INTER.norm>
-0.575626

>  <SCORE.INTRA>
1.73855

>  <SCORE.INTRA.DIHEDRAL>
-7.36396

>  <SCORE.INTRA.DIHEDRAL.0>
22.4324

>  <SCORE.INTRA.POLAR>
1.12124

>  <SCORE.INTRA.POLAR.0>
-1.83749

>  <SCORE.INTRA.REPUL>
0.000425478

>  <SCORE.INTRA.REPUL.0>
0

>  <SCORE.INTRA.SOLV>
-7.77974

>  <SCORE.INTRA.SOLV.lig_0>
-160.638

>  <SCORE.INTRA.VDW>
5.49607

>  <SCORE.INTRA.VDW.0>
-7.61953

>  <SCORE.INTRA.norm>
0.0413942

>  <SCORE.RESTR>
0

>  <SCORE.RESTR.CAVITY>
0

>  <SCORE.RESTR.norm>
0

>  <SCORE.SYSTEM>
0

>  <SCORE.SYSTEM.CONST>
0

>  <SCORE.SYSTEM.DIHEDRAL>
0

>  <SCORE.SYSTEM.SOLV>
0

>  <SCORE.SYSTEM.norm>
0

>  <SCORE.heavy>
42

>  <SCORE.norm>
-0.534232

>  <RMSD>
7.658

$$$$
1NEM.B
 OpenBabel11021811403D
libRbt.so/2013.1/901 2013/11/27
 42 45  0  0  0  0  0  0  0  0999 V2000
   -3.1730   -5.9484    1.9220 O   0  0  0  0  0  0  0  0  0  0  0  0
   -2.2619   -5.4526    0.9391 C   0  0  0  0  0  0  0  0  0  0  0  0
   -1.3809   -4.3173    1.4585 C   0  0  1  0  0  0  0  0  0  0  0  0
   -0.9306   -3.4975    0.3840 O   0  0  0  0  0  0  0  0  0  0  0  0
   -2.0904   -3.3311    2.3726 C   0  0  1  0  0  0  0  0  0  0  0  0
   -2.3148   -3.9934    3.6193 O   0  0  0  0  0  0  0  0  0  0  0  0
   -1.0558   -2.2214    2.3727 C   0  0  1  0  0  0  0  0  0  0  0  0
    0.1295   -2.5876    3.0869 O   0  0  0  0  0  0  0  0  0  0  0  0
   -0.7691   -2.1639    0.8676 C   0  0  2  0  0  0  0  0  0  0  0  0
   -3.5686   -3.7955    4.2077 C   0  0  2  0  0  0  0  0  0  0  0  0
   -3.3792   -3.2933    5.6455 C   0  0  2  0  0  0  0  0  0  0  0  0
   -2.4821   -4.2131    6.3934 N   0  3  0  0  0  0  0  0  0  0  0  0
   -4.7309   -3.1262    6.3473 C   0  0  1  0  0  0  0  0  0  0  0  0
   -5.4247   -2.0177    5.7899 O   0  0  0  0  0  0  0  0  0  0  0  0
   -5.5857   -4.3897    6.2088 C   0  0  2  0  0  0  0  0  0  0  0  0
   -5.0158   -5.4560    6.9573 O   0  0  0  0  0  0  0  0  0  0  0  0
   -5.6870   -4.7822    4.7375 C   0  0  1  0  0  0  0  0  0  0  0  0
   -4.3662   -4.9723    4.1940 O   0  0  0  0  0  0  0  0  0  0  0  0
   -6.4752   -6.0603    4.5114 C   0  0  0  0  0  0  0  0  0  0  0  0
   -7.0970   -6.0955    3.1690 N   0  3  0  0  0  0  0  0  0  0  0  0
    2.6100    0.7353   -2.9318 C   0  0  0  0  0  0  0  0  0  0  0  0
    1.4444   -0.9350    0.1631 C   0  0  2  0  0  0  0  0  0  0  0  0
    2.7597   -1.1029    0.9199 C   0  0  2  0  0  0  0  0  0  0  0  0
    2.4975   -1.3220    2.3624 N   0  3  0  0  0  0  0  0  0  0  0  0
    3.6263    0.1375    0.7477 C   0  0  1  0  0  0  0  0  0  0  0  0
    4.8761   -0.0619    1.3902 O   0  0  0  0  0  0  0  0  0  0  0  0
    3.8379    0.4104   -0.7398 C   0  0  2  0  0  0  0  0  0  0  0  0
    4.5881    1.6061   -0.9104 O   0  0  0  0  0  0  0  0  0  0  0  0
    1.2944    0.9904   -3.5619 N   0  3  0  0  0  0  0  0  0  0  0  0
    2.4823    0.5501   -1.4298 C   0  0  2  0  0  0  0  0  0  0  0  0
    1.6887   -0.6334   -1.2082 O   0  0  0  0  0  0  0  0  0  0  0  0
   -2.8589    2.1793   -0.2546 C   0  0  2  0  0  0  0  0  0  0  0  0
   -3.9447    2.7701   -1.0703 N   0  3  0  0  0  0  0  0  0  0  0  0
   -1.5103    2.7284   -0.7061 C   0  0  0  0  0  0  0  0  0  0  0  0
   -0.3836    2.1277    0.1228 C   0  0  2  0  0  0  0  0  0  0  0  0
    0.8710    2.6914   -0.3550 N   0  3  0  0  0  0  0  0  0  0  0  0
   -0.3881    0.6077   -0.0227 C   0  0  1  0  0  0  0  0  0  0  0  0
    0.6629    0.0450    0.7867 O   0  0  0  0  0  0  0  0  0  0  0  0
   -1.7381    0.0228    0.4151 C   0  0  2  0  0  0  0  0  0  0  0  0
   -1.7459   -1.3961    0.1678 O   0  0  0  0  0  0  0  0  0  0  0  0
   -2.8961    0.6551   -0.3529 C   0  0  1  0  0  0  0  0  0  0  0  0
   -4.1287    0.1770    0.1692 O   0  0  0  0  0  0  0  0  0  0  0  0
  1  2  1  0  0  0  0
  3  2  1  6  0  0  0
  3  5  1  0  0  0  0
  3  4  1  0  0  0  0
  4  9  1  0  0  0  0
  5  7  1  0  0  0  0
  5  6  1  1  0  0  0
  7  9  1  0  0  0  0
  7  8  1  1  0  0  0
  9 40  1  6  0  0  0
 10  6  1  1  0  0  0
 10 11  1  0  0  0  0
 10 18  1  0  0  0  0
 11 13  1  0  0  0  0
 11 12  1  1  0  0  0
 13 15  1  0  0  0  0
 13 14  1  6  0  0  0
 15 17  1  0  0  0  0
 15 16  1  1  0  0  0
 17 19  1  1  0  0  0
 17 18  1  0  0  0  0
 19 20  1  0  0  0  0
 21 29  1  0  0  0  0
 22 23  1  0  0  0  0
 22 31  1  0  0  0  0
 22 38  1  1  0  0  0
 23 25  1  0  0  0  0
 23 24  1  1  0  0  0
 25 27  1  0  0  0  0
 25 26  1  1  0  0  0
 27 30  1  0  0  0  0
 27 28  1  1  0  0  0
 30 21  1  6  0  0  0
 30 31  1  0  0  0  0
 32 34  1  0  0  0  0
 32 41  1  0  0  0  0
 32 33  1  6  0  0  0
 34 35  1  0  0  0  0
 35 37  1  0  0  0  0
 35 36  1  6  0  0  0
 37 39  1  0  0  0  0
 37 38  1  1  0  0  0
 39 41  1  0  0  0  0
 39 40  1  6  0  0  0
 41 42  1  1  0  0  0
M  CHG  6  12   1  20   1  24   1  29   1  33   1  36   1
M  END
>  <CHROM.1>
-42.39766874,-155.23881964,-137.49668520,-126.21656567,54.52695517,-176.22389935
-67.73146562,56.66544121,174.88278612,153.25856968,-33.53102318,-174.86071387
-156.48249032,161.23634621,-45.11849662,-70.47380947,74.13755981,-60.42612107
64.93127290,-134.28445615,61.49529339,-58.87949399,-1.28850047,-1.65181609
1.65047503,-2.27437379,0.08157391,-0.71669217

>  <Name>
1NEM.B

>  <RI>
0

>  <Rbt.Current_Directory>
/home/itssahil/PROJECTS/Mol_Feturizer/New_Systems/rnas/1nem

>  <Rbt.Executable>
rbdock ($Id: //depot/dev/client3/rdock/2013.1/src/exe/rbdock.cxx#4 $)

>  <Rbt.Library>
libRbt.so (2013.1, Build901 2013/11/27)

>  <Rbt.Parameter_File>
/export/apps/rDock/src/rDock_2013.1_src/data/scripts/dock_solv.prm

>  <Rbt.Receptor>
prm/pocket_docking_6.prm

>  <SCORE>
-25.0119

>  <SCORE.INTER>
-38.7103

>  <SCORE.INTER.CONST>
1

>  <SCORE.INTER.POLAR>
-5.66472

>  <SCORE.INTER.ROT>
9

>  <SCORE.INTER.SOLV>
36.4192

>  <SCORE.INTER.VDW>
-28.6642

>  <SCORE.INTER.norm>
-0.921673

>  <SCORE.INTRA>
13.6983

>  <SCORE.INTRA.DIHEDRAL>
9.49702

>  <SCORE.INTRA.DIHEDRAL.0>
22.4324

>  <SCORE.INTRA.POLAR>
0.584572

>  <SCORE.INTRA.POLAR.0>
-1.83749

>  <SCORE.INTRA.REPUL>
0

>  <SCORE.INTRA.REPUL.0>
0

>  <SCORE.INTRA.SOLV>
1.79731

>  <SCORE.INTRA.SOLV.lig_0>
-160.638

>  <SCORE.INTRA.VDW>
6.06362

>  <SCORE.INTRA.VDW.0>
-7.61953

>  <SCORE.INTRA.norm>
0.326151

>  <SCORE.RESTR>
0

>  <SCORE.RESTR.CAVITY>
0

>  <SCORE.RESTR.norm>
0

>  <SCORE.SYSTEM>
0

>  <SCORE.SYSTEM.CONST>
0

>  <SCORE.SYSTEM.DIHEDRAL>
0

>  <SCORE.SYSTEM.SOLV>
0

>  <SCORE.SYSTEM.norm>
0

>  <SCORE.heavy>
42

>  <SCORE.norm>
-0.595522

>  <RMSD>
7.659

$$$$
1NEM.B
 OpenBabel11021811403D
libRbt.so/2013.1/901 2013/11/27
 42 45  0  0  0  0  0  0  0  0999 V2000
   -5.8133   -0.3334    3.0500 O   0  0  0  0  0  0  0  0  0  0  0  0
   -4.9116    0.4483    2.2639 C   0  0  0  0  0  0  0  0  0  0  0  0
   -4.4146   -0.2839    1.0182 C   0  0  1  0  0  0  0  0  0  0  0  0
   -3.5077    0.5322    0.2827 O   0  0  0  0  0  0  0  0  0  0  0  0
   -3.6014   -1.5370    1.3011 C   0  0  1  0  0  0  0  0  0  0  0  0
   -4.5101   -2.5366    1.7685 O   0  0  0  0  0  0  0  0  0  0  0  0
   -3.0101   -1.7527   -0.0794 C   0  0  1  0  0  0  0  0  0  0  0  0
   -3.9958   -2.1687   -1.0305 O   0  0  0  0  0  0  0  0  0  0  0  0
   -2.5650   -0.3154   -0.3743 C   0  0  2  0  0  0  0  0  0  0  0  0
   -4.3451   -2.9508    3.0946 C   0  0  2  0  0  0  0  0  0  0  0  0
   -3.1837   -3.9510    3.1716 C   0  0  2  0  0  0  0  0  0  0  0  0
   -3.3962   -5.0556    2.1994 N   0  3  0  0  0  0  0  0  0  0  0  0
   -3.0124   -4.4790    4.5997 C   0  0  1  0  0  0  0  0  0  0  0  0
   -2.5020   -3.4464    5.4326 O   0  0  0  0  0  0  0  0  0  0  0  0
   -4.3429   -4.9850    5.1653 C   0  0  2  0  0  0  0  0  0  0  0  0
   -4.7538   -6.1629    4.4828 O   0  0  0  0  0  0  0  0  0  0  0  0
   -5.4075   -3.9012    5.0206 C   0  0  1  0  0  0  0  0  0  0  0  0
   -5.5290   -3.5221    3.6359 O   0  0  0  0  0  0  0  0  0  0  0  0
   -6.7775   -4.3382    5.5088 C   0  0  0  0  0  0  0  0  0  0  0  0
   -7.6321   -3.1831    5.8629 N   0  3  0  0  0  0  0  0  0  0  0  0
    4.8521    1.3675    2.8437 C   0  0  0  0  0  0  0  0  0  0  0  0
    2.7874   -0.6921    0.5585 C   0  0  2  0  0  0  0  0  0  0  0  0
    2.7041   -2.0023    1.3379 C   0  0  2  0  0  0  0  0  0  0  0  0
    1.5627   -2.8154    0.8543 N   0  3  0  0  0  0  0  0  0  0  0  0
    2.5276   -1.7188    2.8237 C   0  0  1  0  0  0  0  0  0  0  0  0
    2.5294   -2.9411    3.5451 O   0  0  0  0  0  0  0  0  0  0  0  0
    3.6617   -0.8196    3.3105 C   0  0  2  0  0  0  0  0  0  0  0  0
    3.4665   -0.4936    4.6806 O   0  0  0  0  0  0  0  0  0  0  0  0
    4.6259    2.7546    2.3772 N   0  3  0  0  0  0  0  0  0  0  0  0
    3.6915    0.4594    2.4760 C   0  0  2  0  0  0  0  0  0  0  0  0
    3.8251    0.1358    1.0770 O   0  0  0  0  0  0  0  0  0  0  0  0
   -0.1411    1.9307   -2.7800 C   0  0  2  0  0  0  0  0  0  0  0  0
   -0.7721    2.1487   -4.1020 N   0  3  0  0  0  0  0  0  0  0  0  0
    1.1875    1.2029   -2.9505 C   0  0  0  0  0  0  0  0  0  0  0  0
    1.8470    0.9698   -1.5984 C   0  0  2  0  0  0  0  0  0  0  0  0
    3.1059    0.2757   -1.8300 N   0  3  0  0  0  0  0  0  0  0  0  0
    0.9238    0.1409   -0.7086 C   0  0  1  0  0  0  0  0  0  0  0  0
    1.5429   -0.0512    0.5784 O   0  0  0  0  0  0  0  0  0  0  0  0
   -0.4291    0.8423   -0.5245 C   0  0  2  0  0  0  0  0  0  0  0  0
   -1.3101   -0.0112    0.2305 O   0  0  0  0  0  0  0  0  0  0  0  0
   -1.0859    1.1503   -1.8677 C   0  0  1  0  0  0  0  0  0  0  0  0
   -2.2703    1.9068   -1.6543 O   0  0  0  0  0  0  0  0  0  0  0  0
  1  2  1  0  0  0  0
  3  2  1  1  0  0  0
  3  5  1  0  0  0  0
  3  4  1  0  0  0  0
  4  9  1  0  0  0  0
  5  7  1  0  0  0  0
  5  6  1  6  0  0  0
  7  9  1  0  0  0  0
  7  8  1  6  0  0  0
  9 40  1  1  0  0  0
 10  6  1  6  0  0  0
 10 11  1  0  0  0  0
 10 18  1  0  0  0  0
 11 13  1  0  0  0  0
 11 12  1  6  0  0  0
 13 15  1  0  0  0  0
 13 14  1  1  0  0  0
 15 17  1  0  0  0  0
 15 16  1  6  0  0  0
 17 19  1  6  0  0  0
 17 18  1  0  0  0  0
 19 20  1  0  0  0  0
 21 29  1  0  0  0  0
 22 23  1  0  0  0  0
 22 31  1  0  0  0  0
 22 38  1  1  0  0  0
 23 25  1  0  0  0  0
 23 24  1  6  0  0  0
 25 27  1  0  0  0  0
 25 26  1  1  0  0  0
 27 30  1  0  0  0  0
 27 28  1  1  0  0  0
 30 21  1  1  0  0  0
 30 31  1  0  0  0  0
 32 34  1  0  0  0  0
 32 41  1  0  0  0  0
 32 33  1  6  0  0  0
 34 35  1  0  0  0  0
 35 37  1  0  0  0  0
 35 36  1  6  0  0  0
 37 39  1  0  0  0  0
 37 38  1  1  0  0  0
 39 41  1  0  0  0  0
 39 40  1  1  0  0  0
 41 42  1  1  0  0  0
M  CHG  6  12   1  20   1  24   1  29   1  33   1  36   1
M  END
>  <CHROM.1>
-56.75090984,-179.23160432,-114.27171942,-79.47527933,79.05711381,-101.89814192
83.48962510,-74.69905733,54.85893315,157.43823805,-135.40422180,-161.09030228
-158.38632338,-118.21586890,-137.29545010,55.65620934,179.37804617,42.61305480
154.68546401,-58.82837628,-124.62319705,77.03945589,-1.17115279,-1.20638556
1.56067013,2.51728816,0.17523004,2.16828084

>  <Name>
1NEM.B

>  <RI>
0

>  <Rbt.Current_Directory>
/home/itssahil/PROJECTS/Mol_Feturizer/New_Systems/rnas/1nem

>  <Rbt.Executable>
rbdock ($Id: //depot/dev/client3/rdock/2013.1/src/exe/rbdock.cxx#4 $)

>  <Rbt.Library>
libRbt.so (2013.1, Build901 2013/11/27)

>  <Rbt.Parameter_File>
/export/apps/rDock/src/rDock_2013.1_src/data/scripts/dock_solv.prm

>  <Rbt.Receptor>
prm/pocket_docking_5.prm

>  <SCORE>
-29.6317

>  <SCORE.INTER>
-56.0666

>  <SCORE.INTER.CONST>
1

>  <SCORE.INTER.POLAR>
-8.06417

>  <SCORE.INTER.ROT>
9

>  <SCORE.INTER.SOLV>
36.3748

>  <SCORE.INTER.VDW>
-32.2221

>  <SCORE.INTER.norm>
-1.33492

>  <SCORE.INTRA>
26.1025

>  <SCORE.INTRA.DIHEDRAL>
23.5683

>  <SCORE.INTRA.DIHEDRAL.0>
22.4324

>  <SCORE.INTRA.POLAR>
1.00977

>  <SCORE.INTRA.POLAR.0>
-1.83749

>  <SCORE.INTRA.REPUL>
0

>  <SCORE.INTRA.REPUL.0>
0

>  <SCORE.INTRA.SOLV>
-5.02709

>  <SCORE.INTRA.SOLV.lig_0>
-160.638

>  <SCORE.INTRA.VDW>
13.3987

>  <SCORE.INTRA.VDW.0>
-7.61953

>  <SCORE.INTRA.norm>
0.621489

>  <SCORE.RESTR>
0.332458

>  <SCORE.RESTR.CAVITY>
0.332458

>  <SCORE.RESTR.norm>
0.00791567

>  <SCORE.SYSTEM>
0

>  <SCORE.SYSTEM.CONST>
0

>  <SCORE.SYSTEM.DIHEDRAL>
0

>  <SCORE.SYSTEM.SOLV>
0

>  <SCORE.SYSTEM.norm>
0

>  <SCORE.heavy>
42

>  <SCORE.norm>
-0.705516

>  <RMSD>
7.668

$$$$
1NEM.B
 OpenBabel11021811403D
libRbt.so/2013.1/901 2013/11/27
 42 45  0  0  0  0  0  0  0  0999 V2000
    1.5805    1.4377    7.5780 O   0  0  0  0  0  0  0  0  0  0  0  0
    2.8032    1.7735    6.9189 C   0  0  0  0  0  0  0  0  0  0  0  0
    2.9856    1.0444    5.5885 C   0  0  1  0  0  0  0  0  0  0  0  0
    2.1645    1.6250    4.5794 O   0  0  0  0  0  0  0  0  0  0  0  0
    4.3828    1.1433    4.9973 C   0  0  1  0  0  0  0  0  0  0  0  0
    5.2397    0.3208    5.7926 O   0  0  0  0  0  0  0  0  0  0  0  0
    4.0822    0.6494    3.5945 C   0  0  1  0  0  0  0  0  0  0  0  0
    3.7767   -0.7488    3.5677 O   0  0  0  0  0  0  0  0  0  0  0  0
    2.8178    1.4718    3.3191 C   0  0  2  0  0  0  0  0  0  0  0  0
    6.5527    0.7743    5.9584 C   0  0  2  0  0  0  0  0  0  0  0  0
    7.4174    0.2551    4.8017 C   0  0  2  0  0  0  0  0  0  0  0  0
    7.2818   -1.2209    4.6858 N   0  3  0  0  0  0  0  0  0  0  0  0
    8.8793    0.6769    4.9816 C   0  0  1  0  0  0  0  0  0  0  0  0
    9.0020    2.0771    4.7698 O   0  0  0  0  0  0  0  0  0  0  0  0
    9.3886    0.3225    6.3821 C   0  0  2  0  0  0  0  0  0  0  0  0
    9.4881   -1.0884    6.5291 O   0  0  0  0  0  0  0  0  0  0  0  0
    8.4382    0.8897    7.4327 C   0  0  1  0  0  0  0  0  0  0  0  0
    7.1080    0.3838    7.2075 O   0  0  0  0  0  0  0  0  0  0  0  0
    8.8386    0.5386    8.8548 C   0  0  0  0  0  0  0  0  0  0  0  0
    8.1064    1.3512    9.8515 N   0  3  0  0  0  0  0  0  0  0  0  0
    7.3544    0.0540   -0.9125 C   0  0  0  0  0  0  0  0  0  0  0  0
    5.2435    2.2276    1.2198 C   0  0  2  0  0  0  0  0  0  0  0  0
    6.2678    3.2532    1.6993 C   0  0  2  0  0  0  0  0  0  0  0  0
    5.5825    4.4750    2.1841 N   0  3  0  0  0  0  0  0  0  0  0  0
    7.2126    3.6220    0.5633 C   0  0  1  0  0  0  0  0  0  0  0  0
    8.2061    4.5157    1.0415 O   0  0  0  0  0  0  0  0  0  0  0  0
    7.8657    2.3570    0.0108 C   0  0  2  0  0  0  0  0  0  0  0  0
    8.6965    2.6851   -1.0954 O   0  0  0  0  0  0  0  0  0  0  0  0
    7.2568   -0.0780   -2.3843 N   0  3  0  0  0  0  0  0  0  0  0  0
    6.7819    1.3761   -0.4321 C   0  0  2  0  0  0  0  0  0  0  0  0
    5.8953    1.0867    0.6679 O   0  0  0  0  0  0  0  0  0  0  0  0
    0.1701    3.3874    0.6367 C   0  0  2  0  0  0  0  0  0  0  0  0
   -1.2691    3.0896    0.8195 N   0  3  0  0  0  0  0  0  0  0  0  0
    0.7134    2.6179   -0.5619 C   0  0  0  0  0  0  0  0  0  0  0  0
    2.1935    2.9128   -0.7607 C   0  0  2  0  0  0  0  0  0  0  0  0
    2.6486    2.1523   -1.9160 N   0  3  0  0  0  0  0  0  0  0  0  0
    2.9724    2.5184    0.4920 C   0  0  1  0  0  0  0  0  0  0  0  0
    4.3677    2.8267    0.3066 O   0  0  0  0  0  0  0  0  0  0  0  0
    2.4427    3.2695    1.7215 C   0  0  2  0  0  0  0  0  0  0  0  0
    3.1260    2.7990    2.8989 O   0  0  0  0  0  0  0  0  0  0  0  0
    0.9441    3.0469    1.9092 C   0  0  1  0  0  0  0  0  0  0  0  0
    0.4748    3.8560    2.9796 O   0  0  0  0  0  0  0  0  0  0  0  0
  1  2  1  0  0  0  0
  3  2  1  1  0  0  0
  3  5  1  0  0  0  0
  3  4  1  0  0  0  0
  4  9  1  0  0  0  0
  5  7  1  0  0  0  0
  5  6  1  1  0  0  0
  7  9  1  0  0  0  0
  7  8  1  1  0  0  0
  9 40  1  1  0  0  0
 10  6  1  6  0  0  0
 10 11  1  0  0  0  0
 10 18  1  0  0  0  0
 11 13  1  0  0  0  0
 11 12  1  1  0  0  0
 13 15  1  0  0  0  0
 13 14  1  1  0  0  0
 15 17  1  0  0  0  0
 15 16  1  6  0  0  0
 17 19  1  1  0  0  0
 17 18  1  0  0  0  0
 19 20  1  0  0  0  0
 21 29  1  0  0  0  0
 22 23  1  0  0  0  0
 22 31  1  0  0  0  0
 22 38  1  6  0  0  0
 23 25  1  0  0  0  0
 23 24  1  6  0  0  0
 25 27  1  0  0  0  0
 25 26  1  1  0  0  0
 27 30  1  0  0  0  0
 27 28  1  6  0  0  0
 30 21  1  1  0  0  0
 30 31  1  0  0  0  0
 32 34  1  0  0  0  0
 32 41  1  0  0  0  0
 32 33  1  1  0  0  0
 34 35  1  0  0  0  0
 35 37  1  0  0  0  0
 35 36  1  6  0  0  0
 37 39  1  0  0  0  0
 37 38  1  6  0  0  0
 39 41  1  0  0  0  0
 39 40  1  1  0  0  0
 41 42  1  1  0  0  0
M  CHG  6  12   1  20   1  24   1  29   1  33   1  36   1
M  END
>  <CHROM.1>
-72.10690516,75.94194476,-145.53170934,-87.78918973,-54.95469221,-114.17818985
139.85088566,48.06855325,173.59751886,166.43444549,-57.50804915,-107.02123989
178.48553474,-135.67080843,-84.61993688,-55.99999026,-59.37640122,-105.64227087
179.09383241,-164.82441452,-69.86150184,76.79646742,5.13557198,1.70187274
3.07055063,0.91462064,-0.17525087,1.75379712

>  <Name>
1NEM.B

>  <RI>
0

>  <Rbt.Current_Directory>
/home/itssahil/PROJECTS/Mol_Feturizer/New_Systems/rnas/1nem

>  <Rbt.Executable>
rbdock ($Id: //depot/dev/client3/rdock/2013.1/src/exe/rbdock.cxx#4 $)

>  <Rbt.Library>
libRbt.so (2013.1, Build901 2013/11/27)

>  <Rbt.Parameter_File>
/export/apps/rDock/src/rDock_2013.1_src/data/scripts/dock_solv.prm

>  <Rbt.Receptor>
prm/pocket_docking_8.prm

>  <SCORE>
-21.9315

>  <SCORE.INTER>
-29.9086

>  <SCORE.INTER.CONST>
1

>  <SCORE.INTER.POLAR>
-5.08588

>  <SCORE.INTER.ROT>
9

>  <SCORE.INTER.SOLV>
26.292

>  <SCORE.INTER.VDW>
-21.3501

>  <SCORE.INTER.norm>
-0.712109

>  <SCORE.INTRA>
7.97707

>  <SCORE.INTRA.DIHEDRAL>
16.5061

>  <SCORE.INTRA.DIHEDRAL.0>
22.4324

>  <SCORE.INTRA.POLAR>
-0.229876

>  <SCORE.INTRA.POLAR.0>
-1.83749

>  <SCORE.INTRA.REPUL>
0

>  <SCORE.INTRA.REPUL.0>
0

>  <SCORE.INTRA.SOLV>
-6.17398

>  <SCORE.INTRA.SOLV.lig_0>
-160.638

>  <SCORE.INTRA.VDW>
3.5926

>  <SCORE.INTRA.VDW.0>
-7.61953

>  <SCORE.INTRA.norm>
0.18993

>  <SCORE.RESTR>
0

>  <SCORE.RESTR.CAVITY>
0

>  <SCORE.RESTR.norm>
0

>  <SCORE.SYSTEM>
0

>  <SCORE.SYSTEM.CONST>
0

>  <SCORE.SYSTEM.DIHEDRAL>
0

>  <SCORE.SYSTEM.SOLV>
0

>  <SCORE.SYSTEM.norm>
0

>  <SCORE.heavy>
42

>  <SCORE.norm>
-0.522179

>  <RMSD>
7.750

$$$$
1NEM.B
 OpenBabel11021811403D
libRbt.so/2013.1/901 2013/11/27
 42 45  0  0  0  0  0  0  0  0999 V2000
   -4.6499   -4.9738    0.4078 O   0  0  0  0  0  0  0  0  0  0  0  0
   -4.1349   -5.2599    1.7097 C   0  0  0  0  0  0  0  0  0  0  0  0
   -2.7645   -4.6330    1.9620 C   0  0  1  0  0  0  0  0  0  0  0  0
   -2.0033   -4.5852    0.7587 O   0  0  0  0  0  0  0  0  0  0  0  0
   -2.8037   -3.1791    2.4048 C   0  0  1  0  0  0  0  0  0  0  0  0
   -3.2817   -3.1581    3.7518 O   0  0  0  0  0  0  0  0  0  0  0  0
   -1.3416   -2.8293    2.2003 C   0  0  1  0  0  0  0  0  0  0  0  0
   -0.4928   -3.4750    3.1552 O   0  0  0  0  0  0  0  0  0  0  0  0
   -1.1414   -3.4482    0.8119 C   0  0  2  0  0  0  0  0  0  0  0  0
   -4.4672   -3.8588    3.9983 C   0  0  2  0  0  0  0  0  0  0  0  0
   -5.5945   -3.2623    3.1447 C   0  0  2  0  0  0  0  0  0  0  0  0
   -5.6837   -1.7954    3.3700 N   0  3  0  0  0  0  0  0  0  0  0  0
   -6.9266   -3.9614    3.4347 C   0  0  1  0  0  0  0  0  0  0  0  0
   -6.8963   -5.2828    2.9117 O   0  0  0  0  0  0  0  0  0  0  0  0
   -7.2090   -4.0108    4.9395 C   0  0  2  0  0  0  0  0  0  0  0  0
   -7.4690   -2.7041    5.4364 O   0  0  0  0  0  0  0  0  0  0  0  0
   -6.0115   -4.6158    5.6668 C   0  0  1  0  0  0  0  0  0  0  0  0
   -4.8275   -3.8489    5.3735 O   0  0  0  0  0  0  0  0  0  0  0  0
   -6.1834   -4.6539    7.1751 C   0  0  0  0  0  0  0  0  0  0  0  0
   -6.4055   -3.3043    7.7401 N   0  3  0  0  0  0  0  0  0  0  0  0
    3.0110    2.0737    2.4947 C   0  0  0  0  0  0  0  0  0  0  0  0
    1.7488   -0.8767    0.6429 C   0  0  2  0  0  0  0  0  0  0  0  0
    2.5286   -2.0028    1.3172 C   0  0  2  0  0  0  0  0  0  0  0  0
    1.8650   -3.3054    1.0713 N   0  3  0  0  0  0  0  0  0  0  0  0
    2.6150   -1.7562    2.8175 C   0  0  1  0  0  0  0  0  0  0  0  0
    3.4072   -2.7672    3.4213 O   0  0  0  0  0  0  0  0  0  0  0  0
    3.2306   -0.3826    3.0749 C   0  0  2  0  0  0  0  0  0  0  0  0
    3.2512   -0.1156    4.4712 O   0  0  0  0  0  0  0  0  0  0  0  0
    3.2383    2.4304    3.9139 N   0  3  0  0  0  0  0  0  0  0  0  0
    2.4080    0.6865    2.3582 C   0  0  2  0  0  0  0  0  0  0  0  0
    2.3278    0.3890    0.9494 O   0  0  0  0  0  0  0  0  0  0  0  0
   -3.1129    0.8497   -0.5527 C   0  0  2  0  0  0  0  0  0  0  0  0
   -4.0884    1.3952   -1.5244 N   0  3  0  0  0  0  0  0  0  0  0  0
   -1.7953    1.6097   -0.6546 C   0  0  0  0  0  0  0  0  0  0  0  0
   -0.7814    1.0578    0.3378 C   0  0  2  0  0  0  0  0  0  0  0  0
    0.4483    1.8237    0.1915 N   0  3  0  0  0  0  0  0  0  0  0  0
   -0.5370   -0.4232    0.0581 C   0  0  1  0  0  0  0  0  0  0  0  0
    0.4019   -0.9445    1.0188 O   0  0  0  0  0  0  0  0  0  0  0  0
   -1.8481   -1.2170    0.1432 C   0  0  2  0  0  0  0  0  0  0  0  0
   -1.6012   -2.5868   -0.2272 O   0  0  0  0  0  0  0  0  0  0  0  0
   -2.9090   -0.6451   -0.7938 C   0  0  1  0  0  0  0  0  0  0  0  0
   -4.1386   -1.3292   -0.5920 O   0  0  0  0  0  0  0  0  0  0  0  0
  1  2  1  0  0  0  0
  3  2  1  6  0  0  0
  3  5  1  0  0  0  0
  3  4  1  0  0  0  0
  4  9  1  0  0  0  0
  5  7  1  0  0  0  0
  5  6  1  1  0  0  0
  7  9  1  0  0  0  0
  7  8  1  1  0  0  0
  9 40  1  6  0  0  0
 10  6  1  1  0  0  0
 10 11  1  0  0  0  0
 10 18  1  0  0  0  0
 11 13  1  0  0  0  0
 11 12  1  1  0  0  0
 13 15  1  0  0  0  0
 13 14  1  1  0  0  0
 15 17  1  0  0  0  0
 15 16  1  1  0  0  0
 17 19  1  1  0  0  0
 17 18  1  0  0  0  0
 19 20  1  0  0  0  0
 21 29  1  0  0  0  0
 22 23  1  0  0  0  0
 22 31  1  0  0  0  0
 22 38  1  1  0  0  0
 23 25  1  0  0  0  0
 23 24  1  1  0  0  0
 25 27  1  0  0  0  0
 25 26  1  1  0  0  0
 27 30  1  0  0  0  0
 27 28  1  1  0  0  0
 30 21  1  6  0  0  0
 30 31  1  0  0  0  0
 32 34  1  0  0  0  0
 32 41  1  0  0  0  0
 32 33  1  6  0  0  0
 34 35  1  0  0  0  0
 35 37  1  0  0  0  0
 35 36  1  6  0  0  0
 37 39  1  0  0  0  0
 37 38  1  1  0  0  0
 39 41  1  0  0  0  0
 39 40  1  6  0  0  0
 41 42  1  1  0  0  0
M  CHG  6  12   1  20   1  24   1  29   1  33   1  36   1
M  END
>  <CHROM.1>
-48.42636033,-32.97451598,-51.15932143,-60.38099136,-164.80947084,129.31406011
-63.26288141,72.93279936,74.78372794,-58.56793871,61.77696581,-54.04811748
-79.78056990,-151.81658290,63.32193922,60.23489213,73.11040618,-84.07177854
-173.04318180,-90.86493125,85.30966478,74.38162447,-1.92458508,-1.96493444
2.26974233,2.67959807,0.29282031,2.04389519

>  <Name>
1NEM.B

>  <RI>
0

>  <Rbt.Current_Directory>
/home/itssahil/PROJECTS/Mol_Feturizer/New_Systems/rnas/1nem

>  <Rbt.Executable>
rbdock ($Id: //depot/dev/client3/rdock/2013.1/src/exe/rbdock.cxx#4 $)

>  <Rbt.Library>
libRbt.so (2013.1, Build901 2013/11/27)

>  <Rbt.Parameter_File>
/export/apps/rDock/src/rDock_2013.1_src/data/scripts/dock_solv.prm

>  <Rbt.Receptor>
prm/blind_docking_20.prm

>  <SCORE>
5.44073

>  <SCORE.INTER>
-25.82

>  <SCORE.INTER.CONST>
1

>  <SCORE.INTER.POLAR>
-6.41593

>  <SCORE.INTER.ROT>
9

>  <SCORE.INTER.SOLV>
36.6638

>  <SCORE.INTER.VDW>
-17.6482

>  <SCORE.INTER.norm>
-0.614763

>  <SCORE.INTRA>
22.6077

>  <SCORE.INTRA.DIHEDRAL>
5.09709

>  <SCORE.INTRA.DIHEDRAL.0>
22.4324

>  <SCORE.INTRA.POLAR>
-0.386204

>  <SCORE.INTRA.POLAR.0>
-1.83749

>  <SCORE.INTRA.REPUL>
0

>  <SCORE.INTRA.REPUL.0>
0

>  <SCORE.INTRA.SOLV>
8.68027

>  <SCORE.INTRA.SOLV.lig_0>
-160.638

>  <SCORE.INTRA.VDW>
17.0321

>  <SCORE.INTRA.VDW.0>
-7.61953

>  <SCORE.INTRA.norm>
0.538278

>  <SCORE.RESTR>
8.65311

>  <SCORE.RESTR.CAVITY>
8.65311

>  <SCORE.RESTR.norm>
0.206027

>  <SCORE.SYSTEM>
0

>  <SCORE.SYSTEM.CONST>
0

>  <SCORE.SYSTEM.DIHEDRAL>
0

>  <SCORE.SYSTEM.SOLV>
0

>  <SCORE.SYSTEM.norm>
0

>  <SCORE.heavy>
42

>  <SCORE.norm>
0.129541

>  <RMSD>
7.787

$$$$
1NEM.B
 OpenBabel11021811403D
libRbt.so/2013.1/901 2013/11/27
 42 45  0  0  0  0  0  0  0  0999 V2000
   -2.5671   -1.0130   -0.6703 O   0  0  0  0  0  0  0  0  0  0  0  0
   -2.6919   -1.8832    0.4564 C   0  0  0  0  0  0  0  0  0  0  0  0
   -1.3530   -2.4509    0.9252 C   0  0  1  0  0  0  0  0  0  0  0  0
   -0.2697   -1.7259    0.3505 O   0  0  0  0  0  0  0  0  0  0  0  0
   -1.0992   -2.3261    2.4191 C   0  0  1  0  0  0  0  0  0  0  0  0
   -1.9531   -3.2663    3.0749 O   0  0  0  0  0  0  0  0  0  0  0  0
    0.3859   -2.6360    2.4340 C   0  0  1  0  0  0  0  0  0  0  0  0
    0.6543   -4.0100    2.1355 O   0  0  0  0  0  0  0  0  0  0  0  0
    0.8259   -1.7459    1.2657 C   0  0  2  0  0  0  0  0  0  0  0  0
   -2.9749   -2.7278    3.8644 C   0  0  2  0  0  0  0  0  0  0  0  0
   -3.6567   -3.8570    4.6490 C   0  0  2  0  0  0  0  0  0  0  0  0
   -4.0930   -4.9326    3.7201 N   0  3  0  0  0  0  0  0  0  0  0  0
   -4.8262   -3.3161    5.4780 C   0  0  1  0  0  0  0  0  0  0  0  0
   -4.3268   -2.5356    6.5559 O   0  0  0  0  0  0  0  0  0  0  0  0
   -5.7655   -2.4642    4.6187 C   0  0  2  0  0  0  0  0  0  0  0  0
   -6.4493   -3.2806    3.6763 O   0  0  0  0  0  0  0  0  0  0  0  0
   -4.9625   -1.3898    3.8910 C   0  0  1  0  0  0  0  0  0  0  0  0
   -3.9316   -2.0086    3.0972 O   0  0  0  0  0  0  0  0  0  0  0  0
   -5.8098   -0.5292    2.9704 C   0  0  0  0  0  0  0  0  0  0  0  0
   -4.9787    0.2959    2.0657 N   0  3  0  0  0  0  0  0  0  0  0  0
    1.2679    3.6469    1.8902 C   0  0  0  0  0  0  0  0  0  0  0  0
    4.0436    1.4850    3.0516 C   0  0  2  0  0  0  0  0  0  0  0  0
    3.9922    1.7246    4.5586 C   0  0  2  0  0  0  0  0  0  0  0  0
    4.6913    0.6319    5.2761 N   0  3  0  0  0  0  0  0  0  0  0  0
    2.5458    1.7929    5.0300 C   0  0  1  0  0  0  0  0  0  0  0  0
    2.5108    2.0930    6.4169 O   0  0  0  0  0  0  0  0  0  0  0  0
    1.8014    2.8677    4.2410 C   0  0  2  0  0  0  0  0  0  0  0  0
    0.4331    2.8906    4.6267 O   0  0  0  0  0  0  0  0  0  0  0  0
    0.0198    3.1643    1.2558 N   0  3  0  0  0  0  0  0  0  0  0  0
    1.9104    2.5698    2.7468 C   0  0  2  0  0  0  0  0  0  0  0  0
    3.2965    2.4813    2.3587 O   0  0  0  0  0  0  0  0  0  0  0  0
    2.8692    0.8187   -1.3751 C   0  0  2  0  0  0  0  0  0  0  0  0
    2.6663    0.5411   -2.8156 N   0  3  0  0  0  0  0  0  0  0  0  0
    4.2448    0.3275   -0.9385 C   0  0  0  0  0  0  0  0  0  0  0  0
    4.4665    0.6044    0.5419 C   0  0  2  0  0  0  0  0  0  0  0  0
    5.7921    0.1153    0.8934 N   0  3  0  0  0  0  0  0  0  0  0  0
    3.3905   -0.0982    1.3665 C   0  0  1  0  0  0  0  0  0  0  0  0
    3.5907    0.1919    2.7637 O   0  0  0  0  0  0  0  0  0  0  0  0
    1.9901    0.3675    0.9442 C   0  0  2  0  0  0  0  0  0  0  0  0
    0.9985   -0.3881    1.6655 O   0  0  0  0  0  0  0  0  0  0  0  0
    1.7613    0.1641   -0.5515 C   0  0  1  0  0  0  0  0  0  0  0  0
    0.5061    0.7206   -0.9193 O   0  0  0  0  0  0  0  0  0  0  0  0
  1  2  1  0  0  0  0
  3  2  1  1  0  0  0
  3  5  1  0  0  0  0
  3  4  1  0  0  0  0
  4  9  1  0  0  0  0
  5  7  1  0  0  0  0
  5  6  1  1  0  0  0
  7  9  1  0  0  0  0
  7  8  1  6  0  0  0
  9 40  1  1  0  0  0
 10  6  1  6  0  0  0
 10 11  1  0  0  0  0
 10 18  1  0  0  0  0
 11 13  1  0  0  0  0
 11 12  1  6  0  0  0
 13 15  1  0  0  0  0
 13 14  1  1  0  0  0
 15 17  1  0  0  0  0
 15 16  1  6  0  0  0
 17 19  1  6  0  0  0
 17 18  1  0  0  0  0
 19 20  1  0  0  0  0
 21 29  1  0  0  0  0
 22 23  1  0  0  0  0
 22 31  1  0  0  0  0
 22 38  1  1  0  0  0
 23 25  1  0  0  0  0
 23 24  1  1  0  0  0
 25 27  1  0  0  0  0
 25 26  1  1  0  0  0
 27 30  1  0  0  0  0
 27 28  1  1  0  0  0
 30 21  1  6  0  0  0
 30 31  1  0  0  0  0
 32 34  1  0  0  0  0
 32 41  1  0  0  0  0
 32 33  1  6  0  0  0
 34 35  1  0  0  0  0
 35 37  1  0  0  0  0
 35 36  1  1  0  0  0
 37 39  1  0  0  0  0
 37 38  1  1  0  0  0
 39 41  1  0  0  0  0
 39 40  1  1  0  0  0
 41 42  1  6  0  0  0
M  CHG  6  12   1  20   1  24   1  29   1  33   1  36   1
M  END
>  <CHROM.1>
-73.55171715,14.63540246,-112.86193407,-171.76755668,-178.22520411,-95.65192278
-32.74460910,61.86991155,139.84727084,-167.51976590,67.35003855,-109.14117921
-178.25007858,170.79776868,69.64350687,62.64848643,58.60530543,-145.31022071
-79.68978051,36.38501025,-72.96562434,159.48114163,-0.04958041,-0.45406269
2.37493664,3.04781008,0.49973919,1.30188463

>  <Name>
1NEM.B

>  <RI>
0

>  <Rbt.Current_Directory>
/home/itssahil/PROJECTS/Mol_Feturizer/New_Systems/rnas/1nem

>  <Rbt.Executable>
rbdock ($Id: //depot/dev/client3/rdock/2013.1/src/exe/rbdock.cxx#4 $)

>  <Rbt.Library>
libRbt.so (2013.1, Build901 2013/11/27)

>  <Rbt.Parameter_File>
/export/apps/rDock/src/rDock_2013.1_src/data/scripts/dock_solv.prm

>  <Rbt.Receptor>
prm/pocket_docking_5.prm

>  <SCORE>
-29.4708

>  <SCORE.INTER>
-44.3209

>  <SCORE.INTER.CONST>
1

>  <SCORE.INTER.POLAR>
-6.20654

>  <SCORE.INTER.ROT>
9

>  <SCORE.INTER.SOLV>
31.3708

>  <SCORE.INTER.VDW>
-28.9157

>  <SCORE.INTER.norm>
-1.05526

>  <SCORE.INTRA>
14.8501

>  <SCORE.INTRA.DIHEDRAL>
16.4251

>  <SCORE.INTRA.DIHEDRAL.0>
22.4324

>  <SCORE.INTRA.POLAR>
0.660234

>  <SCORE.INTRA.POLAR.0>
-1.83749

>  <SCORE.INTRA.REPUL>
0

>  <SCORE.INTRA.REPUL.0>
0

>  <SCORE.INTRA.SOLV>
-3.3258

>  <SCORE.INTRA.SOLV.lig_0>
-160.638

>  <SCORE.INTRA.VDW>
6.05569

>  <SCORE.INTRA.VDW.0>
-7.61953

>  <SCORE.INTRA.norm>
0.353574

>  <SCORE.RESTR>
0

>  <SCORE.RESTR.CAVITY>
0

>  <SCORE.RESTR.norm>
0

>  <SCORE.SYSTEM>
0

>  <SCORE.SYSTEM.CONST>
0

>  <SCORE.SYSTEM.DIHEDRAL>
0

>  <SCORE.SYSTEM.SOLV>
0

>  <SCORE.SYSTEM.norm>
0

>  <SCORE.heavy>
42

>  <SCORE.norm>
-0.701685

>  <RMSD>
7.790

$$$$
1NEM.B
 OpenBabel11021811403D
libRbt.so/2013.1/901 2013/11/27
 42 45  0  0  0  0  0  0  0  0999 V2000
   -2.4463   -5.1253    0.8726 O   0  0  0  0  0  0  0  0  0  0  0  0
   -1.7661   -4.0613    0.2038 C   0  0  0  0  0  0  0  0  0  0  0  0
   -0.5185   -3.5876    0.9480 C   0  0  1  0  0  0  0  0  0  0  0  0
    0.5607   -3.3810    0.0412 O   0  0  0  0  0  0  0  0  0  0  0  0
   -0.6613   -2.2362    1.6298 C   0  0  1  0  0  0  0  0  0  0  0  0
   -1.5104   -2.4207    2.7649 O   0  0  0  0  0  0  0  0  0  0  0  0
    0.8025   -1.9599    1.9177 C   0  0  1  0  0  0  0  0  0  0  0  0
    1.3259   -2.8231    2.9327 O   0  0  0  0  0  0  0  0  0  0  0  0
    1.3882   -2.3353    0.5514 C   0  0  2  0  0  0  0  0  0  0  0  0
   -2.8203   -1.9454    2.6410 C   0  0  2  0  0  0  0  0  0  0  0  0
   -3.5111   -2.0031    4.0103 C   0  0  2  0  0  0  0  0  0  0  0  0
   -3.3999   -3.3714    4.5808 N   0  3  0  0  0  0  0  0  0  0  0  0
   -4.9712   -1.5511    3.9039 C   0  0  1  0  0  0  0  0  0  0  0  0
   -5.0215   -0.1511    3.6629 O   0  0  0  0  0  0  0  0  0  0  0  0
   -5.6990   -2.2927    2.7785 C   0  0  2  0  0  0  0  0  0  0  0  0
   -5.8585   -3.6654    3.1139 O   0  0  0  0  0  0  0  0  0  0  0  0
   -4.9059   -2.1624    1.4812 C   0  0  1  0  0  0  0  0  0  0  0  0
   -3.5713   -2.6696    1.6753 O   0  0  0  0  0  0  0  0  0  0  0  0
   -5.5293   -2.9161    0.3196 C   0  0  0  0  0  0  0  0  0  0  0  0
   -5.4668   -4.3817    0.5148 N   0  3  0  0  0  0  0  0  0  0  0  0
    1.9005    2.2575   -3.1202 C   0  0  0  0  0  0  0  0  0  0  0  0
    0.2772    2.5281    0.1993 C   0  0  2  0  0  0  0  0  0  0  0  0
   -1.1464    2.9088   -0.1997 C   0  0  2  0  0  0  0  0  0  0  0  0
   -2.0846    2.6236    0.9120 N   0  3  0  0  0  0  0  0  0  0  0  0
   -1.5731    2.1247   -1.4335 C   0  0  1  0  0  0  0  0  0  0  0  0
   -2.8670    2.5435   -1.8398 O   0  0  0  0  0  0  0  0  0  0  0  0
   -0.5680    2.3570   -2.5594 C   0  0  2  0  0  0  0  0  0  0  0  0
   -0.9213    1.5741   -3.6924 O   0  0  0  0  0  0  0  0  0  0  0  0
    3.2131    1.7039   -2.7157 N   0  3  0  0  0  0  0  0  0  0  0  0
    0.8302    1.9700   -2.0817 C   0  0  2  0  0  0  0  0  0  0  0  0
    1.1721    2.7135   -0.8943 O   0  0  0  0  0  0  0  0  0  0  0  0
    4.4793    0.5091    0.4404 C   0  0  2  0  0  0  0  0  0  0  0  0
    5.8282   -0.0145    0.7562 N   0  3  0  0  0  0  0  0  0  0  0  0
    3.9371    1.3005    1.6253 C   0  0  0  0  0  0  0  0  0  0  0  0
    2.5490    1.8434    1.3155 C   0  0  2  0  0  0  0  0  0  0  0  0
    2.0907    2.5867    2.4807 N   0  3  0  0  0  0  0  0  0  0  0  0
    1.6010    0.6892    0.9984 C   0  0  1  0  0  0  0  0  0  0  0  0
    0.2972    1.2130    0.6790 O   0  0  0  0  0  0  0  0  0  0  0  0
    2.1240   -0.1353   -0.1860 C   0  0  2  0  0  0  0  0  0  0  0  0
    1.2648   -1.2729   -0.3916 O   0  0  0  0  0  0  0  0  0  0  0  0
    3.5428   -0.6388    0.0672 C   0  0  1  0  0  0  0  0  0  0  0  0
    4.0311   -1.2879   -1.0993 O   0  0  0  0  0  0  0  0  0  0  0  0
  1  2  1  0  0  0  0
  3  2  1  6  0  0  0
  3  5  1  0  0  0  0
  3  4  1  0  0  0  0
  4  9  1  0  0  0  0
  5  7  1  0  0  0  0
  5  6  1  1  0  0  0
  7  9  1  0  0  0  0
  7  8  1  1  0  0  0
  9 40  1  6  0  0  0
 10  6  1  1  0  0  0
 10 11  1  0  0  0  0
 10 18  1  0  0  0  0
 11 13  1  0  0  0  0
 11 12  1  6  0  0  0
 13 15  1  0  0  0  0
 13 14  1  6  0  0  0
 15 17  1  0  0  0  0
 15 16  1  1  0  0  0
 17 19  1  6  0  0  0
 17 18  1  0  0  0  0
 19 20  1  0  0  0  0
 21 29  1  0  0  0  0
 22 23  1  0  0  0  0
 22 31  1  0  0  0  0
 22 38  1  6  0  0  0
 23 25  1  0  0  0  0
 23 24  1  1  0  0  0
 25 27  1  0  0  0  0
 25 26  1  6  0  0  0
 27 30  1  0  0  0  0
 27 28  1  6  0  0  0
 30 21  1  6  0  0  0
 30 31  1  0  0  0  0
 32 34  1  0  0  0  0
 32 41  1  0  0  0  0
 32 33  1  1  0  0  0
 34 35  1  0  0  0  0
 35 37  1  0  0  0  0
 35 36  1  1  0  0  0
 37 39  1  0  0  0  0
 37 38  1  6  0  0  0
 39 41  1  0  0  0  0
 39 40  1  1  0  0  0
 41 42  1  6  0  0  0
M  CHG  6  12   1  20   1  24   1  29   1  33   1  36   1
M  END
>  <CHROM.1>
-55.56762580,136.85683661,-104.80648929,-170.36649031,-42.32296898,-173.45804499
167.34853526,-179.72181658,79.15949736,-67.81038165,172.83059190,-172.02432976
-23.28054049,175.53346034,48.89295241,52.33080758,69.71418874,-42.57697693
-174.63060324,24.68135879,-74.42917190,-174.36003377,-0.58392881,-0.62338026
0.71497043,-2.49544598,0.04893594,-0.56220843

>  <Name>
1NEM.B

>  <RI>
0

>  <Rbt.Current_Directory>
/home/itssahil/PROJECTS/Mol_Feturizer/New_Systems/rnas/1nem

>  <Rbt.Executable>
rbdock ($Id: //depot/dev/client3/rdock/2013.1/src/exe/rbdock.cxx#4 $)

>  <Rbt.Library>
libRbt.so (2013.1, Build901 2013/11/27)

>  <Rbt.Parameter_File>
/export/apps/rDock/src/rDock_2013.1_src/data/scripts/dock_solv.prm

>  <Rbt.Receptor>
prm/pocket_docking_4.prm

>  <SCORE>
-22.4349

>  <SCORE.INTER>
-29.2466

>  <SCORE.INTER.CONST>
1

>  <SCORE.INTER.POLAR>
-3.80647

>  <SCORE.INTER.ROT>
9

>  <SCORE.INTER.SOLV>
35.6173

>  <SCORE.INTER.VDW>
-28.2819

>  <SCORE.INTER.norm>
-0.696348

>  <SCORE.INTRA>
6.81175

>  <SCORE.INTRA.DIHEDRAL>
3.04641

>  <SCORE.INTRA.DIHEDRAL.0>
22.4324

>  <SCORE.INTRA.POLAR>
-0.789401

>  <SCORE.INTRA.POLAR.0>
-1.83749

>  <SCORE.INTRA.REPUL>
0.0341325

>  <SCORE.INTRA.REPUL.0>
0

>  <SCORE.INTRA.SOLV>
2.11684

>  <SCORE.INTRA.SOLV.lig_0>
-160.638

>  <SCORE.INTRA.VDW>
6.74343

>  <SCORE.INTRA.VDW.0>
-7.61953

>  <SCORE.INTRA.norm>
0.162184

>  <SCORE.RESTR>
0

>  <SCORE.RESTR.CAVITY>
0

>  <SCORE.RESTR.norm>
0

>  <SCORE.SYSTEM>
0

>  <SCORE.SYSTEM.CONST>
0

>  <SCORE.SYSTEM.DIHEDRAL>
0

>  <SCORE.SYSTEM.SOLV>
0

>  <SCORE.SYSTEM.norm>
0

>  <SCORE.heavy>
42

>  <SCORE.norm>
-0.534163

>  <RMSD>
7.819

$$$$
1NEM.B
 OpenBabel11021811403D
libRbt.so/2013.1/901 2013/11/27
 42 45  0  0  0  0  0  0  0  0999 V2000
   -4.8535    2.3167    2.8829 O   0  0  0  0  0  0  0  0  0  0  0  0
   -4.6073    1.0165    2.3434 C   0  0  0  0  0  0  0  0  0  0  0  0
   -4.0873    1.0533    0.9071 C   0  0  1  0  0  0  0  0  0  0  0  0
   -3.0525    2.0230    0.7708 O   0  0  0  0  0  0  0  0  0  0  0  0
   -3.4216   -0.2313    0.4402 C   0  0  1  0  0  0  0  0  0  0  0  0
   -4.4548   -1.2009    0.2516 O   0  0  0  0  0  0  0  0  0  0  0  0
   -2.7484    0.2928   -0.8144 C   0  0  1  0  0  0  0  0  0  0  0  0
   -3.6927    0.6052   -1.8440 O   0  0  0  0  0  0  0  0  0  0  0  0
   -2.1470    1.5811   -0.2407 C   0  0  2  0  0  0  0  0  0  0  0  0
   -4.3573   -2.3660    1.0199 C   0  0  2  0  0  0  0  0  0  0  0  0
   -4.9390   -3.5447    0.2277 C   0  0  2  0  0  0  0  0  0  0  0  0
   -6.3146   -3.2202   -0.2337 N   0  3  0  0  0  0  0  0  0  0  0  0
   -4.9102   -4.8296    1.0618 C   0  0  1  0  0  0  0  0  0  0  0  0
   -3.5677   -5.2728    1.2100 O   0  0  0  0  0  0  0  0  0  0  0  0
   -5.5330   -4.6061    2.4433 C   0  0  2  0  0  0  0  0  0  0  0  0
   -6.9327   -4.3855    2.3242 O   0  0  0  0  0  0  0  0  0  0  0  0
   -4.8722   -3.4063    3.1162 C   0  0  1  0  0  0  0  0  0  0  0  0
   -5.0093   -2.2430    2.2773 O   0  0  0  0  0  0  0  0  0  0  0  0
   -5.4677   -3.0778    4.4739 C   0  0  0  0  0  0  0  0  0  0  0  0
   -6.7480   -2.3458    4.3530 N   0  3  0  0  0  0  0  0  0  0  0  0
    2.6184    1.1421    3.2606 C   0  0  0  0  0  0  0  0  0  0  0  0
    2.7055   -0.0691   -0.2398 C   0  0  2  0  0  0  0  0  0  0  0  0
    3.1672   -1.5107   -0.0408 C   0  0  2  0  0  0  0  0  0  0  0  0
    2.8364   -2.3249   -1.2346 N   0  3  0  0  0  0  0  0  0  0  0  0
    2.4919   -2.1137    1.1837 C   0  0  1  0  0  0  0  0  0  0  0  0
    2.9872   -3.4256    1.4029 O   0  0  0  0  0  0  0  0  0  0  0  0
    2.7684   -1.2372    2.4032 C   0  0  2  0  0  0  0  0  0  0  0  0
    2.0842   -1.7555    3.5367 O   0  0  0  0  0  0  0  0  0  0  0  0
    2.4244    2.5537    2.8574 N   0  3  0  0  0  0  0  0  0  0  0  0
    2.2956    0.1881    2.1237 C   0  0  2  0  0  0  0  0  0  0  0  0
    2.9370    0.6997    0.9376 O   0  0  0  0  0  0  0  0  0  0  0  0
    0.9550    4.1261   -1.2645 C   0  0  2  0  0  0  0  0  0  0  0  0
    0.4852    5.4148   -1.8227 N   0  3  0  0  0  0  0  0  0  0  0  0
    1.5675    3.2722   -2.3689 C   0  0  0  0  0  0  0  0  0  0  0  0
    2.0532    1.9423   -1.8096 C   0  0  2  0  0  0  0  0  0  0  0  0
    2.6258    1.1785   -2.9092 N   0  3  0  0  0  0  0  0  0  0  0  0
    0.8857    1.1908   -1.1744 C   0  0  1  0  0  0  0  0  0  0  0  0
    1.3590   -0.0534   -0.6227 O   0  0  0  0  0  0  0  0  0  0  0  0
    0.2391    2.0288   -0.0627 C   0  0  2  0  0  0  0  0  0  0  0  0
   -0.9194    1.3381    0.4428 O   0  0  0  0  0  0  0  0  0  0  0  0
   -0.1991    3.3974   -0.5781 C   0  0  1  0  0  0  0  0  0  0  0  0
   -0.6762    4.1823    0.5068 O   0  0  0  0  0  0  0  0  0  0  0  0
  1  2  1  0  0  0  0
  3  2  1  1  0  0  0
  3  5  1  0  0  0  0
  3  4  1  0  0  0  0
  4  9  1  0  0  0  0
  5  7  1  0  0  0  0
  5  6  1  6  0  0  0
  7  9  1  0  0  0  0
  7  8  1  6  0  0  0
  9 40  1  1  0  0  0
 10  6  1  6  0  0  0
 10 11  1  0  0  0  0
 10 18  1  0  0  0  0
 11 13  1  0  0  0  0
 11 12  1  1  0  0  0
 13 15  1  0  0  0  0
 13 14  1  1  0  0  0
 15 17  1  0  0  0  0
 15 16  1  6  0  0  0
 17 19  1  1  0  0  0
 17 18  1  0  0  0  0
 19 20  1  0  0  0  0
 21 29  1  0  0  0  0
 22 23  1  0  0  0  0
 22 31  1  0  0  0  0
 22 38  1  1  0  0  0
 23 25  1  0  0  0  0
 23 24  1  6  0  0  0
 25 27  1  0  0  0  0
 25 26  1  1  0  0  0
 27 30  1  0  0  0  0
 27 28  1  1  0  0  0
 30 21  1  1  0  0  0
 30 31  1  0  0  0  0
 32 34  1  0  0  0  0
 32 41  1  0  0  0  0
 32 33  1  6  0  0  0
 34 35  1  0  0  0  0
 35 37  1  0  0  0  0
 35 36  1  6  0  0  0
 37 39  1  0  0  0  0
 37 38  1  1  0  0  0
 39 41  1  0  0  0  0
 39 40  1  6  0  0  0
 41 42  1  1  0  0  0
M  CHG  6  12   1  20   1  24   1  29   1  33   1  36   1
M  END
>  <CHROM.1>
55.75678264,46.14071627,-120.46263532,-147.89068866,-33.23255702,-124.90928622
26.80840391,-51.91206193,148.47696588,-78.56376977,55.10957868,167.62754693
74.00637687,-164.63365447,143.75622841,75.34290483,-70.87051219,-168.01238117
19.56383387,26.83594782,-87.42989013,103.62661505,-1.31815970,-0.27742973
0.75835285,2.55220723,-0.07759956,2.79387440

>  <Name>
1NEM.B

>  <RI>
0

>  <Rbt.Current_Directory>
/home/itssahil/PROJECTS/Mol_Feturizer/New_Systems/rnas/1nem

>  <Rbt.Executable>
rbdock ($Id: //depot/dev/client3/rdock/2013.1/src/exe/rbdock.cxx#4 $)

>  <Rbt.Library>
libRbt.so (2013.1, Build901 2013/11/27)

>  <Rbt.Parameter_File>
/export/apps/rDock/src/rDock_2013.1_src/data/scripts/dock_solv.prm

>  <Rbt.Receptor>
prm/pocket_docking_3.prm

>  <SCORE>
-10.4232

>  <SCORE.INTER>
-35.9483

>  <SCORE.INTER.CONST>
1

>  <SCORE.INTER.POLAR>
-7.90757

>  <SCORE.INTER.ROT>
9

>  <SCORE.INTER.SOLV>
42.7766

>  <SCORE.INTER.VDW>
-21.4658

>  <SCORE.INTER.norm>
-0.855912

>  <SCORE.INTRA>
22.7092

>  <SCORE.INTRA.DIHEDRAL>
29.2922

>  <SCORE.INTRA.DIHEDRAL.0>
22.4324

>  <SCORE.INTRA.POLAR>
0.478648

>  <SCORE.INTRA.POLAR.0>
-1.83749

>  <SCORE.INTRA.REPUL>
0

>  <SCORE.INTRA.REPUL.0>
0

>  <SCORE.INTRA.SOLV>
-2.57555

>  <SCORE.INTRA.SOLV.lig_0>
-160.638

>  <SCORE.INTRA.VDW>
7.72345

>  <SCORE.INTRA.VDW.0>
-7.61953

>  <SCORE.INTRA.norm>
0.540695

>  <SCORE.RESTR>
2.81592

>  <SCORE.RESTR.CAVITY>
2.81592

>  <SCORE.RESTR.norm>
0.0670457

>  <SCORE.SYSTEM>
0

>  <SCORE.SYSTEM.CONST>
0

>  <SCORE.SYSTEM.DIHEDRAL>
0

>  <SCORE.SYSTEM.SOLV>
0

>  <SCORE.SYSTEM.norm>
0

>  <SCORE.heavy>
42

>  <SCORE.norm>
-0.248172

>  <RMSD>
7.827

$$$$
1NEM.B
 OpenBabel11021811403D
libRbt.so/2013.1/901 2013/11/27
 42 45  0  0  0  0  0  0  0  0999 V2000
    0.1720    0.7724   -3.4234 O   0  0  0  0  0  0  0  0  0  0  0  0
   -0.2049    0.3276   -2.1187 C   0  0  0  0  0  0  0  0  0  0  0  0
    0.9878   -0.1007   -1.2649 C   0  0  1  0  0  0  0  0  0  0  0  0
    1.9377    0.9558   -1.1605 O   0  0  0  0  0  0  0  0  0  0  0  0
    0.6517   -0.4087    0.1855 C   0  0  1  0  0  0  0  0  0  0  0  0
   -0.0592   -1.6487    0.2027 O   0  0  0  0  0  0  0  0  0  0  0  0
    2.0574   -0.4269    0.7560 C   0  0  1  0  0  0  0  0  0  0  0  0
    2.8070   -1.5620    0.3100 O   0  0  0  0  0  0  0  0  0  0  0  0
    2.5955    0.8514    0.1024 C   0  0  2  0  0  0  0  0  0  0  0  0
   -1.0112   -1.8017    1.2164 C   0  0  2  0  0  0  0  0  0  0  0  0
   -1.1990   -3.2958    1.5129 C   0  0  2  0  0  0  0  0  0  0  0  0
   -1.5072   -4.0304    0.2576 N   0  3  0  0  0  0  0  0  0  0  0  0
   -2.2831   -3.5091    2.5743 C   0  0  1  0  0  0  0  0  0  0  0  0
   -1.8075   -3.0664    3.8386 O   0  0  0  0  0  0  0  0  0  0  0  0
   -3.5657   -2.7529    2.2143 C   0  0  2  0  0  0  0  0  0  0  0  0
   -4.1790   -3.3366    1.0718 O   0  0  0  0  0  0  0  0  0  0  0  0
   -3.2377   -1.2884    1.9381 C   0  0  1  0  0  0  0  0  0  0  0  0
   -2.2566   -1.2007    0.8865 O   0  0  0  0  0  0  0  0  0  0  0  0
   -4.4478   -0.4722    1.5191 C   0  0  0  0  0  0  0  0  0  0  0  0
   -5.0086   -0.9370    0.2310 N   0  3  0  0  0  0  0  0  0  0  0  0
    5.0061   -0.7920    4.8378 C   0  0  0  0  0  0  0  0  0  0  0  0
    2.5806    1.7073    3.5735 C   0  0  2  0  0  0  0  0  0  0  0  0
    1.7322    1.9501    4.8194 C   0  0  2  0  0  0  0  0  0  0  0  0
    0.9992    3.2330    4.6991 N   0  3  0  0  0  0  0  0  0  0  0  0
    2.6176    1.9894    6.0578 C   0  0  1  0  0  0  0  0  0  0  0  0
    1.8103    2.1378    7.2157 O   0  0  0  0  0  0  0  0  0  0  0  0
    3.4306    0.6997    6.1458 C   0  0  2  0  0  0  0  0  0  0  0  0
    4.3106    0.7577    7.2611 O   0  0  0  0  0  0  0  0  0  0  0  0
    4.3095   -1.8159    4.0259 N   0  3  0  0  0  0  0  0  0  0  0  0
    4.2377    0.5179    4.8618 C   0  0  2  0  0  0  0  0  0  0  0  0
    3.3586    0.5221    3.7186 O   0  0  0  0  0  0  0  0  0  0  0  0
    5.1133    4.1226   -0.3368 C   0  0  2  0  0  0  0  0  0  0  0  0
    5.8859    4.1033   -1.6002 N   0  3  0  0  0  0  0  0  0  0  0  0
    6.0312    3.8115    0.8400 C   0  0  0  0  0  0  0  0  0  0  0  0
    5.2495    3.8257    2.1462 C   0  0  2  0  0  0  0  0  0  0  0  0
    6.1792    3.5244    3.2255 N   0  3  0  0  0  0  0  0  0  0  0  0
    4.1277    2.7915    2.0891 C   0  0  1  0  0  0  0  0  0  0  0  0
    3.3755    2.8309    3.3175 O   0  0  0  0  0  0  0  0  0  0  0  0
    3.1893    3.0707    0.9069 C   0  0  2  0  0  0  0  0  0  0  0  0
    2.2069    2.0211    0.8194 O   0  0  0  0  0  0  0  0  0  0  0  0
    3.9552    3.1291   -0.4125 C   0  0  1  0  0  0  0  0  0  0  0  0
    3.0710    3.5113   -1.4577 O   0  0  0  0  0  0  0  0  0  0  0  0
  1  2  1  0  0  0  0
  3  2  1  6  0  0  0
  3  5  1  0  0  0  0
  3  4  1  0  0  0  0
  4  9  1  0  0  0  0
  5  7  1  0  0  0  0
  5  6  1  6  0  0  0
  7  9  1  0  0  0  0
  7  8  1  6  0  0  0
  9 40  1  1  0  0  0
 10  6  1  6  0  0  0
 10 11  1  0  0  0  0
 10 18  1  0  0  0  0
 11 13  1  0  0  0  0
 11 12  1  6  0  0  0
 13 15  1  0  0  0  0
 13 14  1  1  0  0  0
 15 17  1  0  0  0  0
 15 16  1  6  0  0  0
 17 19  1  6  0  0  0
 17 18  1  0  0  0  0
 19 20  1  0  0  0  0
 21 29  1  0  0  0  0
 22 23  1  0  0  0  0
 22 31  1  0  0  0  0
 22 38  1  1  0  0  0
 23 25  1  0  0  0  0
 23 24  1  6  0  0  0
 25 27  1  0  0  0  0
 25 26  1  1  0  0  0
 27 30  1  0  0  0  0
 27 28  1  1  0  0  0
 30 21  1  1  0  0  0
 30 31  1  0  0  0  0
 32 34  1  0  0  0  0
 32 41  1  0  0  0  0
 32 33  1  6  0  0  0
 34 35  1  0  0  0  0
 35 37  1  0  0  0  0
 35 36  1  1  0  0  0
 37 39  1  0  0  0  0
 37 38  1  1  0  0  0
 39 41  1  0  0  0  0
 39 40  1  6  0  0  0
 41 42  1  6  0  0  0
M  CHG  6  12   1  20   1  24   1  29   1  33   1  36   1
M  END
>  <CHROM.1>
59.89377691,56.25483519,-148.78426508,-154.12080239,-171.91741670,-103.35208801
-8.45983517,-48.61548808,-58.75977988,-64.08010438,166.89135442,100.31996249
133.55000431,-173.90571440,69.33000648,-175.10086566,-53.52421539,72.12268771
177.80789736,-162.25256210,-84.90915076,177.69892749,1.49191910,0.47446281
1.83470176,-3.06313411,0.61911698,1.77425941

>  <Name>
1NEM.B

>  <RI>
0

>  <Rbt.Current_Directory>
/home/itssahil/PROJECTS/Mol_Feturizer/New_Systems/rnas/1nem

>  <Rbt.Executable>
rbdock ($Id: //depot/dev/client3/rdock/2013.1/src/exe/rbdock.cxx#4 $)

>  <Rbt.Library>
libRbt.so (2013.1, Build901 2013/11/27)

>  <Rbt.Parameter_File>
/export/apps/rDock/src/rDock_2013.1_src/data/scripts/dock_solv.prm

>  <Rbt.Receptor>
prm/pocket_docking_5.prm

>  <SCORE>
-36.3419

>  <SCORE.INTER>
-44.4212

>  <SCORE.INTER.CONST>
1

>  <SCORE.INTER.POLAR>
-7.261

>  <SCORE.INTER.ROT>
9

>  <SCORE.INTER.SOLV>
44.168

>  <SCORE.INTER.VDW>
-29.7335

>  <SCORE.INTER.norm>
-1.05765

>  <SCORE.INTRA>
8.07597

>  <SCORE.INTRA.DIHEDRAL>
7.78285

>  <SCORE.INTRA.DIHEDRAL.0>
22.4324

>  <SCORE.INTRA.POLAR>
0.0867708

>  <SCORE.INTRA.POLAR.0>
-1.83749

>  <SCORE.INTRA.REPUL>
0

>  <SCORE.INTRA.REPUL.0>
0

>  <SCORE.INTRA.SOLV>
-4.27559

>  <SCORE.INTRA.SOLV.lig_0>
-160.638

>  <SCORE.INTRA.VDW>
6.02732

>  <SCORE.INTRA.VDW.0>
-7.61953

>  <SCORE.INTRA.norm>
0.192285

>  <SCORE.RESTR>
0.00328069

>  <SCORE.RESTR.CAVITY>
0.00328069

>  <SCORE.RESTR.norm>
7.81117e-05

>  <SCORE.SYSTEM>
0

>  <SCORE.SYSTEM.CONST>
0

>  <SCORE.SYSTEM.DIHEDRAL>
0

>  <SCORE.SYSTEM.SOLV>
0

>  <SCORE.SYSTEM.norm>
0

>  <SCORE.heavy>
42

>  <SCORE.norm>
-0.865284

>  <RMSD>
7.830

$$$$
1NEM.B
 OpenBabel11021811403D
libRbt.so/2013.1/901 2013/11/27
 42 45  0  0  0  0  0  0  0  0999 V2000
    0.7064   -0.8683   -0.1612 O   0  0  0  0  0  0  0  0  0  0  0  0
    1.4724   -2.0746   -0.1677 C   0  0  0  0  0  0  0  0  0  0  0  0
    2.2509   -2.2960    1.1283 C   0  0  1  0  0  0  0  0  0  0  0  0
    3.4206   -1.4832    1.1582 O   0  0  0  0  0  0  0  0  0  0  0  0
    1.5110   -1.8843    2.3911 C   0  0  1  0  0  0  0  0  0  0  0  0
    0.4798   -2.8491    2.6127 O   0  0  0  0  0  0  0  0  0  0  0  0
    2.6748   -1.9023    3.3644 C   0  0  1  0  0  0  0  0  0  0  0  0
    3.1348   -3.2311    3.6322 O   0  0  0  0  0  0  0  0  0  0  0  0
    3.7052   -1.1473    2.5164 C   0  0  2  0  0  0  0  0  0  0  0  0
   -0.8216   -2.3484    2.7261 C   0  0  2  0  0  0  0  0  0  0  0  0
   -1.7430   -3.4512    3.2648 C   0  0  2  0  0  0  0  0  0  0  0  0
   -1.6203   -4.6732    2.4270 N   0  3  0  0  0  0  0  0  0  0  0  0
   -3.1926   -2.9611    3.3421 C   0  0  1  0  0  0  0  0  0  0  0  0
   -3.3186   -2.0050    4.3863 O   0  0  0  0  0  0  0  0  0  0  0  0
   -3.6362   -2.3354    2.0162 C   0  0  2  0  0  0  0  0  0  0  0  0
   -3.7353   -3.3332    1.0078 O   0  0  0  0  0  0  0  0  0  0  0  0
   -2.6339   -1.2652    1.5930 C   0  0  1  0  0  0  0  0  0  0  0  0
   -1.3185   -1.8446    1.4931 O   0  0  0  0  0  0  0  0  0  0  0  0
   -2.9677   -0.6270    0.2560 C   0  0  0  0  0  0  0  0  0  0  0  0
   -3.1510   -1.6385   -0.8084 N   0  3  0  0  0  0  0  0  0  0  0  0
    1.6310    2.6166    4.7522 C   0  0  0  0  0  0  0  0  0  0  0  0
    1.8295    1.8114    1.1412 C   0  0  2  0  0  0  0  0  0  0  0  0
    0.6508    2.6139    0.5957 C   0  0  2  0  0  0  0  0  0  0  0  0
    0.8025    2.8205   -0.8644 N   0  3  0  0  0  0  0  0  0  0  0  0
    0.5703    3.9665    1.2908 C   0  0  1  0  0  0  0  0  0  0  0  0
   -0.5732    4.6705    0.8314 O   0  0  0  0  0  0  0  0  0  0  0  0
    0.4887    3.7605    2.8017 C   0  0  2  0  0  0  0  0  0  0  0  0
    0.4830    5.0197    3.4620 O   0  0  0  0  0  0  0  0  0  0  0  0
    2.4170    1.4040    5.0758 N   0  3  0  0  0  0  0  0  0  0  0  0
    1.6886    2.9392    3.2692 C   0  0  2  0  0  0  0  0  0  0  0  0
    1.7391    1.6857    2.5579 O   0  0  0  0  0  0  0  0  0  0  0  0
    6.8365    2.0667    2.5983 C   0  0  2  0  0  0  0  0  0  0  0  0
    7.9020    2.1407    3.6243 N   0  3  0  0  0  0  0  0  0  0  0  0
    6.2767    3.4585    2.3271 C   0  0  0  0  0  0  0  0  0  0  0  0
    5.1781    3.3975    1.2752 C   0  0  2  0  0  0  0  0  0  0  0  0
    4.6891    4.7523    1.0620 N   0  3  0  0  0  0  0  0  0  0  0  0
    4.0539    2.4818    1.7538 C   0  0  1  0  0  0  0  0  0  0  0  0
    3.0316    2.4071    0.7411 O   0  0  0  0  0  0  0  0  0  0  0  0
    4.5868    1.0722    2.0459 C   0  0  2  0  0  0  0  0  0  0  0  0
    3.5266    0.2653    2.5930 O   0  0  0  0  0  0  0  0  0  0  0  0
    5.7369    1.1068    3.0494 C   0  0  1  0  0  0  0  0  0  0  0  0
    6.2789   -0.1992    3.1948 O   0  0  0  0  0  0  0  0  0  0  0  0
  1  2  1  0  0  0  0
  3  2  1  6  0  0  0
  3  5  1  0  0  0  0
  3  4  1  0  0  0  0
  4  9  1  0  0  0  0
  5  7  1  0  0  0  0
  5  6  1  1  0  0  0
  7  9  1  0  0  0  0
  7  8  1  6  0  0  0
  9 40  1  6  0  0  0
 10  6  1  6  0  0  0
 10 11  1  0  0  0  0
 10 18  1  0  0  0  0
 11 13  1  0  0  0  0
 11 12  1  6  0  0  0
 13 15  1  0  0  0  0
 13 14  1  1  0  0  0
 15 17  1  0  0  0  0
 15 16  1  6  0  0  0
 17 19  1  6  0  0  0
 17 18  1  0  0  0  0
 19 20  1  0  0  0  0
 21 29  1  0  0  0  0
 22 23  1  0  0  0  0
 22 31  1  0  0  0  0
 22 38  1  1  0  0  0
 23 25  1  0  0  0  0
 23 24  1  6  0  0  0
 25 27  1  0  0  0  0
 25 26  1  6  0  0  0
 27 30  1  0  0  0  0
 27 28  1  1  0  0  0
 30 21  1  1  0  0  0
 30 31  1  0  0  0  0
 32 34  1  0  0  0  0
 32 41  1  0  0  0  0
 32 33  1  1  0  0  0
 34 35  1  0  0  0  0
 35 37  1  0  0  0  0
 35 36  1  1  0  0  0
 37 39  1  0  0  0  0
 37 38  1  6  0  0  0
 39 41  1  0  0  0  0
 39 40  1  1  0  0  0
 41 42  1  6  0  0  0
M  CHG  6  12   1  20   1  24   1  29   1  33   1  36   1
M  END
>  <CHROM.1>
-159.07394970,-77.92592626,-124.53755750,-167.50619966,77.81517618,-76.82252504
48.64019463,175.88770984,71.74663720,-53.38109353,-60.10416298,155.77526519
37.96645195,137.49661880,-67.81428094,-60.16187552,-68.17781317,62.41584417
-72.80185230,-168.35952665,160.25540368,157.94810625,1.43267449,0.27781280
2.06532191,2.53301832,0.20512746,2.96361709

>  <Name>
1NEM.B

>  <RI>
0

>  <Rbt.Current_Directory>
/home/itssahil/PROJECTS/Mol_Feturizer/New_Systems/rnas/1nem

>  <Rbt.Executable>
rbdock ($Id: //depot/dev/client3/rdock/2013.1/src/exe/rbdock.cxx#4 $)

>  <Rbt.Library>
libRbt.so (2013.1, Build901 2013/11/27)

>  <Rbt.Parameter_File>
/export/apps/rDock/src/rDock_2013.1_src/data/scripts/dock_solv.prm

>  <Rbt.Receptor>
prm/pocket_docking_4.prm

>  <SCORE>
-27.1318

>  <SCORE.INTER>
-38.5714

>  <SCORE.INTER.CONST>
1

>  <SCORE.INTER.POLAR>
-5.98838

>  <SCORE.INTER.ROT>
9

>  <SCORE.INTER.SOLV>
35.6855

>  <SCORE.INTER.VDW>
-27.2482

>  <SCORE.INTER.norm>
-0.918366

>  <SCORE.INTRA>
10.6373

>  <SCORE.INTRA.DIHEDRAL>
6.59118

>  <SCORE.INTRA.DIHEDRAL.0>
22.4324

>  <SCORE.INTRA.POLAR>
0.402834

>  <SCORE.INTRA.POLAR.0>
-1.83749

>  <SCORE.INTRA.REPUL>
0.0904586

>  <SCORE.INTRA.REPUL.0>
0

>  <SCORE.INTRA.SOLV>
2.04185

>  <SCORE.INTRA.SOLV.lig_0>
-160.638

>  <SCORE.INTRA.VDW>
4.4989

>  <SCORE.INTRA.VDW.0>
-7.61953

>  <SCORE.INTRA.norm>
0.25327

>  <SCORE.RESTR>
0.802235

>  <SCORE.RESTR.CAVITY>
0.802235

>  <SCORE.RESTR.norm>
0.0191008

>  <SCORE.SYSTEM>
0

>  <SCORE.SYSTEM.CONST>
0

>  <SCORE.SYSTEM.DIHEDRAL>
0

>  <SCORE.SYSTEM.SOLV>
0

>  <SCORE.SYSTEM.norm>
0

>  <SCORE.heavy>
42

>  <SCORE.norm>
-0.645995

>  <RMSD>
7.840

$$$$
1NEM.B
 OpenBabel11021811403D
libRbt.so/2013.1/901 2013/11/27
 42 45  0  0  0  0  0  0  0  0999 V2000
   -4.5777    0.0248    2.4939 O   0  0  0  0  0  0  0  0  0  0  0  0
   -4.7402   -1.2874    1.9520 C   0  0  0  0  0  0  0  0  0  0  0  0
   -3.4824   -1.8081    1.2580 C   0  0  1  0  0  0  0  0  0  0  0  0
   -3.0475   -0.8964    0.2534 O   0  0  0  0  0  0  0  0  0  0  0  0
   -2.2657   -1.9343    2.1610 C   0  0  1  0  0  0  0  0  0  0  0  0
   -2.4917   -3.0509    3.0245 O   0  0  0  0  0  0  0  0  0  0  0  0
   -1.1977   -2.1070    1.0973 C   0  0  1  0  0  0  0  0  0  0  0  0
   -1.2914   -3.3742    0.4382 O   0  0  0  0  0  0  0  0  0  0  0  0
   -1.6264   -0.9837    0.1459 C   0  0  2  0  0  0  0  0  0  0  0  0
   -3.6765   -3.0278    3.7681 C   0  0  2  0  0  0  0  0  0  0  0  0
   -3.3433   -3.2002    5.2563 C   0  0  2  0  0  0  0  0  0  0  0  0
   -2.5106   -4.4156    5.4554 N   0  3  0  0  0  0  0  0  0  0  0  0
   -4.6217   -3.2455    6.0996 C   0  0  1  0  0  0  0  0  0  0  0  0
   -5.2197   -1.9563    6.1303 O   0  0  0  0  0  0  0  0  0  0  0  0
   -5.6199   -4.2617    5.5363 C   0  0  2  0  0  0  0  0  0  0  0  0
   -5.1282   -5.5848    5.7087 O   0  0  0  0  0  0  0  0  0  0  0  0
   -5.8554   -3.9827    4.0546 C   0  0  1  0  0  0  0  0  0  0  0  0
   -4.6005   -4.0230    3.3477 O   0  0  0  0  0  0  0  0  0  0  0  0
   -6.7947   -4.9798    3.3991 C   0  0  0  0  0  0  0  0  0  0  0  0
   -6.2208   -6.3435    3.3714 N   0  3  0  0  0  0  0  0  0  0  0  0
    5.7793    1.0014    1.2568 C   0  0  0  0  0  0  0  0  0  0  0  0
    2.7087   -1.0507    0.9615 C   0  0  2  0  0  0  0  0  0  0  0  0
    2.6742   -1.7269    2.3300 C   0  0  2  0  0  0  0  0  0  0  0  0
    1.3103   -2.2305    2.6193 N   0  3  0  0  0  0  0  0  0  0  0  0
    3.0877   -0.7400    3.4135 C   0  0  1  0  0  0  0  0  0  0  0  0
    3.1267   -1.4005    4.6692 O   0  0  0  0  0  0  0  0  0  0  0  0
    4.4615   -0.1621    3.0810 C   0  0  2  0  0  0  0  0  0  0  0  0
    4.8246    0.8115    4.0514 O   0  0  0  0  0  0  0  0  0  0  0  0
    6.7350   -0.1048    1.0201 N   0  3  0  0  0  0  0  0  0  0  0  0
    4.4218    0.4809    1.6961 C   0  0  2  0  0  0  0  0  0  0  0  0
    3.9924   -0.4835    0.7136 O   0  0  0  0  0  0  0  0  0  0  0  0
    0.1810    1.7083   -2.6572 C   0  0  2  0  0  0  0  0  0  0  0  0
   -0.4547    1.8610   -3.9861 N   0  3  0  0  0  0  0  0  0  0  0  0
    1.3958    0.7933   -2.7629 C   0  0  0  0  0  0  0  0  0  0  0  0
    2.0586    0.6252   -1.4028 C   0  0  2  0  0  0  0  0  0  0  0  0
    3.2070   -0.2539   -1.5720 N   0  3  0  0  0  0  0  0  0  0  0  0
    1.0607    0.0326   -0.4107 C   0  0  1  0  0  0  0  0  0  0  0  0
    1.6870   -0.0969    0.8805 O   0  0  0  0  0  0  0  0  0  0  0  0
   -0.1813    0.9264   -0.2882 C   0  0  2  0  0  0  0  0  0  0  0  0
   -1.1447    0.2889    0.5721 O   0  0  0  0  0  0  0  0  0  0  0  0
   -0.8313    1.1688   -1.6480 C   0  0  1  0  0  0  0  0  0  0  0  0
   -1.8981    2.0973   -1.5051 O   0  0  0  0  0  0  0  0  0  0  0  0
  1  2  1  0  0  0  0
  3  2  1  1  0  0  0
  3  5  1  0  0  0  0
  3  4  1  0  0  0  0
  4  9  1  0  0  0  0
  5  7  1  0  0  0  0
  5  6  1  1  0  0  0
  7  9  1  0  0  0  0
  7  8  1  6  0  0  0
  9 40  1  1  0  0  0
 10  6  1  6  0  0  0
 10 11  1  0  0  0  0
 10 18  1  0  0  0  0
 11 13  1  0  0  0  0
 11 12  1  6  0  0  0
 13 15  1  0  0  0  0
 13 14  1  6  0  0  0
 15 17  1  0  0  0  0
 15 16  1  6  0  0  0
 17 19  1  6  0  0  0
 17 18  1  0  0  0  0
 19 20  1  0  0  0  0
 21 29  1  0  0  0  0
 22 23  1  0  0  0  0
 22 31  1  0  0  0  0
 22 38  1  1  0  0  0
 23 25  1  0  0  0  0
 23 24  1  1  0  0  0
 25 27  1  0  0  0  0
 25 26  1  1  0  0  0
 27 30  1  0  0  0  0
 27 28  1  1  0  0  0
 30 21  1  6  0  0  0
 30 31  1  0  0  0  0
 32 34  1  0  0  0  0
 32 41  1  0  0  0  0
 32 33  1  6  0  0  0
 34 35  1  0  0  0  0
 35 37  1  0  0  0  0
 35 36  1  6  0  0  0
 37 39  1  0  0  0  0
 37 38  1  1  0  0  0
 39 41  1  0  0  0  0
 39 40  1  1  0  0  0
 41 42  1  1  0  0  0
M  CHG  6  12   1  20   1  24   1  29   1  33   1  36   1
M  END
>  <CHROM.1>
47.11514094,-55.02866274,-54.72000738,-125.63798346,-174.70085820,-131.06309531
-151.45902119,63.40842953,-70.56949190,-65.21152024,-16.80745167,67.63068465
-178.12048156,-144.06553494,169.26393331,53.41068907,176.71751540,33.14957291
37.91503412,-68.03855780,-60.50340298,-177.26162754,-0.71179568,-1.38055298
1.82292008,2.55278980,0.20703909,2.09238328

>  <Name>
1NEM.B

>  <RI>
0

>  <Rbt.Current_Directory>
/home/itssahil/PROJECTS/Mol_Feturizer/New_Systems/rnas/1nem

>  <Rbt.Executable>
rbdock ($Id: //depot/dev/client3/rdock/2013.1/src/exe/rbdock.cxx#4 $)

>  <Rbt.Library>
libRbt.so (2013.1, Build901 2013/11/27)

>  <Rbt.Parameter_File>
/export/apps/rDock/src/rDock_2013.1_src/data/scripts/dock_solv.prm

>  <Rbt.Receptor>
prm/pocket_docking_5.prm

>  <SCORE>
-19.6069

>  <SCORE.INTER>
-39.8917

>  <SCORE.INTER.CONST>
1

>  <SCORE.INTER.POLAR>
-5.88503

>  <SCORE.INTER.ROT>
9

>  <SCORE.INTER.SOLV>
40.2473

>  <SCORE.INTER.VDW>
-29.9935

>  <SCORE.INTER.norm>
-0.949803

>  <SCORE.INTRA>
20.2848

>  <SCORE.INTRA.DIHEDRAL>
6.75462

>  <SCORE.INTRA.DIHEDRAL.0>
22.4324

>  <SCORE.INTRA.POLAR>
1.01054

>  <SCORE.INTRA.POLAR.0>
-1.83749

>  <SCORE.INTRA.REPUL>
0

>  <SCORE.INTRA.REPUL.0>
0

>  <SCORE.INTRA.SOLV>
4.89135

>  <SCORE.INTRA.SOLV.lig_0>
-160.638

>  <SCORE.INTRA.VDW>
11.026

>  <SCORE.INTRA.VDW.0>
-7.61953

>  <SCORE.INTRA.norm>
0.482972

>  <SCORE.RESTR>
0

>  <SCORE.RESTR.CAVITY>
0

>  <SCORE.RESTR.norm>
0

>  <SCORE.SYSTEM>
0

>  <SCORE.SYSTEM.CONST>
0

>  <SCORE.SYSTEM.DIHEDRAL>
0

>  <SCORE.SYSTEM.SOLV>
0

>  <SCORE.SYSTEM.norm>
0

>  <SCORE.heavy>
42

>  <SCORE.norm>
-0.466832

>  <RMSD>
7.852

$$$$
1NEM.B
 OpenBabel11021811403D
libRbt.so/2013.1/901 2013/11/27
 42 45  0  0  0  0  0  0  0  0999 V2000
   -2.6798   -2.4660    0.2020 O   0  0  0  0  0  0  0  0  0  0  0  0
   -2.1134   -3.7718    0.0740 C   0  0  0  0  0  0  0  0  0  0  0  0
   -0.7895   -3.9256    0.8212 C   0  0  1  0  0  0  0  0  0  0  0  0
    0.2601   -3.2556    0.1290 O   0  0  0  0  0  0  0  0  0  0  0  0
   -0.7603   -3.2837    2.1991 C   0  0  1  0  0  0  0  0  0  0  0  0
   -1.5680   -4.0896    3.0602 O   0  0  0  0  0  0  0  0  0  0  0  0
    0.7362   -3.3198    2.4460 C   0  0  1  0  0  0  0  0  0  0  0  0
    1.2170   -4.6514    2.6575 O   0  0  0  0  0  0  0  0  0  0  0  0
    1.2139   -2.7954    1.0867 C   0  0  2  0  0  0  0  0  0  0  0  0
   -2.8655   -3.6262    3.3034 C   0  0  2  0  0  0  0  0  0  0  0  0
   -2.9733   -3.1665    4.7636 C   0  0  2  0  0  0  0  0  0  0  0  0
   -2.5219   -4.2512    5.6748 N   0  3  0  0  0  0  0  0  0  0  0  0
   -4.3999   -2.7117    5.0883 C   0  0  1  0  0  0  0  0  0  0  0  0
   -4.6728   -1.4848    4.4244 O   0  0  0  0  0  0  0  0  0  0  0  0
   -5.4266   -3.7657    4.6625 C   0  0  2  0  0  0  0  0  0  0  0  0
   -5.3133   -4.9240    5.4796 O   0  0  0  0  0  0  0  0  0  0  0  0
   -5.2043   -4.1371    3.1991 C   0  0  1  0  0  0  0  0  0  0  0  0
   -3.8543   -4.6068    3.0173 O   0  0  0  0  0  0  0  0  0  0  0  0
   -6.1477   -5.2200    2.7058 C   0  0  0  0  0  0  0  0  0  0  0  0
   -7.4285   -4.6585    2.2222 N   0  3  0  0  0  0  0  0  0  0  0  0
   -2.0798    2.5742    0.9891 C   0  0  0  0  0  0  0  0  0  0  0  0
    0.7013    0.6970   -0.5821 C   0  0  2  0  0  0  0  0  0  0  0  0
    0.6064    1.1844   -2.0259 C   0  0  2  0  0  0  0  0  0  0  0  0
    1.8830    0.9348   -2.7368 N   0  3  0  0  0  0  0  0  0  0  0  0
    0.2948    2.6747   -2.0572 C   0  0  1  0  0  0  0  0  0  0  0  0
    0.1325    3.0990   -3.4019 O   0  0  0  0  0  0  0  0  0  0  0  0
   -0.9807    2.9469   -1.2628 C   0  0  2  0  0  0  0  0  0  0  0  0
   -1.2406    4.3443   -1.2290 O   0  0  0  0  0  0  0  0  0  0  0  0
   -3.1967    1.7781    0.4308 N   0  3  0  0  0  0  0  0  0  0  0  0
   -0.8161    2.4190    0.1611 C   0  0  2  0  0  0  0  0  0  0  0  0
   -0.4887    1.0148    0.1347 O   0  0  0  0  0  0  0  0  0  0  0  0
    3.7932   -0.2878    3.4751 C   0  0  2  0  0  0  0  0  0  0  0  0
    4.0367   -0.6891    4.8798 N   0  3  0  0  0  0  0  0  0  0  0  0
    3.4930    1.2051    3.4043 C   0  0  0  0  0  0  0  0  0  0  0  0
    3.2381    1.6317    1.9654 C   0  0  2  0  0  0  0  0  0  0  0  0
    2.9606    3.0611    1.9665 N   0  3  0  0  0  0  0  0  0  0  0  0
    2.0583    0.8483    1.3948 C   0  0  1  0  0  0  0  0  0  0  0  0
    1.8416    1.2373    0.0244 O   0  0  0  0  0  0  0  0  0  0  0  0
    2.3246   -0.6620    1.4606 C   0  0  2  0  0  0  0  0  0  0  0  0
    1.1544   -1.3727    1.0133 O   0  0  0  0  0  0  0  0  0  0  0  0
    2.6498   -1.1103    2.8832 C   0  0  1  0  0  0  0  0  0  0  0  0
    3.0099   -2.4854    2.8766 O   0  0  0  0  0  0  0  0  0  0  0  0
  1  2  1  0  0  0  0
  3  2  1  6  0  0  0
  3  5  1  0  0  0  0
  3  4  1  0  0  0  0
  4  9  1  0  0  0  0
  5  7  1  0  0  0  0
  5  6  1  1  0  0  0
  7  9  1  0  0  0  0
  7  8  1  6  0  0  0
  9 40  1  1  0  0  0
 10  6  1  1  0  0  0
 10 11  1  0  0  0  0
 10 18  1  0  0  0  0
 11 13  1  0  0  0  0
 11 12  1  1  0  0  0
 13 15  1  0  0  0  0
 13 14  1  6  0  0  0
 15 17  1  0  0  0  0
 15 16  1  1  0  0  0
 17 19  1  1  0  0  0
 17 18  1  0  0  0  0
 19 20  1  0  0  0  0
 21 29  1  0  0  0  0
 22 23  1  0  0  0  0
 22 31  1  0  0  0  0
 22 38  1  1  0  0  0
 23 25  1  0  0  0  0
 23 24  1  1  0  0  0
 25 27  1  0  0  0  0
 25 26  1  6  0  0  0
 27 30  1  0  0  0  0
 27 28  1  1  0  0  0
 30 21  1  1  0  0  0
 30 31  1  0  0  0  0
 32 34  1  0  0  0  0
 32 41  1  0  0  0  0
 32 33  1  1  0  0  0
 34 35  1  0  0  0  0
 35 37  1  0  0  0  0
 35 36  1  1  0  0  0
 37 39  1  0  0  0  0
 37 38  1  6  0  0  0
 39 41  1  0  0  0  0
 39 40  1  1  0  0  0
 41 42  1  6  0  0  0
M  CHG  6  12   1  20   1  24   1  29   1  33   1  36   1
M  END
>  <CHROM.1>
60.75479592,-74.32239541,-99.96663596,-110.62232566,-49.38497536,-156.67483910
-28.63869432,-148.87903894,-71.62413982,86.48293726,-57.02377428,63.17952472
-173.04346590,-179.58076628,-178.60560798,-172.23171731,-163.42947936,170.22094557
-149.20867343,-173.66805336,-176.54912119,-52.84658431,-0.74042427,-1.16903832
1.68896449,2.27234544,0.19156115,2.41890032

>  <Name>
1NEM.B

>  <RI>
0

>  <Rbt.Current_Directory>
/home/itssahil/PROJECTS/Mol_Feturizer/New_Systems/rnas/1nem

>  <Rbt.Executable>
rbdock ($Id: //depot/dev/client3/rdock/2013.1/src/exe/rbdock.cxx#4 $)

>  <Rbt.Library>
libRbt.so (2013.1, Build901 2013/11/27)

>  <Rbt.Parameter_File>
/export/apps/rDock/src/rDock_2013.1_src/data/scripts/dock_solv.prm

>  <Rbt.Receptor>
prm/pocket_docking_3.prm

>  <SCORE>
-28.4191

>  <SCORE.INTER>
-45.2224

>  <SCORE.INTER.CONST>
1

>  <SCORE.INTER.POLAR>
-6.42594

>  <SCORE.INTER.ROT>
9

>  <SCORE.INTER.SOLV>
35.7172

>  <SCORE.INTER.VDW>
-30.2342

>  <SCORE.INTER.norm>
-1.07672

>  <SCORE.INTRA>
15.8258

>  <SCORE.INTRA.DIHEDRAL>
6.50906

>  <SCORE.INTRA.DIHEDRAL.0>
22.4324

>  <SCORE.INTRA.POLAR>
1.78465

>  <SCORE.INTRA.POLAR.0>
-1.83749

>  <SCORE.INTRA.REPUL>
0

>  <SCORE.INTRA.REPUL.0>
0

>  <SCORE.INTRA.SOLV>
-6.63341

>  <SCORE.INTRA.SOLV.lig_0>
-160.638

>  <SCORE.INTRA.VDW>
9.82019

>  <SCORE.INTRA.VDW.0>
-7.61953

>  <SCORE.INTRA.norm>
0.376805

>  <SCORE.RESTR>
0.977502

>  <SCORE.RESTR.CAVITY>
0.977502

>  <SCORE.RESTR.norm>
0.0232739

>  <SCORE.SYSTEM>
0

>  <SCORE.SYSTEM.CONST>
0

>  <SCORE.SYSTEM.DIHEDRAL>
0

>  <SCORE.SYSTEM.SOLV>
0

>  <SCORE.SYSTEM.norm>
0

>  <SCORE.heavy>
42

>  <SCORE.norm>
-0.676646

>  <RMSD>
7.856

$$$$
1NEM.B
 OpenBabel11021811403D
libRbt.so/2013.1/901 2013/11/27
 42 45  0  0  0  0  0  0  0  0999 V2000
   -3.8818    1.1992    1.4402 O   0  0  0  0  0  0  0  0  0  0  0  0
   -3.9269    1.4662    0.0370 C   0  0  0  0  0  0  0  0  0  0  0  0
   -2.6262    1.1109   -0.6818 C   0  0  1  0  0  0  0  0  0  0  0  0
   -1.7006    2.1915   -0.6115 O   0  0  0  0  0  0  0  0  0  0  0  0
   -1.8558   -0.0455   -0.0647 C   0  0  1  0  0  0  0  0  0  0  0  0
   -2.5784   -1.2430   -0.3602 O   0  0  0  0  0  0  0  0  0  0  0  0
   -0.5326    0.1408   -0.7832 C   0  0  1  0  0  0  0  0  0  0  0  0
   -0.6221   -0.1860   -2.1740 O   0  0  0  0  0  0  0  0  0  0  0  0
   -0.3772    1.6558   -0.6055 C   0  0  2  0  0  0  0  0  0  0  0  0
   -2.8915   -2.0614    0.7305 C   0  0  2  0  0  0  0  0  0  0  0  0
   -3.5392   -3.3564    0.2219 C   0  0  2  0  0  0  0  0  0  0  0  0
   -4.6899   -3.0377   -0.6640 N   0  3  0  0  0  0  0  0  0  0  0  0
   -3.9569   -4.2532    1.3918 C   0  0  1  0  0  0  0  0  0  0  0  0
   -2.7997   -4.7885    2.0201 O   0  0  0  0  0  0  0  0  0  0  0  0
   -4.7846   -3.4734    2.4181 C   0  0  2  0  0  0  0  0  0  0  0  0
   -6.0503   -3.1261    1.8707 O   0  0  0  0  0  0  0  0  0  0  0  0
   -4.0325   -2.2118    2.8321 C   0  0  1  0  0  0  0  0  0  0  0  0
   -3.7433   -1.4148    1.6672 O   0  0  0  0  0  0  0  0  0  0  0  0
   -4.8068   -1.3469    3.8112 C   0  0  0  0  0  0  0  0  0  0  0  0
   -4.7300   -1.8720    5.1926 N   0  3  0  0  0  0  0  0  0  0  0  0
    6.0398    1.2373    4.3486 C   0  0  0  0  0  0  0  0  0  0  0  0
    3.9351    0.6250    1.3616 C   0  0  2  0  0  0  0  0  0  0  0  0
    3.5154   -0.8251    1.5897 C   0  0  2  0  0  0  0  0  0  0  0  0
    2.3140   -1.1448    0.7824 N   0  3  0  0  0  0  0  0  0  0  0  0
    3.2092   -1.0571    3.0633 C   0  0  1  0  0  0  0  0  0  0  0  0
    2.8960   -2.4252    3.2748 O   0  0  0  0  0  0  0  0  0  0  0  0
    4.4190   -0.6588    3.9056 C   0  0  2  0  0  0  0  0  0  0  0  0
    4.1168   -0.8070    5.2869 O   0  0  0  0  0  0  0  0  0  0  0  0
    6.2881    2.6869    4.1754 N   0  3  0  0  0  0  0  0  0  0  0  0
    4.7877    0.7942    3.6120 C   0  0  2  0  0  0  0  0  0  0  0  0
    5.0338    0.9682    2.2018 O   0  0  0  0  0  0  0  0  0  0  0  0
    1.9629    5.0739   -0.5137 C   0  0  2  0  0  0  0  0  0  0  0  0
    1.6635    6.0119   -1.6199 N   0  3  0  0  0  0  0  0  0  0  0  0
    3.3109    4.4024   -0.7503 C   0  0  0  0  0  0  0  0  0  0  0  0
    3.6310    3.4329    0.3789 C   0  0  2  0  0  0  0  0  0  0  0  0
    4.9252    2.8293    0.0949 N   0  3  0  0  0  0  0  0  0  0  0  0
    2.5413    2.3673    0.4703 C   0  0  1  0  0  0  0  0  0  0  0  0
    2.8369    1.4707    1.5589 O   0  0  0  0  0  0  0  0  0  0  0  0
    1.1671    3.0119    0.6988 C   0  0  2  0  0  0  0  0  0  0  0  0
    0.1515    1.9908    0.6757 O   0  0  0  0  0  0  0  0  0  0  0  0
    0.8456    4.0401   -0.3829 C   0  0  1  0  0  0  0  0  0  0  0  0
   -0.3735    4.6981   -0.0646 O   0  0  0  0  0  0  0  0  0  0  0  0
  1  2  1  0  0  0  0
  3  2  1  1  0  0  0
  3  5  1  0  0  0  0
  3  4  1  0  0  0  0
  4  9  1  0  0  0  0
  5  7  1  0  0  0  0
  5  6  1  6  0  0  0
  7  9  1  0  0  0  0
  7  8  1  6  0  0  0
  9 40  1  1  0  0  0
 10  6  1  6  0  0  0
 10 11  1  0  0  0  0
 10 18  1  0  0  0  0
 11 13  1  0  0  0  0
 11 12  1  1  0  0  0
 13 15  1  0  0  0  0
 13 14  1  1  0  0  0
 15 17  1  0  0  0  0
 15 16  1  6  0  0  0
 17 19  1  1  0  0  0
 17 18  1  0  0  0  0
 19 20  1  0  0  0  0
 21 29  1  0  0  0  0
 22 23  1  0  0  0  0
 22 31  1  0  0  0  0
 22 38  1  1  0  0  0
 23 25  1  0  0  0  0
 23 24  1  6  0  0  0
 25 27  1  0  0  0  0
 25 26  1  6  0  0  0
 27 30  1  0  0  0  0
 27 28  1  1  0  0  0
 30 21  1  1  0  0  0
 30 31  1  0  0  0  0
 32 34  1  0  0  0  0
 32 41  1  0  0  0  0
 32 33  1  6  0  0  0
 34 35  1  0  0  0  0
 35 37  1  0  0  0  0
 35 36  1  6  0  0  0
 37 39  1  0  0  0  0
 37 38  1  1  0  0  0
 39 41  1  0  0  0  0
 39 40  1  6  0  0  0
 41 42  1  1  0  0  0
M  CHG  6  12   1  20   1  24   1  29   1  33   1  36   1
M  END
>  <CHROM.1>
49.80085368,-85.62164900,-127.09558111,-174.52884629,-175.33586060,-108.37068311
-35.25104613,-60.15447256,174.84392258,79.06160126,-170.75736094,-173.35547586
-51.55802912,-126.24534881,178.80311247,167.83104852,-178.21824619,-58.41311257
48.39506445,-70.08315480,-86.81106399,-55.46921815,0.10490041,0.32691506
1.25197010,2.74979667,0.33019262,2.50971149

>  <Name>
1NEM.B

>  <RI>
0

>  <Rbt.Current_Directory>
/home/itssahil/PROJECTS/Mol_Feturizer/New_Systems/rnas/1nem

>  <Rbt.Executable>
rbdock ($Id: //depot/dev/client3/rdock/2013.1/src/exe/rbdock.cxx#4 $)

>  <Rbt.Library>
libRbt.so (2013.1, Build901 2013/11/27)

>  <Rbt.Parameter_File>
/export/apps/rDock/src/rDock_2013.1_src/data/scripts/dock_solv.prm

>  <Rbt.Receptor>
prm/pocket_docking_4.prm

>  <SCORE>
-26.9385

>  <SCORE.INTER>
-40.4998

>  <SCORE.INTER.CONST>
1

>  <SCORE.INTER.POLAR>
-5.51619

>  <SCORE.INTER.ROT>
9

>  <SCORE.INTER.SOLV>
29.0413

>  <SCORE.INTER.VDW>
-27.893

>  <SCORE.INTER.norm>
-0.964281

>  <SCORE.INTRA>
11.5634

>  <SCORE.INTRA.DIHEDRAL>
8.73555

>  <SCORE.INTRA.DIHEDRAL.0>
22.4324

>  <SCORE.INTRA.POLAR>
0.650948

>  <SCORE.INTRA.POLAR.0>
-1.83749

>  <SCORE.INTRA.REPUL>
0.1031

>  <SCORE.INTRA.REPUL.0>
0

>  <SCORE.INTRA.SOLV>
-3.14883

>  <SCORE.INTRA.SOLV.lig_0>
-160.638

>  <SCORE.INTRA.VDW>
6.04127

>  <SCORE.INTRA.VDW.0>
-7.61953

>  <SCORE.INTRA.norm>
0.275318

>  <SCORE.RESTR>
1.99799

>  <SCORE.RESTR.CAVITY>
1.99799

>  <SCORE.RESTR.norm>
0.0475711

>  <SCORE.SYSTEM>
0

>  <SCORE.SYSTEM.CONST>
0

>  <SCORE.SYSTEM.DIHEDRAL>
0

>  <SCORE.SYSTEM.SOLV>
0

>  <SCORE.SYSTEM.norm>
0

>  <SCORE.heavy>
42

>  <SCORE.norm>
-0.641392

>  <RMSD>
7.866

$$$$
1NEM.B
 OpenBabel11021811403D
libRbt.so/2013.1/901 2013/11/27
 42 45  0  0  0  0  0  0  0  0999 V2000
   -4.4549    2.6846    0.1195 O   0  0  0  0  0  0  0  0  0  0  0  0
   -3.6105    1.5363    0.2217 C   0  0  0  0  0  0  0  0  0  0  0  0
   -2.3837    1.6130   -0.6860 C   0  0  1  0  0  0  0  0  0  0  0  0
   -1.9143    2.9543   -0.7859 O   0  0  0  0  0  0  0  0  0  0  0  0
   -1.1675    0.8579   -0.1739 C   0  0  1  0  0  0  0  0  0  0  0  0
   -1.4389   -0.5374   -0.3258 O   0  0  0  0  0  0  0  0  0  0  0  0
   -0.1169    1.4470   -1.0964 C   0  0  1  0  0  0  0  0  0  0  0  0
   -0.2748    1.0034   -2.4483 O   0  0  0  0  0  0  0  0  0  0  0  0
   -0.4998    2.9269   -0.9779 C   0  0  2  0  0  0  0  0  0  0  0  0
   -2.3178   -1.1013    0.6052 C   0  0  2  0  0  0  0  0  0  0  0  0
   -1.5085   -1.7662    1.7270 C   0  0  2  0  0  0  0  0  0  0  0  0
   -0.5229   -2.7180    1.1499 N   0  3  0  0  0  0  0  0  0  0  0  0
   -2.4356   -2.4532    2.7348 C   0  0  1  0  0  0  0  0  0  0  0  0
   -3.1354   -1.4707    3.4869 O   0  0  0  0  0  0  0  0  0  0  0  0
   -3.4387   -3.3698    2.0278 C   0  0  2  0  0  0  0  0  0  0  0  0
   -2.7701   -4.4890    1.4601 O   0  0  0  0  0  0  0  0  0  0  0  0
   -4.1664   -2.5895    0.9366 C   0  0  1  0  0  0  0  0  0  0  0  0
   -3.2078   -2.0383    0.0128 O   0  0  0  0  0  0  0  0  0  0  0  0
   -5.1457   -3.4381    0.1450 C   0  0  0  0  0  0  0  0  0  0  0  0
   -5.6047   -2.7515   -1.0829 N   0  3  0  0  0  0  0  0  0  0  0  0
    4.0163   -0.2404   -0.7270 C   0  0  0  0  0  0  0  0  0  0  0  0
    2.1147    2.0610    1.4672 C   0  0  2  0  0  0  0  0  0  0  0  0
    2.5143    1.5477    2.8485 C   0  0  2  0  0  0  0  0  0  0  0  0
    2.2529    2.5835    3.8762 N   0  3  0  0  0  0  0  0  0  0  0  0
    3.9927    1.1826    2.8651 C   0  0  1  0  0  0  0  0  0  0  0  0
    4.3335    0.6348    4.1293 O   0  0  0  0  0  0  0  0  0  0  0  0
    4.2815    0.1705    1.7587 C   0  0  2  0  0  0  0  0  0  0  0  0
    5.6722   -0.1233    1.7228 O   0  0  0  0  0  0  0  0  0  0  0  0
    3.4025   -1.5505   -0.4111 N   0  3  0  0  0  0  0  0  0  0  0  0
    3.8420    0.7466    0.4141 C   0  0  2  0  0  0  0  0  0  0  0  0
    2.4465    1.1074    0.4615 O   0  0  0  0  0  0  0  0  0  0  0  0
    1.8270    6.2673   -1.6769 C   0  0  2  0  0  0  0  0  0  0  0  0
    1.5382    6.8982   -2.9852 N   0  3  0  0  0  0  0  0  0  0  0  0
    3.1930    5.5914   -1.7145 C   0  0  0  0  0  0  0  0  0  0  0  0
    3.5024    4.9360   -0.3758 C   0  0  2  0  0  0  0  0  0  0  0  0
    4.8146    4.3130   -0.4771 N   0  3  0  0  0  0  0  0  0  0  0  0
    2.4310    3.8989   -0.0476 C   0  0  1  0  0  0  0  0  0  0  0  0
    2.7157    3.3037    1.2334 O   0  0  0  0  0  0  0  0  0  0  0  0
    1.0396    4.5461   -0.0117 C   0  0  2  0  0  0  0  0  0  0  0  0
    0.0442    3.5260    0.1961 O   0  0  0  0  0  0  0  0  0  0  0  0
    0.7264    5.2699   -1.3188 C   0  0  1  0  0  0  0  0  0  0  0  0
   -0.5125    5.9559   -1.1961 O   0  0  0  0  0  0  0  0  0  0  0  0
  1  2  1  0  0  0  0
  3  2  1  1  0  0  0
  3  5  1  0  0  0  0
  3  4  1  0  0  0  0
  4  9  1  0  0  0  0
  5  7  1  0  0  0  0
  5  6  1  6  0  0  0
  7  9  1  0  0  0  0
  7  8  1  6  0  0  0
  9 40  1  1  0  0  0
 10  6  1  6  0  0  0
 10 11  1  0  0  0  0
 10 18  1  0  0  0  0
 11 13  1  0  0  0  0
 11 12  1  6  0  0  0
 13 15  1  0  0  0  0
 13 14  1  6  0  0  0
 15 17  1  0  0  0  0
 15 16  1  6  0  0  0
 17 19  1  6  0  0  0
 17 18  1  0  0  0  0
 19 20  1  0  0  0  0
 21 29  1  0  0  0  0
 22 23  1  0  0  0  0
 22 31  1  0  0  0  0
 22 38  1  6  0  0  0
 23 25  1  0  0  0  0
 23 24  1  1  0  0  0
 25 27  1  0  0  0  0
 25 26  1  1  0  0  0
 27 30  1  0  0  0  0
 27 28  1  6  0  0  0
 30 21  1  6  0  0  0
 30 31  1  0  0  0  0
 32 34  1  0  0  0  0
 32 41  1  0  0  0  0
 32 33  1  6  0  0  0
 34 35  1  0  0  0  0
 35 37  1  0  0  0  0
 35 36  1  6  0  0  0
 37 39  1  0  0  0  0
 37 38  1  1  0  0  0
 39 41  1  0  0  0  0
 39 40  1  6  0  0  0
 41 42  1  1  0  0  0
M  CHG  6  12   1  20   1  24   1  29   1  33   1  36   1
M  END
>  <CHROM.1>
70.50371739,34.97041458,-75.83651069,-96.73639365,-172.55711090,-131.66410517
-95.39035631,-175.36017945,175.17989651,-167.15857986,-59.63550482,50.80863512
-64.51682579,179.40565583,-67.41010896,-58.58389565,70.55910041,173.88075101
166.60146387,-159.39735340,-90.19840759,63.49359778,0.23197183,1.14152727
0.40308583,2.41086532,0.28081165,2.68945047

>  <Name>
1NEM.B

>  <RI>
0

>  <Rbt.Current_Directory>
/home/itssahil/PROJECTS/Mol_Feturizer/New_Systems/rnas/1nem

>  <Rbt.Executable>
rbdock ($Id: //depot/dev/client3/rdock/2013.1/src/exe/rbdock.cxx#4 $)

>  <Rbt.Library>
libRbt.so (2013.1, Build901 2013/11/27)

>  <Rbt.Parameter_File>
/export/apps/rDock/src/rDock_2013.1_src/data/scripts/dock_solv.prm

>  <Rbt.Receptor>
prm/pocket_docking_7.prm

>  <SCORE>
-45.2646

>  <SCORE.INTER>
-52.1221

>  <SCORE.INTER.CONST>
1

>  <SCORE.INTER.POLAR>
-8.09814

>  <SCORE.INTER.ROT>
9

>  <SCORE.INTER.SOLV>
36.5206

>  <SCORE.INTER.VDW>
-29.5278

>  <SCORE.INTER.norm>
-1.241

>  <SCORE.INTRA>
6.85325

>  <SCORE.INTRA.DIHEDRAL>
3.69417

>  <SCORE.INTRA.DIHEDRAL.0>
22.4324

>  <SCORE.INTRA.POLAR>
0.846212

>  <SCORE.INTRA.POLAR.0>
-1.83749

>  <SCORE.INTRA.REPUL>
0

>  <SCORE.INTRA.REPUL.0>
0

>  <SCORE.INTRA.SOLV>
-6.00175

>  <SCORE.INTRA.SOLV.lig_0>
-160.638

>  <SCORE.INTRA.VDW>
5.12992

>  <SCORE.INTRA.VDW.0>
-7.61953

>  <SCORE.INTRA.norm>
0.163173

>  <SCORE.RESTR>
0.00433911

>  <SCORE.RESTR.CAVITY>
0.00433911

>  <SCORE.RESTR.norm>
0.000103312

>  <SCORE.SYSTEM>
0

>  <SCORE.SYSTEM.CONST>
0

>  <SCORE.SYSTEM.DIHEDRAL>
0

>  <SCORE.SYSTEM.SOLV>
0

>  <SCORE.SYSTEM.norm>
0

>  <SCORE.heavy>
42

>  <SCORE.norm>
-1.07773

>  <RMSD>
7.872

$$$$
1NEM.B
 OpenBabel11021811403D
libRbt.so/2013.1/901 2013/11/27
 42 45  0  0  0  0  0  0  0  0999 V2000
   -5.1443   -0.5847    3.4719 O   0  0  0  0  0  0  0  0  0  0  0  0
   -6.0335   -0.9000    2.3985 C   0  0  0  0  0  0  0  0  0  0  0  0
   -5.3241   -1.0247    1.0510 C   0  0  1  0  0  0  0  0  0  0  0  0
   -4.5983    0.1641    0.7521 O   0  0  0  0  0  0  0  0  0  0  0  0
   -4.2566   -2.1058    0.9937 C   0  0  1  0  0  0  0  0  0  0  0  0
   -4.9294   -3.3668    0.9803 O   0  0  0  0  0  0  0  0  0  0  0  0
   -3.5691   -1.6921   -0.2940 C   0  0  1  0  0  0  0  0  0  0  0  0
   -4.3872   -1.9309   -1.4442 O   0  0  0  0  0  0  0  0  0  0  0  0
   -3.4560   -0.1861   -0.0297 C   0  0  2  0  0  0  0  0  0  0  0  0
   -4.6712   -4.2170    2.0610 C   0  0  2  0  0  0  0  0  0  0  0  0
   -5.9512   -4.9850    2.4177 C   0  0  2  0  0  0  0  0  0  0  0  0
   -7.0739   -4.0342    2.6320 N   0  3  0  0  0  0  0  0  0  0  0  0
   -5.7269   -5.8807    3.6404 C   0  0  1  0  0  0  0  0  0  0  0  0
   -4.8799   -6.9665    3.2880 O   0  0  0  0  0  0  0  0  0  0  0  0
   -5.0996   -5.0934    4.7949 C   0  0  2  0  0  0  0  0  0  0  0  0
   -6.0291   -4.1490    5.3111 O   0  0  0  0  0  0  0  0  0  0  0  0
   -3.8455   -4.3752    4.3048 C   0  0  1  0  0  0  0  0  0  0  0  0
   -4.1794   -3.5172    3.1965 O   0  0  0  0  0  0  0  0  0  0  0  0
   -3.1862   -3.5231    5.3750 C   0  0  0  0  0  0  0  0  0  0  0  0
   -2.7920   -4.3252    6.5545 N   0  3  0  0  0  0  0  0  0  0  0  0
    4.4071    0.9856    1.9638 C   0  0  0  0  0  0  0  0  0  0  0  0
    1.6841   -0.7046    0.1048 C   0  0  2  0  0  0  0  0  0  0  0  0
    1.8018   -2.1291    0.6415 C   0  0  2  0  0  0  0  0  0  0  0  0
    0.5434   -2.8742    0.3994 N   0  3  0  0  0  0  0  0  0  0  0  0
    2.0938   -2.1044    2.1358 C   0  0  1  0  0  0  0  0  0  0  0  0
    2.2777   -3.4305    2.6069 O   0  0  0  0  0  0  0  0  0  0  0  0
    3.3491   -1.2750    2.3976 C   0  0  2  0  0  0  0  0  0  0  0  0
    3.5894   -1.1894    3.7963 O   0  0  0  0  0  0  0  0  0  0  0  0
    5.6405    0.1971    1.7404 N   0  3  0  0  0  0  0  0  0  0  0  0
    3.1627    0.1268    1.8203 C   0  0  2  0  0  0  0  0  0  0  0  0
    2.8549    0.0470    0.4136 O   0  0  0  0  0  0  0  0  0  0  0  0
   -1.4435    3.1780   -1.2330 C   0  0  2  0  0  0  0  0  0  0  0  0
   -2.2356    3.9647   -2.2062 N   0  3  0  0  0  0  0  0  0  0  0  0
   -0.2209    2.5791   -1.9191 C   0  0  0  0  0  0  0  0  0  0  0  0
    0.6021    1.7652   -0.9304 C   0  0  2  0  0  0  0  0  0  0  0  0
    1.7501    1.2246   -1.6445 N   0  3  0  0  0  0  0  0  0  0  0  0
   -0.2529    0.6436   -0.3455 C   0  0  1  0  0  0  0  0  0  0  0  0
    0.5246   -0.1043    0.6098 O   0  0  0  0  0  0  0  0  0  0  0  0
   -1.4998    1.2131    0.3454 C   0  0  2  0  0  0  0  0  0  0  0  0
   -2.3346    0.1280    0.7931 O   0  0  0  0  0  0  0  0  0  0  0  0
   -2.3125    2.0903   -0.6036 C   0  0  1  0  0  0  0  0  0  0  0  0
   -3.3842    2.6938    0.1090 O   0  0  0  0  0  0  0  0  0  0  0  0
  1  2  1  0  0  0  0
  3  2  1  1  0  0  0
  3  5  1  0  0  0  0
  3  4  1  0  0  0  0
  4  9  1  0  0  0  0
  5  7  1  0  0  0  0
  5  6  1  6  0  0  0
  7  9  1  0  0  0  0
  7  8  1  6  0  0  0
  9 40  1  1  0  0  0
 10  6  1  6  0  0  0
 10 11  1  0  0  0  0
 10 18  1  0  0  0  0
 11 13  1  0  0  0  0
 11 12  1  1  0  0  0
 13 15  1  0  0  0  0
 13 14  1  6  0  0  0
 15 17  1  0  0  0  0
 15 16  1  6  0  0  0
 17 19  1  1  0  0  0
 17 18  1  0  0  0  0
 19 20  1  0  0  0  0
 21 29  1  0  0  0  0
 22 23  1  0  0  0  0
 22 31  1  0  0  0  0
 22 38  1  1  0  0  0
 23 25  1  0  0  0  0
 23 24  1  1  0  0  0
 25 27  1  0  0  0  0
 25 26  1  6  0  0  0
 27 30  1  0  0  0  0
 27 28  1  1  0  0  0
 30 21  1  6  0  0  0
 30 31  1  0  0  0  0
 32 34  1  0  0  0  0
 32 41  1  0  0  0  0
 32 33  1  6  0  0  0
 34 35  1  0  0  0  0
 35 37  1  0  0  0  0
 35 36  1  6  0  0  0
 37 39  1  0  0  0  0
 37 38  1  1  0  0  0
 39 41  1  0  0  0  0
 39 40  1  6  0  0  0
 41 42  1  1  0  0  0
M  CHG  6  12   1  20   1  24   1  29   1  33   1  36   1
M  END
>  <CHROM.1>
173.56468034,-55.95285155,-117.93225978,144.11891606,172.43303560,-112.71174733
-179.80873704,-68.15772765,88.38827113,58.97545687,-170.95670060,38.32696797
7.74538437,-136.24040988,-97.46335145,177.50297721,-23.22344118,90.61551315
-84.13304842,-59.62692517,-100.27093260,-175.93754636,-1.77866254,-1.34203319
1.51577289,2.48757915,0.10085053,2.44738227

>  <Name>
1NEM.B

>  <RI>
0

>  <Rbt.Current_Directory>
/home/itssahil/PROJECTS/Mol_Feturizer/New_Systems/rnas/1nem

>  <Rbt.Executable>
rbdock ($Id: //depot/dev/client3/rdock/2013.1/src/exe/rbdock.cxx#4 $)

>  <Rbt.Library>
libRbt.so (2013.1, Build901 2013/11/27)

>  <Rbt.Parameter_File>
/export/apps/rDock/src/rDock_2013.1_src/data/scripts/dock_solv.prm

>  <Rbt.Receptor>
prm/pocket_docking_3.prm

>  <SCORE>
-21.4309

>  <SCORE.INTER>
-46.5799

>  <SCORE.INTER.CONST>
1

>  <SCORE.INTER.POLAR>
-6.94267

>  <SCORE.INTER.ROT>
9

>  <SCORE.INTER.SOLV>
34.4501

>  <SCORE.INTER.VDW>
-28.9944

>  <SCORE.INTER.norm>
-1.10904

>  <SCORE.INTRA>
24.0848

>  <SCORE.INTRA.DIHEDRAL>
27.6873

>  <SCORE.INTRA.DIHEDRAL.0>
22.4324

>  <SCORE.INTRA.POLAR>
-0.523119

>  <SCORE.INTRA.POLAR.0>
-1.83749

>  <SCORE.INTRA.REPUL>
0.0062668

>  <SCORE.INTRA.REPUL.0>
0

>  <SCORE.INTRA.SOLV>
-0.441466

>  <SCORE.INTRA.SOLV.lig_0>
-160.638

>  <SCORE.INTRA.VDW>
12.2091

>  <SCORE.INTRA.VDW.0>
-7.61953

>  <SCORE.INTRA.norm>
0.573447

>  <SCORE.RESTR>
1.06423

>  <SCORE.RESTR.CAVITY>
1.06423

>  <SCORE.RESTR.norm>
0.0253389

>  <SCORE.SYSTEM>
0

>  <SCORE.SYSTEM.CONST>
0

>  <SCORE.SYSTEM.DIHEDRAL>
0

>  <SCORE.SYSTEM.SOLV>
0

>  <SCORE.SYSTEM.norm>
0

>  <SCORE.heavy>
42

>  <SCORE.norm>
-0.510258

>  <RMSD>
7.888

$$$$
1NEM.B
 OpenBabel11021811403D
libRbt.so/2013.1/901 2013/11/27
 42 45  0  0  0  0  0  0  0  0999 V2000
   -1.3071    0.9549   -1.3188 O   0  0  0  0  0  0  0  0  0  0  0  0
   -0.9359    0.0638   -0.2651 C   0  0  0  0  0  0  0  0  0  0  0  0
    0.5427   -0.3202   -0.2992 C   0  0  1  0  0  0  0  0  0  0  0  0
    1.3651    0.8243   -0.0912 O   0  0  0  0  0  0  0  0  0  0  0  0
    0.9783   -1.2656    0.8089 C   0  0  1  0  0  0  0  0  0  0  0  0
    0.4330   -2.5522    0.5083 O   0  0  0  0  0  0  0  0  0  0  0  0
    2.4819   -1.1185    0.6686 C   0  0  1  0  0  0  0  0  0  0  0  0
    2.9738   -1.7200   -0.5336 O   0  0  0  0  0  0  0  0  0  0  0  0
    2.5625    0.4092    0.5663 C   0  0  2  0  0  0  0  0  0  0  0  0
   -0.7395   -2.9009    1.1872 C   0  0  2  0  0  0  0  0  0  0  0  0
   -0.4898   -4.1737    2.0076 C   0  0  2  0  0  0  0  0  0  0  0  0
    0.0621   -5.2433    1.1348 N   0  3  0  0  0  0  0  0  0  0  0  0
   -1.7708   -4.6260    2.7161 C   0  0  1  0  0  0  0  0  0  0  0  0
   -2.0838   -3.7172    3.7632 O   0  0  0  0  0  0  0  0  0  0  0  0
   -2.9457   -4.7057    1.7365 C   0  0  2  0  0  0  0  0  0  0  0  0
   -2.7490   -5.7706    0.8149 O   0  0  0  0  0  0  0  0  0  0  0  0
   -3.0777   -3.3842    0.9847 C   0  0  1  0  0  0  0  0  0  0  0  0
   -1.8413   -3.0853    0.3080 O   0  0  0  0  0  0  0  0  0  0  0  0
   -4.1886   -3.3924   -0.0506 C   0  0  0  0  0  0  0  0  0  0  0  0
   -4.1701   -2.1739   -0.8902 N   0  3  0  0  0  0  0  0  0  0  0  0
    2.2446    1.0462    5.4358 C   0  0  0  0  0  0  0  0  0  0  0  0
    5.1834    2.5427    3.7473 C   0  0  2  0  0  0  0  0  0  0  0  0
    6.3266    1.9563    4.5721 C   0  0  2  0  0  0  0  0  0  0  0  0
    7.5988    2.0362    3.8154 N   0  3  0  0  0  0  0  0  0  0  0  0
    6.0341    0.5016    4.9146 C   0  0  1  0  0  0  0  0  0  0  0  0
    7.0655   -0.0085    5.7455 O   0  0  0  0  0  0  0  0  0  0  0  0
    4.6880    0.4056    5.6292 C   0  0  2  0  0  0  0  0  0  0  0  0
    4.3752   -0.9565    5.8908 O   0  0  0  0  0  0  0  0  0  0  0  0
    2.1084    2.2135    6.3368 N   0  3  0  0  0  0  0  0  0  0  0  0
    3.6009    1.0245    4.7526 C   0  0  2  0  0  0  0  0  0  0  0  0
    3.9413    2.3879    4.4288 O   0  0  0  0  0  0  0  0  0  0  0  0
    2.3403    4.6524    0.8149 C   0  0  2  0  0  0  0  0  0  0  0  0
    1.4810    5.3407   -0.1756 N   0  3  0  0  0  0  0  0  0  0  0  0
    3.8059    4.7907    0.4187 C   0  0  0  0  0  0  0  0  0  0  0  0
    4.7015    4.0854    1.4275 C   0  0  2  0  0  0  0  0  0  0  0  0
    6.0812    4.2554    0.9944 N   0  3  0  0  0  0  0  0  0  0  0  0
    4.3324    2.6057    1.5014 C   0  0  1  0  0  0  0  0  0  0  0  0
    5.1652    1.9514    2.4785 O   0  0  0  0  0  0  0  0  0  0  0  0
    2.8574    2.4312    1.8891 C   0  0  2  0  0  0  0  0  0  0  0  0
    2.5156    1.0325    1.8479 O   0  0  0  0  0  0  0  0  0  0  0  0
    1.9357    3.1838    0.9328 C   0  0  1  0  0  0  0  0  0  0  0  0
    0.5957    3.0979    1.3995 O   0  0  0  0  0  0  0  0  0  0  0  0
  1  2  1  0  0  0  0
  3  2  1  1  0  0  0
  3  5  1  0  0  0  0
  3  4  1  0  0  0  0
  4  9  1  0  0  0  0
  5  7  1  0  0  0  0
  5  6  1  6  0  0  0
  7  9  1  0  0  0  0
  7  8  1  6  0  0  0
  9 40  1  1  0  0  0
 10  6  1  6  0  0  0
 10 11  1  0  0  0  0
 10 18  1  0  0  0  0
 11 13  1  0  0  0  0
 11 12  1  6  0  0  0
 13 15  1  0  0  0  0
 13 14  1  1  0  0  0
 15 17  1  0  0  0  0
 15 16  1  6  0  0  0
 17 19  1  6  0  0  0
 17 18  1  0  0  0  0
 19 20  1  0  0  0  0
 21 29  1  0  0  0  0
 22 23  1  0  0  0  0
 22 31  1  0  0  0  0
 22 38  1  6  0  0  0
 23 25  1  0  0  0  0
 23 24  1  6  0  0  0
 25 27  1  0  0  0  0
 25 26  1  1  0  0  0
 27 30  1  0  0  0  0
 27 28  1  6  0  0  0
 30 21  1  1  0  0  0
 30 31  1  0  0  0  0
 32 34  1  0  0  0  0
 32 41  1  0  0  0  0
 32 33  1  6  0  0  0
 34 35  1  0  0  0  0
 35 37  1  0  0  0  0
 35 36  1  6  0  0  0
 37 39  1  0  0  0  0
 37 38  1  1  0  0  0
 39 41  1  0  0  0  0
 39 40  1  6  0  0  0
 41 42  1  1  0  0  0
M  CHG  6  12   1  20   1  24   1  29   1  33   1  36   1
M  END
>  <CHROM.1>
77.46660258,63.67386844,-99.21685775,-120.22310353,-42.67603064,-77.67887825
-179.59460581,65.93158653,-71.49034895,-171.98447191,135.77334998,82.98004071
171.80663965,-167.10452802,-63.91144151,-62.10822642,-53.49029151,-166.89203780
-136.29824173,53.02557664,-65.16344219,63.80594593,1.75585234,0.05426908
1.95017007,2.76567771,0.66171826,2.53616345

>  <Name>
1NEM.B

>  <RI>
0

>  <Rbt.Current_Directory>
/home/itssahil/PROJECTS/Mol_Feturizer/New_Systems/rnas/1nem

>  <Rbt.Executable>
rbdock ($Id: //depot/dev/client3/rdock/2013.1/src/exe/rbdock.cxx#4 $)

>  <Rbt.Library>
libRbt.so (2013.1, Build901 2013/11/27)

>  <Rbt.Parameter_File>
/export/apps/rDock/src/rDock_2013.1_src/data/scripts/dock_solv.prm

>  <Rbt.Receptor>
prm/pocket_docking_5.prm

>  <SCORE>
-38.1082

>  <SCORE.INTER>
-56.5291

>  <SCORE.INTER.CONST>
1

>  <SCORE.INTER.POLAR>
-7.56762

>  <SCORE.INTER.ROT>
9

>  <SCORE.INTER.SOLV>
35.9503

>  <SCORE.INTER.VDW>
-34.0441

>  <SCORE.INTER.norm>
-1.34593

>  <SCORE.INTRA>
18.4044

>  <SCORE.INTRA.DIHEDRAL>
5.37656

>  <SCORE.INTRA.DIHEDRAL.0>
22.4324

>  <SCORE.INTRA.POLAR>
1.59969

>  <SCORE.INTRA.POLAR.0>
-1.83749

>  <SCORE.INTRA.REPUL>
0.26148

>  <SCORE.INTRA.REPUL.0>
0

>  <SCORE.INTRA.SOLV>
-4.21604

>  <SCORE.INTRA.SOLV.lig_0>
-160.638

>  <SCORE.INTRA.VDW>
11.0778

>  <SCORE.INTRA.VDW.0>
-7.61953

>  <SCORE.INTRA.norm>
0.4382

>  <SCORE.RESTR>
0.016553

>  <SCORE.RESTR.CAVITY>
0.016553

>  <SCORE.RESTR.norm>
0.000394119

>  <SCORE.SYSTEM>
0

>  <SCORE.SYSTEM.CONST>
0

>  <SCORE.SYSTEM.DIHEDRAL>
0

>  <SCORE.SYSTEM.SOLV>
0

>  <SCORE.SYSTEM.norm>
0

>  <SCORE.heavy>
42

>  <SCORE.norm>
-0.907338

>  <RMSD>
7.889

$$$$
1NEM.B
 OpenBabel11021811403D
libRbt.so/2013.1/901 2013/11/27
 42 45  0  0  0  0  0  0  0  0999 V2000
   -3.6361   -0.2542   -0.7622 O   0  0  0  0  0  0  0  0  0  0  0  0
   -2.9726   -0.6995    0.4225 C   0  0  0  0  0  0  0  0  0  0  0  0
   -1.5245   -1.1197    0.1753 C   0  0  1  0  0  0  0  0  0  0  0  0
   -0.7712   -0.0373   -0.3637 O   0  0  0  0  0  0  0  0  0  0  0  0
   -0.7488   -1.4909    1.4290 C   0  0  1  0  0  0  0  0  0  0  0  0
   -1.2469   -2.7531    1.8785 O   0  0  0  0  0  0  0  0  0  0  0  0
    0.6539   -1.4842    0.8508 C   0  0  1  0  0  0  0  0  0  0  0  0
    0.8735   -2.5774   -0.0469 O   0  0  0  0  0  0  0  0  0  0  0  0
    0.5828   -0.1662    0.0707 C   0  0  2  0  0  0  0  0  0  0  0  0
   -1.9965   -2.7371    3.0596 C   0  0  2  0  0  0  0  0  0  0  0  0
   -2.2228   -4.1786    3.5350 C   0  0  2  0  0  0  0  0  0  0  0  0
   -2.8121   -4.9911    2.4382 N   0  3  0  0  0  0  0  0  0  0  0  0
   -3.0969   -4.2071    4.7930 C   0  0  1  0  0  0  0  0  0  0  0  0
   -2.3612   -3.6977    5.8975 O   0  0  0  0  0  0  0  0  0  0  0  0
   -4.3717   -3.3802    4.5994 C   0  0  2  0  0  0  0  0  0  0  0  0
   -5.2284   -4.0075    3.6535 O   0  0  0  0  0  0  0  0  0  0  0  0
   -4.0062   -1.9779    4.1211 C   0  0  1  0  0  0  0  0  0  0  0  0
   -3.2394   -2.0647    2.9043 O   0  0  0  0  0  0  0  0  0  0  0  0
   -5.2172   -1.1026    3.8505 C   0  0  0  0  0  0  0  0  0  0  0  0
   -6.0713   -1.6578    2.7772 N   0  3  0  0  0  0  0  0  0  0  0  0
    7.3501    2.2219    3.3316 C   0  0  0  0  0  0  0  0  0  0  0  0
    4.5733    0.1820    1.9696 C   0  0  2  0  0  0  0  0  0  0  0  0
    4.2655   -0.7263    3.1576 C   0  0  2  0  0  0  0  0  0  0  0  0
    2.9076   -1.3055    3.0225 N   0  3  0  0  0  0  0  0  0  0  0  0
    4.3501    0.0628    4.4573 C   0  0  1  0  0  0  0  0  0  0  0  0
    4.1388   -0.8083    5.5577 O   0  0  0  0  0  0  0  0  0  0  0  0
    5.7228    0.7229    4.5658 C   0  0  2  0  0  0  0  0  0  0  0  0
    5.7857    1.5179    5.7429 O   0  0  0  0  0  0  0  0  0  0  0  0
    7.4227    3.3770    2.4078 N   0  3  0  0  0  0  0  0  0  0  0  0
    5.9646    1.5998    3.3387 C   0  0  2  0  0  0  0  0  0  0  0  0
    5.8395    0.8145    2.1356 O   0  0  0  0  0  0  0  0  0  0  0  0
    2.3352    3.2723   -1.6479 C   0  0  2  0  0  0  0  0  0  0  0  0
    1.9459    3.5679   -3.0459 N   0  3  0  0  0  0  0  0  0  0  0  0
    3.7350    2.6692   -1.6132 C   0  0  0  0  0  0  0  0  0  0  0  0
    4.1479    2.3580   -0.1815 C   0  0  2  0  0  0  0  0  0  0  0  0
    5.4877    1.7890   -0.2175 N   0  3  0  0  0  0  0  0  0  0  0  0
    3.1566    1.3779    0.4414 C   0  0  1  0  0  0  0  0  0  0  0  0
    3.5384    1.1104    1.8049 O   0  0  0  0  0  0  0  0  0  0  0  0
    1.7331    1.9515    0.4132 C   0  0  2  0  0  0  0  0  0  0  0  0
    0.8106    0.9634    0.9105 O   0  0  0  0  0  0  0  0  0  0  0  0
    1.3140    2.3364   -1.0034 C   0  0  1  0  0  0  0  0  0  0  0  0
    0.0445    2.9749   -0.9655 O   0  0  0  0  0  0  0  0  0  0  0  0
  1  2  1  0  0  0  0
  3  2  1  1  0  0  0
  3  5  1  0  0  0  0
  3  4  1  0  0  0  0
  4  9  1  0  0  0  0
  5  7  1  0  0  0  0
  5  6  1  6  0  0  0
  7  9  1  0  0  0  0
  7  8  1  6  0  0  0
  9 40  1  1  0  0  0
 10  6  1  6  0  0  0
 10 11  1  0  0  0  0
 10 18  1  0  0  0  0
 11 13  1  0  0  0  0
 11 12  1  6  0  0  0
 13 15  1  0  0  0  0
 13 14  1  1  0  0  0
 15 17  1  0  0  0  0
 15 16  1  6  0  0  0
 17 19  1  6  0  0  0
 17 18  1  0  0  0  0
 19 20  1  0  0  0  0
 21 29  1  0  0  0  0
 22 23  1  0  0  0  0
 22 31  1  0  0  0  0
 22 38  1  1  0  0  0
 23 25  1  0  0  0  0
 23 24  1  6  0  0  0
 25 27  1  0  0  0  0
 25 26  1  1  0  0  0
 27 30  1  0  0  0  0
 27 28  1  1  0  0  0
 30 21  1  1  0  0  0
 30 31  1  0  0  0  0
 32 34  1  0  0  0  0
 32 41  1  0  0  0  0
 32 33  1  6  0  0  0
 34 35  1  0  0  0  0
 35 37  1  0  0  0  0
 35 36  1  6  0  0  0
 37 39  1  0  0  0  0
 37 38  1  1  0  0  0
 39 41  1  0  0  0  0
 39 40  1  6  0  0  0
 41 42  1  1  0  0  0
M  CHG  6  12   1  20   1  24   1  29   1  33   1  36   1
M  END
>  <CHROM.1>
-177.68627802,59.00209338,-109.69378118,-169.42610091,179.87820665,-112.08645855
169.69577239,-47.05582263,70.90902149,-61.79408094,47.44989867,-161.76240065
-64.32803255,-139.70335602,45.45275581,63.07216897,61.26548015,-68.56084668
53.64135869,-79.88124111,-70.42047588,-55.31880883,0.86258845,-0.30999246
1.89704321,2.76781738,0.35141068,2.13949859

>  <Name>
1NEM.B

>  <RI>
0

>  <Rbt.Current_Directory>
/home/itssahil/PROJECTS/Mol_Feturizer/New_Systems/rnas/1nem

>  <Rbt.Executable>
rbdock ($Id: //depot/dev/client3/rdock/2013.1/src/exe/rbdock.cxx#4 $)

>  <Rbt.Library>
libRbt.so (2013.1, Build901 2013/11/27)

>  <Rbt.Parameter_File>
/export/apps/rDock/src/rDock_2013.1_src/data/scripts/dock_solv.prm

>  <Rbt.Receptor>
prm/pocket_docking_8.prm

>  <SCORE>
-22.9211

>  <SCORE.INTER>
-27.1667

>  <SCORE.INTER.CONST>
1

>  <SCORE.INTER.POLAR>
-3.53083

>  <SCORE.INTER.ROT>
9

>  <SCORE.INTER.SOLV>
22.6166

>  <SCORE.INTER.VDW>
-23.4805

>  <SCORE.INTER.norm>
-0.646825

>  <SCORE.INTRA>
4.2456

>  <SCORE.INTRA.DIHEDRAL>
3.71785

>  <SCORE.INTRA.DIHEDRAL.0>
22.4324

>  <SCORE.INTRA.POLAR>
-0.684088

>  <SCORE.INTRA.POLAR.0>
-1.83749

>  <SCORE.INTRA.REPUL>
0

>  <SCORE.INTRA.REPUL.0>
0

>  <SCORE.INTRA.SOLV>
3.14665

>  <SCORE.INTRA.SOLV.lig_0>
-160.638

>  <SCORE.INTRA.VDW>
3.13925

>  <SCORE.INTRA.VDW.0>
-7.61953

>  <SCORE.INTRA.norm>
0.101086

>  <SCORE.RESTR>
0

>  <SCORE.RESTR.CAVITY>
0

>  <SCORE.RESTR.norm>
0

>  <SCORE.SYSTEM>
0

>  <SCORE.SYSTEM.CONST>
0

>  <SCORE.SYSTEM.DIHEDRAL>
0

>  <SCORE.SYSTEM.SOLV>
0

>  <SCORE.SYSTEM.norm>
0

>  <SCORE.heavy>
42

>  <SCORE.norm>
-0.545739

>  <RMSD>
7.896

$$$$
1NEM.B
 OpenBabel11021811403D
libRbt.so/2013.1/901 2013/11/27
 42 45  0  0  0  0  0  0  0  0999 V2000
   -4.2638   -1.4384    1.9848 O   0  0  0  0  0  0  0  0  0  0  0  0
   -3.7115   -1.0537    3.2454 C   0  0  0  0  0  0  0  0  0  0  0  0
   -3.6130   -2.2141    4.2346 C   0  0  1  0  0  0  0  0  0  0  0  0
   -4.9087   -2.6176    4.6681 O   0  0  0  0  0  0  0  0  0  0  0  0
   -3.0277   -3.4927    3.6566 C   0  0  1  0  0  0  0  0  0  0  0  0
   -1.6276   -3.2725    3.4702 O   0  0  0  0  0  0  0  0  0  0  0  0
   -3.4199   -4.4543    4.7626 C   0  0  1  0  0  0  0  0  0  0  0  0
   -2.6763   -4.2277    5.9646 O   0  0  0  0  0  0  0  0  0  0  0  0
   -4.8769   -4.0164    4.9523 C   0  0  2  0  0  0  0  0  0  0  0  0
   -1.2141   -2.9932    2.1632 C   0  0  2  0  0  0  0  0  0  0  0  0
    0.2473   -3.4289    1.9907 C   0  0  2  0  0  0  0  0  0  0  0  0
    1.0907   -2.8172    3.0514 N   0  3  0  0  0  0  0  0  0  0  0  0
    0.7587   -3.0798    0.5893 C   0  0  1  0  0  0  0  0  0  0  0  0
    0.1366   -3.9241   -0.3702 O   0  0  0  0  0  0  0  0  0  0  0  0
    0.4738   -1.6144    0.2459 C   0  0  2  0  0  0  0  0  0  0  0  0
    1.2691   -0.7545    1.0523 O   0  0  0  0  0  0  0  0  0  0  0  0
   -1.0060   -1.3139    0.4666 C   0  0  1  0  0  0  0  0  0  0  0  0
   -1.3656   -1.6200    1.8278 O   0  0  0  0  0  0  0  0  0  0  0  0
   -1.3688    0.1366    0.2009 C   0  0  0  0  0  0  0  0  0  0  0  0
   -2.1749    0.2875   -1.0309 N   0  3  0  0  0  0  0  0  0  0  0  0
   -6.6189   -2.3906    1.1255 C   0  0  0  0  0  0  0  0  0  0  0  0
   -8.5028   -5.5120    1.7854 C   0  0  2  0  0  0  0  0  0  0  0  0
   -8.5773   -6.1124    0.3836 C   0  0  2  0  0  0  0  0  0  0  0  0
   -8.8729   -7.5630    0.4618 N   0  3  0  0  0  0  0  0  0  0  0  0
   -7.2571   -5.9055   -0.3467 C   0  0  1  0  0  0  0  0  0  0  0  0
   -7.3648   -6.3981   -1.6735 O   0  0  0  0  0  0  0  0  0  0  0  0
   -6.9109   -4.4183   -0.3650 C   0  0  2  0  0  0  0  0  0  0  0  0
   -5.6460   -4.2236   -0.9843 O   0  0  0  0  0  0  0  0  0  0  0  0
   -7.0311   -1.8209    2.4288 N   0  3  0  0  0  0  0  0  0  0  0  0
   -6.8706   -3.8872    1.0667 C   0  0  2  0  0  0  0  0  0  0  0  0
   -8.1294   -4.1380    1.7242 O   0  0  0  0  0  0  0  0  0  0  0  0
   -8.7442   -4.4741    6.2600 C   0  0  2  0  0  0  0  0  0  0  0  0
   -8.8515   -4.2232    7.7157 N   0  3  0  0  0  0  0  0  0  0  0  0
   -9.2740   -5.8651    5.9306 C   0  0  0  0  0  0  0  0  0  0  0  0
   -9.1678   -6.1379    4.4367 C   0  0  2  0  0  0  0  0  0  0  0  0
   -9.6889   -7.4749    4.1894 N   0  3  0  0  0  0  0  0  0  0  0  0
   -7.7106   -6.0308    3.9935 C   0  0  1  0  0  0  0  0  0  0  0  0
   -7.6224   -6.2623    2.5740 O   0  0  0  0  0  0  0  0  0  0  0  0
   -7.1427   -4.6427    4.3205 C   0  0  2  0  0  0  0  0  0  0  0  0
   -5.7420   -4.6096    3.9864 O   0  0  0  0  0  0  0  0  0  0  0  0
   -7.2955   -4.3117    5.8029 C   0  0  1  0  0  0  0  0  0  0  0  0
   -6.8723   -2.9750    6.0366 O   0  0  0  0  0  0  0  0  0  0  0  0
  1  2  1  0  0  0  0
  3  2  1  6  0  0  0
  3  5  1  0  0  0  0
  3  4  1  0  0  0  0
  4  9  1  0  0  0  0
  5  7  1  0  0  0  0
  5  6  1  1  0  0  0
  7  9  1  0  0  0  0
  7  8  1  1  0  0  0
  9 40  1  6  0  0  0
 10  6  1  1  0  0  0
 10 11  1  0  0  0  0
 10 18  1  0  0  0  0
 11 13  1  0  0  0  0
 11 12  1  1  0  0  0
 13 15  1  0  0  0  0
 13 14  1  6  0  0  0
 15 17  1  0  0  0  0
 15 16  1  1  0  0  0
 17 19  1  1  0  0  0
 17 18  1  0  0  0  0
 19 20  1  0  0  0  0
 21 29  1  0  0  0  0
 22 23  1  0  0  0  0
 22 31  1  0  0  0  0
 22 38  1  1  0  0  0
 23 25  1  0  0  0  0
 23 24  1  1  0  0  0
 25 27  1  0  0  0  0
 25 26  1  6  0  0  0
 27 30  1  0  0  0  0
 27 28  1  1  0  0  0
 30 21  1  6  0  0  0
 30 31  1  0  0  0  0
 32 34  1  0  0  0  0
 32 41  1  0  0  0  0
 32 33  1  1  0  0  0
 34 35  1  0  0  0  0
 35 37  1  0  0  0  0
 35 36  1  1  0  0  0
 37 39  1  0  0  0  0
 37 38  1  6  0  0  0
 39 41  1  0  0  0  0
 39 40  1  1  0  0  0
 41 42  1  6  0  0  0
M  CHG  6  12   1  20   1  24   1  29   1  33   1  36   1
M  END
>  <CHROM.1>
-163.41354187,-69.76262993,-101.43367953,-153.49356448,-76.00540968,-85.52058421
86.10297033,-66.23722802,-169.85518834,109.22450804,174.90349485,160.63928915
-20.05585833,-164.66828273,72.30452878,-80.31473744,-171.57810544,-169.80750974
-65.53724496,50.41567293,-135.00607709,61.14983693,-4.87072321,-3.72907392
2.55856368,-0.22799302,0.45405064,1.47627023

>  <Name>
1NEM.B

>  <RI>
0

>  <Rbt.Current_Directory>
/home/itssahil/PROJECTS/Mol_Feturizer/New_Systems/rnas/1nem

>  <Rbt.Executable>
rbdock ($Id: //depot/dev/client3/rdock/2013.1/src/exe/rbdock.cxx#4 $)

>  <Rbt.Library>
libRbt.so (2013.1, Build901 2013/11/27)

>  <Rbt.Parameter_File>
/export/apps/rDock/src/rDock_2013.1_src/data/scripts/dock_solv.prm

>  <Rbt.Receptor>
prm/blind_docking_40.prm

>  <SCORE>
3.6486

>  <SCORE.INTER>
-26.1264

>  <SCORE.INTER.CONST>
1

>  <SCORE.INTER.POLAR>
-5.19952

>  <SCORE.INTER.ROT>
9

>  <SCORE.INTER.SOLV>
35.5081

>  <SCORE.INTER.VDW>
-21.5219

>  <SCORE.INTER.norm>
-0.622058

>  <SCORE.INTRA>
20.4602

>  <SCORE.INTRA.DIHEDRAL>
13.4532

>  <SCORE.INTRA.DIHEDRAL.0>
22.4324

>  <SCORE.INTRA.POLAR>
0.626365

>  <SCORE.INTRA.POLAR.0>
-1.83749

>  <SCORE.INTRA.REPUL>
0.0994806

>  <SCORE.INTRA.REPUL.0>
0

>  <SCORE.INTRA.SOLV>
2.20907

>  <SCORE.INTRA.SOLV.lig_0>
-160.638

>  <SCORE.INTRA.VDW>
10.0021

>  <SCORE.INTRA.VDW.0>
-7.61953

>  <SCORE.INTRA.norm>
0.487149

>  <SCORE.RESTR>
9.3148

>  <SCORE.RESTR.CAVITY>
9.3148

>  <SCORE.RESTR.norm>
0.221781

>  <SCORE.SYSTEM>
0

>  <SCORE.SYSTEM.CONST>
0

>  <SCORE.SYSTEM.DIHEDRAL>
0

>  <SCORE.SYSTEM.SOLV>
0

>  <SCORE.SYSTEM.norm>
0

>  <SCORE.heavy>
42

>  <SCORE.norm>
0.0868714

>  <RMSD>
7.904

$$$$
1NEM.B
 OpenBabel11021811403D
libRbt.so/2013.1/901 2013/11/27
 42 45  0  0  0  0  0  0  0  0999 V2000
   -4.7673    0.7202   -0.5564 O   0  0  0  0  0  0  0  0  0  0  0  0
   -3.8165    1.7863   -0.5951 C   0  0  0  0  0  0  0  0  0  0  0  0
   -2.4037    1.3160   -0.9379 C   0  0  1  0  0  0  0  0  0  0  0  0
   -1.4750    2.3907   -0.8294 O   0  0  0  0  0  0  0  0  0  0  0  0
   -1.8358    0.2707    0.0088 C   0  0  1  0  0  0  0  0  0  0  0  0
   -2.5214   -0.9561   -0.2523 O   0  0  0  0  0  0  0  0  0  0  0  0
   -0.3798    0.3350   -0.4128 C   0  0  1  0  0  0  0  0  0  0  0  0
   -0.1711   -0.2101   -1.7198 O   0  0  0  0  0  0  0  0  0  0  0  0
   -0.2081    1.8583   -0.4421 C   0  0  2  0  0  0  0  0  0  0  0  0
   -2.4244   -1.9413    0.7363 C   0  0  2  0  0  0  0  0  0  0  0  0
   -2.9266   -3.2767    0.1709 C   0  0  2  0  0  0  0  0  0  0  0  0
   -4.2872   -3.1080   -0.4042 N   0  3  0  0  0  0  0  0  0  0  0  0
   -2.8974   -4.3691    1.2448 C   0  0  1  0  0  0  0  0  0  0  0  0
   -1.5503   -4.7173    1.5355 O   0  0  0  0  0  0  0  0  0  0  0  0
   -3.5957   -3.9035    2.5262 C   0  0  2  0  0  0  0  0  0  0  0  0
   -4.9942   -3.7699    2.3060 O   0  0  0  0  0  0  0  0  0  0  0  0
   -3.0092   -2.5677    2.9740 C   0  0  1  0  0  0  0  0  0  0  0  0
   -3.1422   -1.5998    1.9150 O   0  0  0  0  0  0  0  0  0  0  0  0
   -3.6825   -2.0028    4.2124 C   0  0  0  0  0  0  0  0  0  0  0  0
   -5.0122   -1.4303    3.9056 N   0  3  0  0  0  0  0  0  0  0  0  0
    4.7755    0.2100   -0.9017 C   0  0  0  0  0  0  0  0  0  0  0  0
    2.5042    1.1061    1.8850 C   0  0  2  0  0  0  0  0  0  0  0  0
    3.1848    0.4027    3.0568 C   0  0  2  0  0  0  0  0  0  0  0  0
    2.7294    0.9872    4.3408 N   0  3  0  0  0  0  0  0  0  0  0  0
    4.6971    0.5437    2.9469 C   0  0  1  0  0  0  0  0  0  0  0  0
    5.3203   -0.1789    3.9975 O   0  0  0  0  0  0  0  0  0  0  0  0
    5.1630    0.0104    1.5939 C   0  0  2  0  0  0  0  0  0  0  0  0
    6.5650    0.2018    1.4552 O   0  0  0  0  0  0  0  0  0  0  0  0
    3.9770    0.8703   -1.9598 N   0  3  0  0  0  0  0  0  0  0  0  0
    4.4293    0.7483    0.4757 C   0  0  2  0  0  0  0  0  0  0  0  0
    3.0035    0.6131    0.6446 O   0  0  0  0  0  0  0  0  0  0  0  0
    1.2721    5.7447   -0.3406 C   0  0  2  0  0  0  0  0  0  0  0  0
    0.8951    6.5552   -1.5214 N   0  3  0  0  0  0  0  0  0  0  0  0
    2.7474    5.3682   -0.4165 C   0  0  0  0  0  0  0  0  0  0  0  0
    3.1488    4.5323    0.7907 C   0  0  2  0  0  0  0  0  0  0  0  0
    4.5624    4.2087    0.6589 N   0  3  0  0  0  0  0  0  0  0  0  0
    2.3024    3.2627    0.8454 C   0  0  1  0  0  0  0  0  0  0  0  0
    2.6688    2.4911    2.0059 O   0  0  0  0  0  0  0  0  0  0  0  0
    0.8080    3.6070    0.9125 C   0  0  2  0  0  0  0  0  0  0  0  0
    0.0357    2.3925    0.8573 O   0  0  0  0  0  0  0  0  0  0  0  0
    0.3882    4.5017   -0.2511 C   0  0  1  0  0  0  0  0  0  0  0  0
   -0.9670    4.8956   -0.0817 O   0  0  0  0  0  0  0  0  0  0  0  0
  1  2  1  0  0  0  0
  3  2  1  1  0  0  0
  3  5  1  0  0  0  0
  3  4  1  0  0  0  0
  4  9  1  0  0  0  0
  5  7  1  0  0  0  0
  5  6  1  6  0  0  0
  7  9  1  0  0  0  0
  7  8  1  6  0  0  0
  9 40  1  1  0  0  0
 10  6  1  6  0  0  0
 10 11  1  0  0  0  0
 10 18  1  0  0  0  0
 11 13  1  0  0  0  0
 11 12  1  1  0  0  0
 13 15  1  0  0  0  0
 13 14  1  1  0  0  0
 15 17  1  0  0  0  0
 15 16  1  6  0  0  0
 17 19  1  1  0  0  0
 17 18  1  0  0  0  0
 19 20  1  0  0  0  0
 21 29  1  0  0  0  0
 22 23  1  0  0  0  0
 22 31  1  0  0  0  0
 22 38  1  1  0  0  0
 23 25  1  0  0  0  0
 23 24  1  1  0  0  0
 25 27  1  0  0  0  0
 25 26  1  1  0  0  0
 27 30  1  0  0  0  0
 27 28  1  6  0  0  0
 30 21  1  6  0  0  0
 30 31  1  0  0  0  0
 32 34  1  0  0  0  0
 32 41  1  0  0  0  0
 32 33  1  6  0  0  0
 34 35  1  0  0  0  0
 35 37  1  0  0  0  0
 35 36  1  6  0  0  0
 37 39  1  0  0  0  0
 37 38  1  1  0  0  0
 39 41  1  0  0  0  0
 39 40  1  6  0  0  0
 41 42  1  1  0  0  0
M  CHG  6  12   1  20   1  24   1  29   1  33   1  36   1
M  END
>  <CHROM.1>
-57.41087291,-174.06899360,-162.92408986,-167.05687229,32.97386477,-93.77509013
-148.45108041,-169.66056513,66.98926537,-75.40796162,-176.74978422,175.69390909
-45.90414076,168.60679606,-49.60265390,-174.99423029,-58.95027154,40.29503528
52.01439413,-150.57864338,-82.94389624,-59.31613505,0.19583242,0.65425980
0.86222569,2.54810166,0.21022447,2.70828705

>  <Name>
1NEM.B

>  <RI>
0

>  <Rbt.Current_Directory>
/home/itssahil/PROJECTS/Mol_Feturizer/New_Systems/rnas/1nem

>  <Rbt.Executable>
rbdock ($Id: //depot/dev/client3/rdock/2013.1/src/exe/rbdock.cxx#4 $)

>  <Rbt.Library>
libRbt.so (2013.1, Build901 2013/11/27)

>  <Rbt.Parameter_File>
/export/apps/rDock/src/rDock_2013.1_src/data/scripts/dock_solv.prm

>  <Rbt.Receptor>
prm/pocket_docking_5.prm

>  <SCORE>
-40.8704

>  <SCORE.INTER>
-47.0534

>  <SCORE.INTER.CONST>
1

>  <SCORE.INTER.POLAR>
-6.36084

>  <SCORE.INTER.ROT>
9

>  <SCORE.INTER.SOLV>
29.2687

>  <SCORE.INTER.VDW>
-29.5224

>  <SCORE.INTER.norm>
-1.12032

>  <SCORE.INTRA>
5.67046

>  <SCORE.INTRA.DIHEDRAL>
-0.46882

>  <SCORE.INTRA.DIHEDRAL.0>
22.4324

>  <SCORE.INTRA.POLAR>
1.13695

>  <SCORE.INTRA.POLAR.0>
-1.83749

>  <SCORE.INTRA.REPUL>
0.00191634

>  <SCORE.INTRA.REPUL.0>
0

>  <SCORE.INTRA.SOLV>
-2.6328

>  <SCORE.INTRA.SOLV.lig_0>
-160.638

>  <SCORE.INTRA.VDW>
3.34606

>  <SCORE.INTRA.VDW.0>
-7.61953

>  <SCORE.INTRA.norm>
0.135011

>  <SCORE.RESTR>
0.512589

>  <SCORE.RESTR.CAVITY>
0.512589

>  <SCORE.RESTR.norm>
0.0122045

>  <SCORE.SYSTEM>
0

>  <SCORE.SYSTEM.CONST>
0

>  <SCORE.SYSTEM.DIHEDRAL>
0

>  <SCORE.SYSTEM.SOLV>
0

>  <SCORE.SYSTEM.norm>
0

>  <SCORE.heavy>
42

>  <SCORE.norm>
-0.973104

>  <RMSD>
7.907

$$$$
1NEM.B
 OpenBabel11021811403D
libRbt.so/2013.1/901 2013/11/27
 42 45  0  0  0  0  0  0  0  0999 V2000
   -1.4922    3.7692   -3.3597 O   0  0  0  0  0  0  0  0  0  0  0  0
   -1.7781    3.6371   -1.9658 C   0  0  0  0  0  0  0  0  0  0  0  0
   -1.0948    2.4291   -1.3268 C   0  0  1  0  0  0  0  0  0  0  0  0
    0.2922    2.4050   -1.6514 O   0  0  0  0  0  0  0  0  0  0  0  0
   -1.0944    2.4311    0.1936 C   0  0  1  0  0  0  0  0  0  0  0  0
   -2.4300    2.1506    0.6190 O   0  0  0  0  0  0  0  0  0  0  0  0
   -0.0657    1.3417    0.4320 C   0  0  1  0  0  0  0  0  0  0  0  0
   -0.5572    0.0462    0.0726 O   0  0  0  0  0  0  0  0  0  0  0  0
    1.0008    1.7988   -0.5702 C   0  0  2  0  0  0  0  0  0  0  0  0
   -2.7744    0.7988    0.7244 C   0  0  2  0  0  0  0  0  0  0  0  0
   -3.5868    0.3858   -0.5105 C   0  0  2  0  0  0  0  0  0  0  0  0
   -4.7397    1.3063   -0.6941 N   0  3  0  0  0  0  0  0  0  0  0  0
   -4.0396   -1.0739   -0.4022 C   0  0  1  0  0  0  0  0  0  0  0  0
   -2.9175   -1.9342   -0.5483 O   0  0  0  0  0  0  0  0  0  0  0  0
   -4.7216   -1.3429    0.9427 C   0  0  2  0  0  0  0  0  0  0  0  0
   -5.9679   -0.6614    1.0096 O   0  0  0  0  0  0  0  0  0  0  0  0
   -3.8143   -0.8816    2.0797 C   0  0  1  0  0  0  0  0  0  0  0  0
   -3.4998    0.5147    1.9136 O   0  0  0  0  0  0  0  0  0  0  0  0
   -4.4363   -1.0616    3.4533 C   0  0  0  0  0  0  0  0  0  0  0  0
   -5.6434   -0.2233    3.6272 N   0  3  0  0  0  0  0  0  0  0  0  0
    1.9926   -2.0636    1.4704 C   0  0  0  0  0  0  0  0  0  0  0  0
    2.8488    1.4982    2.0250 C   0  0  2  0  0  0  0  0  0  0  0  0
    3.1144    1.5061    3.5285 C   0  0  2  0  0  0  0  0  0  0  0  0
    3.9127    2.6980    3.9023 N   0  3  0  0  0  0  0  0  0  0  0  0
    3.8680    0.2467    3.9349 C   0  0  1  0  0  0  0  0  0  0  0  0
    4.0404    0.2288    5.3436 O   0  0  0  0  0  0  0  0  0  0  0  0
    3.0848   -0.9848    3.4856 C   0  0  2  0  0  0  0  0  0  0  0  0
    3.8150   -2.1637    3.7998 O   0  0  0  0  0  0  0  0  0  0  0  0
    2.5978   -2.7041    0.2803 N   0  3  0  0  0  0  0  0  0  0  0  0
    2.8448   -0.9139    1.9788 C   0  0  2  0  0  0  0  0  0  0  0  0
    2.1605    0.3102    1.6427 O   0  0  0  0  0  0  0  0  0  0  0  0
    4.4976    2.9463   -2.6903 C   0  0  2  0  0  0  0  0  0  0  0  0
    4.4021    2.9720   -4.1680 N   0  3  0  0  0  0  0  0  0  0  0  0
    5.2414    1.6949   -2.2379 C   0  0  0  0  0  0  0  0  0  0  0  0
    5.3453    1.6539   -0.7197 C   0  0  2  0  0  0  0  0  0  0  0  0
    6.0640    0.4414   -0.3545 N   0  3  0  0  0  0  0  0  0  0  0  0
    3.9476    1.6646   -0.1051 C   0  0  1  0  0  0  0  0  0  0  0  0
    4.0551    1.6542    1.3318 O   0  0  0  0  0  0  0  0  0  0  0  0
    3.1669    2.9092   -0.5495 C   0  0  2  0  0  0  0  0  0  0  0  0
    1.8221    2.8363   -0.0388 O   0  0  0  0  0  0  0  0  0  0  0  0
    3.1025    3.0144   -2.0711 C   0  0  1  0  0  0  0  0  0  0  0  0
    2.4818    4.2400   -2.4361 O   0  0  0  0  0  0  0  0  0  0  0  0
  1  2  1  0  0  0  0
  3  2  1  6  0  0  0
  3  5  1  0  0  0  0
  3  4  1  0  0  0  0
  4  9  1  0  0  0  0
  5  7  1  0  0  0  0
  5  6  1  1  0  0  0
  7  9  1  0  0  0  0
  7  8  1  6  0  0  0
  9 40  1  1  0  0  0
 10  6  1  6  0  0  0
 10 11  1  0  0  0  0
 10 18  1  0  0  0  0
 11 13  1  0  0  0  0
 11 12  1  1  0  0  0
 13 15  1  0  0  0  0
 13 14  1  1  0  0  0
 15 17  1  0  0  0  0
 15 16  1  6  0  0  0
 17 19  1  1  0  0  0
 17 18  1  0  0  0  0
 19 20  1  0  0  0  0
 21 29  1  0  0  0  0
 22 23  1  0  0  0  0
 22 31  1  0  0  0  0
 22 38  1  6  0  0  0
 23 25  1  0  0  0  0
 23 24  1  6  0  0  0
 25 27  1  0  0  0  0
 25 26  1  1  0  0  0
 27 30  1  0  0  0  0
 27 28  1  6  0  0  0
 30 21  1  1  0  0  0
 30 31  1  0  0  0  0
 32 34  1  0  0  0  0
 32 41  1  0  0  0  0
 32 33  1  6  0  0  0
 34 35  1  0  0  0  0
 35 37  1  0  0  0  0
 35 36  1  6  0  0  0
 37 39  1  0  0  0  0
 37 38  1  1  0  0  0
 39 41  1  0  0  0  0
 39 40  1  6  0  0  0
 41 42  1  1  0  0  0
M  CHG  6  12   1  20   1  24   1  29   1  33   1  36   1
M  END
>  <CHROM.1>
-49.43047585,49.94685750,86.16009026,-101.04160381,65.50481241,-93.88749967
68.37960259,-172.25134732,57.20808220,-64.02256203,72.54596051,-131.36971062
176.21684302,-179.98395833,-179.89970368,-177.98152715,-62.33202560,74.60863465
-179.04080629,-172.53616851,-66.63307511,-57.89998894,0.57989075,0.93062479
0.50478163,2.98195997,0.10549711,2.14614836

>  <Name>
1NEM.B

>  <RI>
0

>  <Rbt.Current_Directory>
/home/itssahil/PROJECTS/Mol_Feturizer/New_Systems/rnas/1nem

>  <Rbt.Executable>
rbdock ($Id: //depot/dev/client3/rdock/2013.1/src/exe/rbdock.cxx#4 $)

>  <Rbt.Library>
libRbt.so (2013.1, Build901 2013/11/27)

>  <Rbt.Parameter_File>
/export/apps/rDock/src/rDock_2013.1_src/data/scripts/dock_solv.prm

>  <Rbt.Receptor>
prm/pocket_docking_7.prm

>  <SCORE>
-33.8418

>  <SCORE.INTER>
-44.2845

>  <SCORE.INTER.CONST>
1

>  <SCORE.INTER.POLAR>
-7.32436

>  <SCORE.INTER.ROT>
9

>  <SCORE.INTER.SOLV>
40.8866

>  <SCORE.INTER.VDW>
-28.3373

>  <SCORE.INTER.norm>
-1.05439

>  <SCORE.INTRA>
10.4427

>  <SCORE.INTRA.DIHEDRAL>
-1.21646

>  <SCORE.INTRA.DIHEDRAL.0>
22.4324

>  <SCORE.INTRA.POLAR>
1.3763

>  <SCORE.INTRA.POLAR.0>
-1.83749

>  <SCORE.INTRA.REPUL>
0.228388

>  <SCORE.INTRA.REPUL.0>
0

>  <SCORE.INTRA.SOLV>
-4.0608

>  <SCORE.INTRA.SOLV.lig_0>
-160.638

>  <SCORE.INTRA.VDW>
7.26

>  <SCORE.INTRA.VDW.0>
-7.61953

>  <SCORE.INTRA.norm>
0.248637

>  <SCORE.RESTR>
0

>  <SCORE.RESTR.CAVITY>
0

>  <SCORE.RESTR.norm>
0

>  <SCORE.SYSTEM>
0

>  <SCORE.SYSTEM.CONST>
0

>  <SCORE.SYSTEM.DIHEDRAL>
0

>  <SCORE.SYSTEM.SOLV>
0

>  <SCORE.SYSTEM.norm>
0

>  <SCORE.heavy>
42

>  <SCORE.norm>
-0.805756

>  <RMSD>
7.917

$$$$
1NEM.B
 OpenBabel11021811403D
libRbt.so/2013.1/901 2013/11/27
 42 45  0  0  0  0  0  0  0  0999 V2000
    1.9434    2.6262    5.9083 O   0  0  0  0  0  0  0  0  0  0  0  0
    1.8744    1.1995    5.9530 C   0  0  0  0  0  0  0  0  0  0  0  0
    2.9240    0.5218    5.0734 C   0  0  1  0  0  0  0  0  0  0  0  0
    2.8255    0.9800    3.7281 O   0  0  0  0  0  0  0  0  0  0  0  0
    4.3637    0.8411    5.4434 C   0  0  1  0  0  0  0  0  0  0  0  0
    4.6520    0.1517    6.6619 O   0  0  0  0  0  0  0  0  0  0  0  0
    5.0503    0.3223    4.1938 C   0  0  1  0  0  0  0  0  0  0  0  0
    5.0078   -1.1060    4.1073 O   0  0  0  0  0  0  0  0  0  0  0  0
    4.1259    0.9431    3.1398 C   0  0  2  0  0  0  0  0  0  0  0  0
    5.8686    0.4658    7.2772 C   0  0  2  0  0  0  0  0  0  0  0  0
    6.1730   -0.5790    8.3594 C   0  0  2  0  0  0  0  0  0  0  0  0
    5.0205   -0.6996    9.2909 N   0  3  0  0  0  0  0  0  0  0  0  0
    7.4676   -0.2334    9.1023 C   0  0  1  0  0  0  0  0  0  0  0  0
    8.5810   -0.4393    8.2430 O   0  0  0  0  0  0  0  0  0  0  0  0
    7.4552    1.2191    9.5883 C   0  0  2  0  0  0  0  0  0  0  0  0
    6.4914    1.3865   10.6203 O   0  0  0  0  0  0  0  0  0  0  0  0
    7.1347    2.1482    8.4208 C   0  0  1  0  0  0  0  0  0  0  0  0
    5.8730    1.7736    7.8347 O   0  0  0  0  0  0  0  0  0  0  0  0
    7.0484    3.6096    8.8245 C   0  0  0  0  0  0  0  0  0  0  0  0
    7.1245    4.5115    7.6537 N   0  3  0  0  0  0  0  0  0  0  0  0
    1.9440    4.9339   -0.1035 C   0  0  0  0  0  0  0  0  0  0  0  0
    3.7814    1.7524    0.3750 C   0  0  2  0  0  0  0  0  0  0  0  0
    3.2119    0.9098   -0.7638 C   0  0  2  0  0  0  0  0  0  0  0  0
    4.1143   -0.2281   -1.0611 N   0  3  0  0  0  0  0  0  0  0  0  0
    3.0460    1.7620   -2.0149 C   0  0  1  0  0  0  0  0  0  0  0  0
    2.4444    0.9883   -3.0415 O   0  0  0  0  0  0  0  0  0  0  0  0
    2.1772    2.9763   -1.6945 C   0  0  2  0  0  0  0  0  0  0  0  0
    2.0744    3.8132   -2.8392 O   0  0  0  0  0  0  0  0  0  0  0  0
    2.6330    5.7604    0.9140 N   0  3  0  0  0  0  0  0  0  0  0  0
    2.8003    3.7577   -0.5394 C   0  0  2  0  0  0  0  0  0  0  0  0
    2.9676    2.8991    0.6071 O   0  0  0  0  0  0  0  0  0  0  0  0
    7.8265    3.9814    2.7542 C   0  0  2  0  0  0  0  0  0  0  0  0
    8.4385    5.0036    3.6340 N   0  3  0  0  0  0  0  0  0  0  0  0
    7.6971    4.5249    1.3357 C   0  0  0  0  0  0  0  0  0  0  0  0
    7.0670    3.4849    0.4199 C   0  0  2  0  0  0  0  0  0  0  0  0
    6.9735    4.0627   -0.9133 N   0  3  0  0  0  0  0  0  0  0  0  0
    5.6855    3.1019    0.9455 C   0  0  1  0  0  0  0  0  0  0  0  0
    5.1079    2.0970    0.0894 O   0  0  0  0  0  0  0  0  0  0  0  0
    5.7793    2.5592    2.3783 C   0  0  2  0  0  0  0  0  0  0  0  0
    4.4531    2.3065    2.8804 O   0  0  0  0  0  0  0  0  0  0  0  0
    6.4684    3.5544    3.3086 C   0  0  1  0  0  0  0  0  0  0  0  0
    6.6445    2.9631    4.5892 O   0  0  0  0  0  0  0  0  0  0  0  0
  1  2  1  0  0  0  0
  3  2  1  1  0  0  0
  3  5  1  0  0  0  0
  3  4  1  0  0  0  0
  4  9  1  0  0  0  0
  5  7  1  0  0  0  0
  5  6  1  1  0  0  0
  7  9  1  0  0  0  0
  7  8  1  1  0  0  0
  9 40  1  1  0  0  0
 10  6  1  1  0  0  0
 10 11  1  0  0  0  0
 10 18  1  0  0  0  0
 11 13  1  0  0  0  0
 11 12  1  1  0  0  0
 13 15  1  0  0  0  0
 13 14  1  6  0  0  0
 15 17  1  0  0  0  0
 15 16  1  1  0  0  0
 17 19  1  1  0  0  0
 17 18  1  0  0  0  0
 19 20  1  0  0  0  0
 21 29  1  0  0  0  0
 22 23  1  0  0  0  0
 22 31  1  0  0  0  0
 22 38  1  6  0  0  0
 23 25  1  0  0  0  0
 23 24  1  6  0  0  0
 25 27  1  0  0  0  0
 25 26  1  6  0  0  0
 27 30  1  0  0  0  0
 27 28  1  6  0  0  0
 30 21  1  1  0  0  0
 30 31  1  0  0  0  0
 32 34  1  0  0  0  0
 32 41  1  0  0  0  0
 32 33  1  1  0  0  0
 34 35  1  0  0  0  0
 35 37  1  0  0  0  0
 35 36  1  6  0  0  0
 37 39  1  0  0  0  0
 37 38  1  6  0  0  0
 39 41  1  0  0  0  0
 39 40  1  1  0  0  0
 41 42  1  1  0  0  0
M  CHG  6  12   1  20   1  24   1  29   1  33   1  36   1
M  END
>  <CHROM.1>
170.49567528,-55.64269530,-171.13492487,-166.57065210,59.89727906,175.10527680
42.13252462,-63.17806488,69.36235168,163.70343963,-178.40244489,-173.84203082
-72.34307919,168.38713152,-149.60026487,51.46433083,175.83907660,179.12948748
-149.15063732,-173.64952612,114.23526021,142.79784147,4.99668220,2.07454724
3.59805674,1.19108379,0.67061734,2.00001637

>  <Name>
1NEM.B

>  <RI>
0

>  <Rbt.Current_Directory>
/home/itssahil/PROJECTS/Mol_Feturizer/New_Systems/rnas/1nem

>  <Rbt.Executable>
rbdock ($Id: //depot/dev/client3/rdock/2013.1/src/exe/rbdock.cxx#4 $)

>  <Rbt.Library>
libRbt.so (2013.1, Build901 2013/11/27)

>  <Rbt.Parameter_File>
/export/apps/rDock/src/rDock_2013.1_src/data/scripts/dock_solv.prm

>  <Rbt.Receptor>
prm/pocket_docking_6.prm

>  <SCORE>
-30.8084

>  <SCORE.INTER>
-34.5585

>  <SCORE.INTER.CONST>
1

>  <SCORE.INTER.POLAR>
-5.4488

>  <SCORE.INTER.ROT>
9

>  <SCORE.INTER.SOLV>
20.6994

>  <SCORE.INTER.VDW>
-21.3761

>  <SCORE.INTER.norm>
-0.822821

>  <SCORE.INTRA>
3.75011

>  <SCORE.INTRA.DIHEDRAL>
-0.0724588

>  <SCORE.INTRA.DIHEDRAL.0>
22.4324

>  <SCORE.INTRA.POLAR>
1.0213

>  <SCORE.INTRA.POLAR.0>
-1.83749

>  <SCORE.INTRA.REPUL>
0.0509893

>  <SCORE.INTRA.REPUL.0>
0

>  <SCORE.INTRA.SOLV>
-6.48172

>  <SCORE.INTRA.SOLV.lig_0>
-160.638

>  <SCORE.INTRA.VDW>
3.29981

>  <SCORE.INTRA.VDW.0>
-7.61953

>  <SCORE.INTRA.norm>
0.0892883

>  <SCORE.RESTR>
0

>  <SCORE.RESTR.CAVITY>
0

>  <SCORE.RESTR.norm>
0

>  <SCORE.SYSTEM>
0

>  <SCORE.SYSTEM.CONST>
0

>  <SCORE.SYSTEM.DIHEDRAL>
0

>  <SCORE.SYSTEM.SOLV>
0

>  <SCORE.SYSTEM.norm>
0

>  <SCORE.heavy>
42

>  <SCORE.norm>
-0.733532

>  <RMSD>
7.931

$$$$
1NEM.B
 OpenBabel11021811403D
libRbt.so/2013.1/901 2013/11/27
 42 45  0  0  0  0  0  0  0  0999 V2000
    7.3109    4.7866   -2.2934 O   0  0  0  0  0  0  0  0  0  0  0  0
    5.9379    4.4103   -2.1692 C   0  0  0  0  0  0  0  0  0  0  0  0
    5.7525    2.9510   -1.7560 C   0  0  1  0  0  0  0  0  0  0  0  0
    5.9149    2.8016   -0.3486 O   0  0  0  0  0  0  0  0  0  0  0  0
    4.3602    2.3931   -2.0050 C   0  0  1  0  0  0  0  0  0  0  0  0
    4.2189    2.2184   -3.4167 O   0  0  0  0  0  0  0  0  0  0  0  0
    4.4594    1.1281   -1.1734 C   0  0  1  0  0  0  0  0  0  0  0  0
    5.3439    0.1657   -1.7569 O   0  0  0  0  0  0  0  0  0  0  0  0
    5.0878    1.7242    0.0917 C   0  0  2  0  0  0  0  0  0  0  0  0
    2.9222    1.9770   -3.8832 C   0  0  2  0  0  0  0  0  0  0  0  0
    2.9969    1.3111   -5.2639 C   0  0  2  0  0  0  0  0  0  0  0  0
    3.8427    2.1238   -6.1774 N   0  3  0  0  0  0  0  0  0  0  0  0
    1.5943    1.0890   -5.8389 C   0  0  1  0  0  0  0  0  0  0  0  0
    0.9352    0.0636   -5.1077 O   0  0  0  0  0  0  0  0  0  0  0  0
    0.7638    2.3749   -5.7830 C   0  0  2  0  0  0  0  0  0  0  0  0
    1.2845    3.3389   -6.6895 O   0  0  0  0  0  0  0  0  0  0  0  0
    0.7785    2.9341   -4.3631 C   0  0  1  0  0  0  0  0  0  0  0  0
    2.1385    3.1615   -3.9451 O   0  0  0  0  0  0  0  0  0  0  0  0
    0.0212    4.2433   -4.2270 C   0  0  0  0  0  0  0  0  0  0  0  0
    0.0398    4.7502   -2.8368 N   0  3  0  0  0  0  0  0  0  0  0  0
    1.2401   -3.8648    2.3798 C   0  0  0  0  0  0  0  0  0  0  0  0
    2.3038   -0.7164    0.7416 C   0  0  2  0  0  0  0  0  0  0  0  0
    1.0694   -0.3886   -0.0949 C   0  0  2  0  0  0  0  0  0  0  0  0
    1.0723    1.0445   -0.4741 N   0  3  0  0  0  0  0  0  0  0  0  0
   -0.1962   -0.6992    0.6931 C   0  0  1  0  0  0  0  0  0  0  0  0
   -1.3341   -0.4640   -0.1219 O   0  0  0  0  0  0  0  0  0  0  0  0
   -0.1690   -2.1561    1.1498 C   0  0  2  0  0  0  0  0  0  0  0  0
   -1.3142   -2.4352    1.9449 O   0  0  0  0  0  0  0  0  0  0  0  0
    2.5351   -4.4320    1.9390 N   0  3  0  0  0  0  0  0  0  0  0  0
    1.0979   -2.4109    1.9642 C   0  0  2  0  0  0  0  0  0  0  0  0
    2.2639   -2.0695    1.1873 O   0  0  0  0  0  0  0  0  0  0  0  0
    5.5329    1.5463    4.3389 C   0  0  2  0  0  0  0  0  0  0  0  0
    6.8893    1.7512    4.8971 N   0  3  0  0  0  0  0  0  0  0  0  0
    5.1914    0.0605    4.3315 C   0  0  0  0  0  0  0  0  0  0  0  0
    3.7997   -0.1655    3.7577 C   0  0  2  0  0  0  0  0  0  0  0  0
    3.5353   -1.5972    3.7800 N   0  3  0  0  0  0  0  0  0  0  0  0
    3.7330    0.3784    2.3326 C   0  0  1  0  0  0  0  0  0  0  0  0
    2.4052    0.1861    1.8071 O   0  0  0  0  0  0  0  0  0  0  0  0
    4.0820    1.8730    2.3034 C   0  0  2  0  0  0  0  0  0  0  0  0
    4.1121    2.3291    0.9375 O   0  0  0  0  0  0  0  0  0  0  0  0
    5.4463    2.1404    2.9340 C   0  0  1  0  0  0  0  0  0  0  0  0
    5.6727    3.5422    2.9980 O   0  0  0  0  0  0  0  0  0  0  0  0
  1  2  1  0  0  0  0
  3  2  1  1  0  0  0
  3  5  1  0  0  0  0
  3  4  1  0  0  0  0
  4  9  1  0  0  0  0
  5  7  1  0  0  0  0
  5  6  1  6  0  0  0
  7  9  1  0  0  0  0
  7  8  1  6  0  0  0
  9 40  1  1  0  0  0
 10  6  1  6  0  0  0
 10 11  1  0  0  0  0
 10 18  1  0  0  0  0
 11 13  1  0  0  0  0
 11 12  1  6  0  0  0
 13 15  1  0  0  0  0
 13 14  1  1  0  0  0
 15 17  1  0  0  0  0
 15 16  1  6  0  0  0
 17 19  1  6  0  0  0
 17 18  1  0  0  0  0
 19 20  1  0  0  0  0
 21 29  1  0  0  0  0
 22 23  1  0  0  0  0
 22 31  1  0  0  0  0
 22 38  1  1  0  0  0
 23 25  1  0  0  0  0
 23 24  1  1  0  0  0
 25 27  1  0  0  0  0
 25 26  1  6  0  0  0
 27 30  1  0  0  0  0
 27 28  1  1  0  0  0
 30 21  1  6  0  0  0
 30 31  1  0  0  0  0
 32 34  1  0  0  0  0
 32 41  1  0  0  0  0
 32 33  1  6  0  0  0
 34 35  1  0  0  0  0
 35 37  1  0  0  0  0
 35 36  1  6  0  0  0
 37 39  1  0  0  0  0
 37 38  1  1  0  0  0
 39 41  1  0  0  0  0
 39 40  1  6  0  0  0
 41 42  1  1  0  0  0
M  CHG  6  12   1  20   1  24   1  29   1  33   1  36   1
M  END
>  <CHROM.1>
66.74690573,81.01375293,-167.23396263,-159.06322674,-175.30807766,-119.67990403
172.86535818,63.76147292,73.56664331,179.29143745,-167.62329199,124.75757880
33.72903197,-155.15020047,57.99321483,-74.52033504,62.94879977,-177.02528542
53.26243974,-113.57830034,-62.35006003,-39.92558826,2.96837935,1.04222004
-0.56797592,-1.72564475,0.62109401,2.07595215

>  <Name>
1NEM.B

>  <RI>
0

>  <Rbt.Current_Directory>
/home/itssahil/PROJECTS/Mol_Feturizer/New_Systems/rnas/1nem

>  <Rbt.Executable>
rbdock ($Id: //depot/dev/client3/rdock/2013.1/src/exe/rbdock.cxx#4 $)

>  <Rbt.Library>
libRbt.so (2013.1, Build901 2013/11/27)

>  <Rbt.Parameter_File>
/export/apps/rDock/src/rDock_2013.1_src/data/scripts/dock_solv.prm

>  <Rbt.Receptor>
prm/pocket_docking_8.prm

>  <SCORE>
-18.7038

>  <SCORE.INTER>
-30.8186

>  <SCORE.INTER.CONST>
1

>  <SCORE.INTER.POLAR>
-4.00403

>  <SCORE.INTER.ROT>
9

>  <SCORE.INTER.SOLV>
27.4158

>  <SCORE.INTER.VDW>
-25.9376

>  <SCORE.INTER.norm>
-0.733777

>  <SCORE.INTRA>
12.1148

>  <SCORE.INTRA.DIHEDRAL>
10.6701

>  <SCORE.INTRA.DIHEDRAL.0>
22.4324

>  <SCORE.INTRA.POLAR>
1.23949

>  <SCORE.INTRA.POLAR.0>
-1.83749

>  <SCORE.INTRA.REPUL>
0

>  <SCORE.INTRA.REPUL.0>
0

>  <SCORE.INTRA.SOLV>
0.724317

>  <SCORE.INTRA.SOLV.lig_0>
-160.638

>  <SCORE.INTRA.VDW>
2.20332

>  <SCORE.INTRA.VDW.0>
-7.61953

>  <SCORE.INTRA.norm>
0.288448

>  <SCORE.RESTR>
0

>  <SCORE.RESTR.CAVITY>
0

>  <SCORE.RESTR.norm>
0

>  <SCORE.SYSTEM>
0

>  <SCORE.SYSTEM.CONST>
0

>  <SCORE.SYSTEM.DIHEDRAL>
0

>  <SCORE.SYSTEM.SOLV>
0

>  <SCORE.SYSTEM.norm>
0

>  <SCORE.heavy>
42

>  <SCORE.norm>
-0.445329

>  <RMSD>
7.938

$$$$
1NEM.B
 OpenBabel11021811403D
libRbt.so/2013.1/901 2013/11/27
 42 45  0  0  0  0  0  0  0  0999 V2000
   -4.3738    2.6768    0.8593 O   0  0  0  0  0  0  0  0  0  0  0  0
   -4.4238    2.2050   -0.4886 C   0  0  0  0  0  0  0  0  0  0  0  0
   -3.6942    0.8769   -0.6851 C   0  0  1  0  0  0  0  0  0  0  0  0
   -2.3521    1.0976   -1.1089 O   0  0  0  0  0  0  0  0  0  0  0  0
   -3.5262    0.0519    0.5809 C   0  0  1  0  0  0  0  0  0  0  0  0
   -4.8112   -0.4764    0.9171 O   0  0  0  0  0  0  0  0  0  0  0  0
   -2.4956   -0.9428    0.0807 C   0  0  1  0  0  0  0  0  0  0  0  0
   -3.0451   -1.8558   -0.8751 O   0  0  0  0  0  0  0  0  0  0  0  0
   -1.5387    0.0346   -0.6119 C   0  0  2  0  0  0  0  0  0  0  0  0
   -4.8195   -1.5931    1.7599 C   0  0  2  0  0  0  0  0  0  0  0  0
   -6.0982   -1.5773    2.6083 C   0  0  2  0  0  0  0  0  0  0  0  0
   -6.2304   -0.2722    3.3080 N   0  3  0  0  0  0  0  0  0  0  0  0
   -6.1142   -2.7514    3.5925 C   0  0  1  0  0  0  0  0  0  0  0  0
   -6.3065   -3.9675    2.8822 O   0  0  0  0  0  0  0  0  0  0  0  0
   -4.8079   -2.8227    4.3893 C   0  0  2  0  0  0  0  0  0  0  0  0
   -4.7110   -1.7177    5.2790 O   0  0  0  0  0  0  0  0  0  0  0  0
   -3.6210   -2.8244    3.4300 C   0  0  1  0  0  0  0  0  0  0  0  0
   -3.6704   -1.6513    2.5949 O   0  0  0  0  0  0  0  0  0  0  0  0
   -2.2780   -2.8390    4.1386 C   0  0  0  0  0  0  0  0  0  0  0  0
   -1.1765   -3.2200    3.2268 N   0  3  0  0  0  0  0  0  0  0  0  0
    6.2717    0.7553    1.4895 C   0  0  0  0  0  0  0  0  0  0  0  0
    3.0673   -0.9522    0.7523 C   0  0  2  0  0  0  0  0  0  0  0  0
    2.9201   -1.8450    1.9820 C   0  0  2  0  0  0  0  0  0  0  0  0
    1.5099   -2.2742    2.1388 N   0  3  0  0  0  0  0  0  0  0  0  0
    3.3607   -1.0942    3.2314 C   0  0  1  0  0  0  0  0  0  0  0  0
    3.2929   -1.9586    4.3551 O   0  0  0  0  0  0  0  0  0  0  0  0
    4.7885   -0.5856    3.0452 C   0  0  2  0  0  0  0  0  0  0  0  0
    5.1827    0.1757    4.1794 O   0  0  0  0  0  0  0  0  0  0  0  0
    6.7302    1.7629    2.4731 N   0  3  0  0  0  0  0  0  0  0  0  0
    4.8599    0.2837    1.7912 C   0  0  2  0  0  0  0  0  0  0  0  0
    4.4008   -0.4610    0.6447 O   0  0  0  0  0  0  0  0  0  0  0  0
    1.0493    2.7684   -2.3042 C   0  0  2  0  0  0  0  0  0  0  0  0
    0.5668    3.2712   -3.6110 N   0  3  0  0  0  0  0  0  0  0  0  0
    2.2543    1.8574   -2.5091 C   0  0  0  0  0  0  0  0  0  0  0  0
    2.7600    1.3309   -1.1733 C   0  0  2  0  0  0  0  0  0  0  0  0
    3.9066    0.4730   -1.4373 N   0  3  0  0  0  0  0  0  0  0  0  0
    1.6496    0.5544   -0.4694 C   0  0  1  0  0  0  0  0  0  0  0  0
    2.1272    0.0838    0.8060 O   0  0  0  0  0  0  0  0  0  0  0  0
    0.4154    1.4419   -0.2564 C   0  0  2  0  0  0  0  0  0  0  0  0
   -0.6468    0.6531    0.3130 O   0  0  0  0  0  0  0  0  0  0  0  0
   -0.0765    2.0398   -1.5721 C   0  0  1  0  0  0  0  0  0  0  0  0
   -1.1383    2.9485   -1.3126 O   0  0  0  0  0  0  0  0  0  0  0  0
  1  2  1  0  0  0  0
  3  2  1  1  0  0  0
  3  5  1  0  0  0  0
  3  4  1  0  0  0  0
  4  9  1  0  0  0  0
  5  7  1  0  0  0  0
  5  6  1  6  0  0  0
  7  9  1  0  0  0  0
  7  8  1  6  0  0  0
  9 40  1  1  0  0  0
 10  6  1  1  0  0  0
 10 11  1  0  0  0  0
 10 18  1  0  0  0  0
 11 13  1  0  0  0  0
 11 12  1  1  0  0  0
 13 15  1  0  0  0  0
 13 14  1  6  0  0  0
 15 17  1  0  0  0  0
 15 16  1  1  0  0  0
 17 19  1  1  0  0  0
 17 18  1  0  0  0  0
 19 20  1  0  0  0  0
 21 29  1  0  0  0  0
 22 23  1  0  0  0  0
 22 31  1  0  0  0  0
 22 38  1  1  0  0  0
 23 25  1  0  0  0  0
 23 24  1  1  0  0  0
 25 27  1  0  0  0  0
 25 26  1  1  0  0  0
 27 30  1  0  0  0  0
 27 28  1  1  0  0  0
 30 21  1  6  0  0  0
 30 31  1  0  0  0  0
 32 34  1  0  0  0  0
 32 41  1  0  0  0  0
 32 33  1  6  0  0  0
 34 35  1  0  0  0  0
 35 37  1  0  0  0  0
 35 36  1  6  0  0  0
 37 39  1  0  0  0  0
 37 38  1  1  0  0  0
 39 41  1  0  0  0  0
 39 40  1  6  0  0  0
 41 42  1  1  0  0  0
M  CHG  6  12   1  20   1  24   1  29   1  33   1  36   1
M  END
>  <CHROM.1>
-117.96923103,-93.86944101,159.58600571,149.48103205,68.87944058,-73.92320776
145.73403840,60.84515640,-177.26807784,163.94767599,70.49038654,-70.67909247
-65.46996470,-148.79894586,169.74322828,-179.72003072,-53.58538025,64.68165847
152.83940233,-71.28425009,-91.05448174,-66.42250875,-0.49358815,-0.23787861
1.17918488,2.88581793,0.07693647,2.22228794

>  <Name>
1NEM.B

>  <RI>
0

>  <Rbt.Current_Directory>
/home/itssahil/PROJECTS/Mol_Feturizer/New_Systems/rnas/1nem

>  <Rbt.Executable>
rbdock ($Id: //depot/dev/client3/rdock/2013.1/src/exe/rbdock.cxx#4 $)

>  <Rbt.Library>
libRbt.so (2013.1, Build901 2013/11/27)

>  <Rbt.Parameter_File>
/export/apps/rDock/src/rDock_2013.1_src/data/scripts/dock_solv.prm

>  <Rbt.Receptor>
prm/pocket_docking_3.prm

>  <SCORE>
-13.9011

>  <SCORE.INTER>
-36.3764

>  <SCORE.INTER.CONST>
1

>  <SCORE.INTER.POLAR>
-5.51317

>  <SCORE.INTER.ROT>
9

>  <SCORE.INTER.SOLV>
31.953

>  <SCORE.INTER.VDW>
-26.1247

>  <SCORE.INTER.norm>
-0.866104

>  <SCORE.INTRA>
22.311

>  <SCORE.INTRA.DIHEDRAL>
9.71967

>  <SCORE.INTRA.DIHEDRAL.0>
22.4324

>  <SCORE.INTRA.POLAR>
-0.0768379

>  <SCORE.INTRA.POLAR.0>
-1.83749

>  <SCORE.INTRA.REPUL>
0

>  <SCORE.INTRA.REPUL.0>
0

>  <SCORE.INTRA.SOLV>
5.85228

>  <SCORE.INTRA.SOLV.lig_0>
-160.638

>  <SCORE.INTRA.VDW>
14.7863

>  <SCORE.INTRA.VDW.0>
-7.61953

>  <SCORE.INTRA.norm>
0.531214

>  <SCORE.RESTR>
0.164255

>  <SCORE.RESTR.CAVITY>
0.164255

>  <SCORE.RESTR.norm>
0.00391084

>  <SCORE.SYSTEM>
0

>  <SCORE.SYSTEM.CONST>
0

>  <SCORE.SYSTEM.DIHEDRAL>
0

>  <SCORE.SYSTEM.SOLV>
0

>  <SCORE.SYSTEM.norm>
0

>  <SCORE.heavy>
42

>  <SCORE.norm>
-0.330979

>  <RMSD>
7.942

$$$$
1NEM.B
 OpenBabel11021811403D
libRbt.so/2013.1/901 2013/11/27
 42 45  0  0  0  0  0  0  0  0999 V2000
   -2.0769   -1.1555    0.5136 O   0  0  0  0  0  0  0  0  0  0  0  0
   -1.9151   -2.5749    0.4809 C   0  0  0  0  0  0  0  0  0  0  0  0
   -0.6444   -3.0486    1.1849 C   0  0  1  0  0  0  0  0  0  0  0  0
    0.5063   -2.4293    0.6175 O   0  0  0  0  0  0  0  0  0  0  0  0
   -0.5535   -2.6679    2.6540 C   0  0  1  0  0  0  0  0  0  0  0  0
   -1.4883   -3.4845    3.3630 O   0  0  0  0  0  0  0  0  0  0  0  0
    0.9162   -2.9651    2.8856 C   0  0  1  0  0  0  0  0  0  0  0  0
    1.1944   -4.3691    2.8583 O   0  0  0  0  0  0  0  0  0  0  0  0
    1.4949   -2.2876    1.6379 C   0  0  2  0  0  0  0  0  0  0  0  0
   -2.5783   -2.8211    3.9366 C   0  0  2  0  0  0  0  0  0  0  0  0
   -3.5284   -3.8532    4.5591 C   0  0  2  0  0  0  0  0  0  0  0  0
   -3.8912   -4.8852    3.5523 N   0  3  0  0  0  0  0  0  0  0  0  0
   -4.7697   -3.1700    5.1419 C   0  0  1  0  0  0  0  0  0  0  0  0
   -4.4094   -2.4361    6.3047 O   0  0  0  0  0  0  0  0  0  0  0  0
   -5.4141   -2.2287    4.1195 C   0  0  2  0  0  0  0  0  0  0  0  0
   -5.9851   -2.9751    3.0522 O   0  0  0  0  0  0  0  0  0  0  0  0
   -4.3637   -1.2640    3.5766 C   0  0  1  0  0  0  0  0  0  0  0  0
   -3.2731   -2.0083    2.9998 O   0  0  0  0  0  0  0  0  0  0  0  0
   -4.9052   -0.3256    2.5126 C   0  0  0  0  0  0  0  0  0  0  0  0
   -3.8215    0.3964    1.8095 N   0  3  0  0  0  0  0  0  0  0  0  0
   -0.1335    4.1848   -1.1427 C   0  0  0  0  0  0  0  0  0  0  0  0
    1.4009    1.0239    0.0325 C   0  0  2  0  0  0  0  0  0  0  0  0
    1.4874    0.2360   -1.2724 C   0  0  2  0  0  0  0  0  0  0  0  0
    2.4755   -0.8617   -1.1446 N   0  3  0  0  0  0  0  0  0  0  0  0
    1.9000    1.1554   -2.4142 C   0  0  1  0  0  0  0  0  0  0  0  0
    1.9013    0.4291   -3.6336 O   0  0  0  0  0  0  0  0  0  0  0  0
    0.9266    2.3287   -2.5026 C   0  0  2  0  0  0  0  0  0  0  0  0
    1.3444    3.2282   -3.5214 O   0  0  0  0  0  0  0  0  0  0  0  0
   -0.5665    4.5053    0.2367 N   0  3  0  0  0  0  0  0  0  0  0  0
    0.8823    3.0559   -1.1600 C   0  0  2  0  0  0  0  0  0  0  0  0
    0.5214    2.1362   -0.1096 O   0  0  0  0  0  0  0  0  0  0  0  0
    4.7896   -0.1702    3.7647 C   0  0  2  0  0  0  0  0  0  0  0  0
    5.1579   -0.4826    5.1647 N   0  3  0  0  0  0  0  0  0  0  0  0
    4.7891    1.3392    3.5504 C   0  0  0  0  0  0  0  0  0  0  0  0
    4.4097    1.6754    2.1151 C   0  0  2  0  0  0  0  0  0  0  0  0
    4.4292    3.1248    1.9765 N   0  3  0  0  0  0  0  0  0  0  0  0
    3.0235    1.1170    1.8019 C   0  0  1  0  0  0  0  0  0  0  0  0
    2.6840    1.4149    0.4336 O   0  0  0  0  0  0  0  0  0  0  0  0
    2.9871   -0.4023    2.0176 C   0  0  2  0  0  0  0  0  0  0  0  0
    1.6436   -0.8807    1.8157 O   0  0  0  0  0  0  0  0  0  0  0  0
    3.4277   -0.7765    3.4306 C   0  0  1  0  0  0  0  0  0  0  0  0
    3.4981   -2.1915    3.5464 O   0  0  0  0  0  0  0  0  0  0  0  0
  1  2  1  0  0  0  0
  3  2  1  6  0  0  0
  3  5  1  0  0  0  0
  3  4  1  0  0  0  0
  4  9  1  0  0  0  0
  5  7  1  0  0  0  0
  5  6  1  1  0  0  0
  7  9  1  0  0  0  0
  7  8  1  6  0  0  0
  9 40  1  1  0  0  0
 10  6  1  6  0  0  0
 10 11  1  0  0  0  0
 10 18  1  0  0  0  0
 11 13  1  0  0  0  0
 11 12  1  6  0  0  0
 13 15  1  0  0  0  0
 13 14  1  1  0  0  0
 15 17  1  0  0  0  0
 15 16  1  6  0  0  0
 17 19  1  6  0  0  0
 17 18  1  0  0  0  0
 19 20  1  0  0  0  0
 21 29  1  0  0  0  0
 22 23  1  0  0  0  0
 22 31  1  0  0  0  0
 22 38  1  6  0  0  0
 23 25  1  0  0  0  0
 23 24  1  1  0  0  0
 25 27  1  0  0  0  0
 25 26  1  6  0  0  0
 27 30  1  0  0  0  0
 27 28  1  6  0  0  0
 30 21  1  6  0  0  0
 30 31  1  0  0  0  0
 32 34  1  0  0  0  0
 32 41  1  0  0  0  0
 32 33  1  1  0  0  0
 34 35  1  0  0  0  0
 35 37  1  0  0  0  0
 35 36  1  1  0  0  0
 37 39  1  0  0  0  0
 37 38  1  6  0  0  0
 39 41  1  0  0  0  0
 39 40  1  1  0  0  0
 41 42  1  6  0  0  0
M  CHG  6  12   1  20   1  24   1  29   1  33   1  36   1
M  END
>  <CHROM.1>
166.36715178,-56.92991004,-113.17253195,175.67523432,-177.04525922,-140.08592510
-124.45613464,66.89429627,62.45291623,-168.12634845,43.00584030,156.77581265
80.41571934,-130.02316477,-159.13712674,-74.05483037,60.23802725,-53.70357951
65.81463223,-176.54037638,164.40722068,66.39754579,0.07105332,-0.60374456
1.67068086,2.41823592,0.15660751,2.27733369

>  <Name>
1NEM.B

>  <RI>
0

>  <Rbt.Current_Directory>
/home/itssahil/PROJECTS/Mol_Feturizer/New_Systems/rnas/1nem

>  <Rbt.Executable>
rbdock ($Id: //depot/dev/client3/rdock/2013.1/src/exe/rbdock.cxx#4 $)

>  <Rbt.Library>
libRbt.so (2013.1, Build901 2013/11/27)

>  <Rbt.Parameter_File>
/export/apps/rDock/src/rDock_2013.1_src/data/scripts/dock_solv.prm

>  <Rbt.Receptor>
prm/pocket_docking_4.prm

>  <SCORE>
-44.4665

>  <SCORE.INTER>
-50.8195

>  <SCORE.INTER.CONST>
1

>  <SCORE.INTER.POLAR>
-6.37649

>  <SCORE.INTER.ROT>
9

>  <SCORE.INTER.SOLV>
32.6297

>  <SCORE.INTER.VDW>
-33.1012

>  <SCORE.INTER.norm>
-1.20999

>  <SCORE.INTRA>
6.31939

>  <SCORE.INTRA.DIHEDRAL>
8.88311

>  <SCORE.INTRA.DIHEDRAL.0>
22.4324

>  <SCORE.INTRA.POLAR>
-0.900363

>  <SCORE.INTRA.POLAR.0>
-1.83749

>  <SCORE.INTRA.REPUL>
0.0309142

>  <SCORE.INTRA.REPUL.0>
0

>  <SCORE.INTRA.SOLV>
1.49283

>  <SCORE.INTRA.SOLV.lig_0>
-160.638

>  <SCORE.INTRA.VDW>
4.03808

>  <SCORE.INTRA.VDW.0>
-7.61953

>  <SCORE.INTRA.norm>
0.150462

>  <SCORE.RESTR>
0.0335558

>  <SCORE.RESTR.CAVITY>
0.0335558

>  <SCORE.RESTR.norm>
0.000798947

>  <SCORE.SYSTEM>
0

>  <SCORE.SYSTEM.CONST>
0

>  <SCORE.SYSTEM.DIHEDRAL>
0

>  <SCORE.SYSTEM.SOLV>
0

>  <SCORE.SYSTEM.norm>
0

>  <SCORE.heavy>
42

>  <SCORE.norm>
-1.05873

>  <RMSD>
7.965

$$$$
1NEM.B
 OpenBabel11021811403D
libRbt.so/2013.1/901 2013/11/27
 42 45  0  0  0  0  0  0  0  0999 V2000
   -0.6704   -0.1766   -1.9234 O   0  0  0  0  0  0  0  0  0  0  0  0
    0.2704    0.6270   -1.2083 C   0  0  0  0  0  0  0  0  0  0  0  0
    1.4137   -0.1860   -0.6029 C   0  0  1  0  0  0  0  0  0  0  0  0
    2.4824    0.6674   -0.2040 O   0  0  0  0  0  0  0  0  0  0  0  0
    1.0597   -0.9205    0.6803 C   0  0  1  0  0  0  0  0  0  0  0  0
    0.2081   -2.0119    0.3240 O   0  0  0  0  0  0  0  0  0  0  0  0
    2.4598   -1.2779    1.1429 C   0  0  1  0  0  0  0  0  0  0  0  0
    3.0656   -2.2738    0.3120 O   0  0  0  0  0  0  0  0  0  0  0  0
    3.1373    0.0793    0.9202 C   0  0  2  0  0  0  0  0  0  0  0  0
   -0.9061   -2.2201    1.1440 C   0  0  2  0  0  0  0  0  0  0  0  0
   -0.8113   -3.6124    1.7826 C   0  0  2  0  0  0  0  0  0  0  0  0
   -0.6151   -4.6442    0.7304 N   0  3  0  0  0  0  0  0  0  0  0  0
   -2.0478   -3.9051    2.6387 C   0  0  1  0  0  0  0  0  0  0  0  0
   -2.0215   -3.0971    3.8078 O   0  0  0  0  0  0  0  0  0  0  0  0
   -3.3376   -3.6362    1.8572 C   0  0  2  0  0  0  0  0  0  0  0  0
   -3.4913   -4.5907    0.8144 O   0  0  0  0  0  0  0  0  0  0  0  0
   -3.2989   -2.2274    1.2720 C   0  0  1  0  0  0  0  0  0  0  0  0
   -2.1326   -2.0798    0.4389 O   0  0  0  0  0  0  0  0  0  0  0  0
   -4.5196   -1.8936    0.4326 C   0  0  0  0  0  0  0  0  0  0  0  0
   -5.7246   -1.6893    1.2670 N   0  3  0  0  0  0  0  0  0  0  0  0
    3.5717    1.7283    5.4112 C   0  0  0  0  0  0  0  0  0  0  0  0
    6.3311    1.8052    2.9400 C   0  0  2  0  0  0  0  0  0  0  0  0
    7.2981    0.7917    3.5473 C   0  0  2  0  0  0  0  0  0  0  0  0
    8.2515    0.3118    2.5186 N   0  3  0  0  0  0  0  0  0  0  0  0
    6.5283   -0.3939    4.1137 C   0  0  1  0  0  0  0  0  0  0  0  0
    7.4306   -1.2904    4.7434 O   0  0  0  0  0  0  0  0  0  0  0  0
    5.4930    0.1028    5.1203 C   0  0  2  0  0  0  0  0  0  0  0  0
    4.7232   -0.9911    5.6023 O   0  0  0  0  0  0  0  0  0  0  0  0
    2.1869    1.6125    4.8993 N   0  3  0  0  0  0  0  0  0  0  0  0
    4.5753    1.1211    4.4464 C   0  0  2  0  0  0  0  0  0  0  0  0
    5.3540    2.2038    3.8978 O   0  0  0  0  0  0  0  0  0  0  0  0
    3.2293    4.5982    1.0049 C   0  0  2  0  0  0  0  0  0  0  0  0
    2.2891    5.5056    0.3079 N   0  3  0  0  0  0  0  0  0  0  0  0
    4.5026    4.4355    0.1825 C   0  0  0  0  0  0  0  0  0  0  0  0
    5.4783    3.5027    0.8862 C   0  0  2  0  0  0  0  0  0  0  0  0
    6.6679    3.3914    0.0540 N   0  3  0  0  0  0  0  0  0  0  0  0
    4.8293    2.1363    1.0940 C   0  0  1  0  0  0  0  0  0  0  0  0
    5.7486    1.2685    1.7855 O   0  0  0  0  0  0  0  0  0  0  0  0
    3.5368    2.2662    1.9118 C   0  0  2  0  0  0  0  0  0  0  0  0
    2.8968    0.9788    2.0001 O   0  0  0  0  0  0  0  0  0  0  0  0
    2.5630    3.2482    1.2651 C   0  0  1  0  0  0  0  0  0  0  0  0
    1.4390    3.4312    2.1158 O   0  0  0  0  0  0  0  0  0  0  0  0
  1  2  1  0  0  0  0
  3  2  1  1  0  0  0
  3  5  1  0  0  0  0
  3  4  1  0  0  0  0
  4  9  1  0  0  0  0
  5  7  1  0  0  0  0
  5  6  1  6  0  0  0
  7  9  1  0  0  0  0
  7  8  1  6  0  0  0
  9 40  1  1  0  0  0
 10  6  1  6  0  0  0
 10 11  1  0  0  0  0
 10 18  1  0  0  0  0
 11 13  1  0  0  0  0
 11 12  1  6  0  0  0
 13 15  1  0  0  0  0
 13 14  1  1  0  0  0
 15 17  1  0  0  0  0
 15 16  1  6  0  0  0
 17 19  1  6  0  0  0
 17 18  1  0  0  0  0
 19 20  1  0  0  0  0
 21 29  1  0  0  0  0
 22 23  1  0  0  0  0
 22 31  1  0  0  0  0
 22 38  1  6  0  0  0
 23 25  1  0  0  0  0
 23 24  1  6  0  0  0
 25 27  1  0  0  0  0
 25 26  1  1  0  0  0
 27 30  1  0  0  0  0
 27 28  1  6  0  0  0
 30 21  1  1  0  0  0
 30 31  1  0  0  0  0
 32 34  1  0  0  0  0
 32 41  1  0  0  0  0
 32 33  1  6  0  0  0
 34 35  1  0  0  0  0
 35 37  1  0  0  0  0
 35 36  1  6  0  0  0
 37 39  1  0  0  0  0
 37 38  1  1  0  0  0
 39 41  1  0  0  0  0
 39 40  1  6  0  0  0
 41 42  1  1  0  0  0
M  CHG  6  12   1  20   1  24   1  29   1  33   1  36   1
M  END
>  <CHROM.1>
-173.25872290,165.26113849,-136.44395761,-118.67896128,-55.92104583,-67.79479783
-44.46692687,-66.19633595,-92.02885305,72.47496025,57.46538693,-127.37120248
85.66485176,-178.82428567,-135.92431101,-78.57543840,66.68090706,53.83707354
-178.69333636,49.65607750,-28.25856349,-49.59170859,2.10452609,0.03881069
1.78921649,2.82124813,0.43689364,2.57204177

>  <Name>
1NEM.B

>  <RI>
0

>  <Rbt.Current_Directory>
/home/itssahil/PROJECTS/Mol_Feturizer/New_Systems/rnas/1nem

>  <Rbt.Executable>
rbdock ($Id: //depot/dev/client3/rdock/2013.1/src/exe/rbdock.cxx#4 $)

>  <Rbt.Library>
libRbt.so (2013.1, Build901 2013/11/27)

>  <Rbt.Parameter_File>
/export/apps/rDock/src/rDock_2013.1_src/data/scripts/dock_solv.prm

>  <Rbt.Receptor>
prm/pocket_docking_5.prm

>  <SCORE>
-37.7377

>  <SCORE.INTER>
-51.8529

>  <SCORE.INTER.CONST>
1

>  <SCORE.INTER.POLAR>
-7.58542

>  <SCORE.INTER.ROT>
9

>  <SCORE.INTER.SOLV>
30.3709

>  <SCORE.INTER.VDW>
-29.0075

>  <SCORE.INTER.norm>
-1.23459

>  <SCORE.INTRA>
13.9224

>  <SCORE.INTRA.DIHEDRAL>
14.0071

>  <SCORE.INTRA.DIHEDRAL.0>
22.4324

>  <SCORE.INTRA.POLAR>
0.559137

>  <SCORE.INTRA.POLAR.0>
-1.83749

>  <SCORE.INTRA.REPUL>
0.15

>  <SCORE.INTRA.REPUL.0>
0

>  <SCORE.INTRA.SOLV>
-3.37441

>  <SCORE.INTRA.SOLV.lig_0>
-160.638

>  <SCORE.INTRA.VDW>
5.95494

>  <SCORE.INTRA.VDW.0>
-7.61953

>  <SCORE.INTRA.norm>
0.331485

>  <SCORE.RESTR>
0.192793

>  <SCORE.RESTR.CAVITY>
0.192793

>  <SCORE.RESTR.norm>
0.0045903

>  <SCORE.SYSTEM>
0

>  <SCORE.SYSTEM.CONST>
0

>  <SCORE.SYSTEM.DIHEDRAL>
0

>  <SCORE.SYSTEM.SOLV>
0

>  <SCORE.SYSTEM.norm>
0

>  <SCORE.heavy>
42

>  <SCORE.norm>
-0.898517

>  <RMSD>
7.970

$$$$
1NEM.B
 OpenBabel11021811403D
libRbt.so/2013.1/901 2013/11/27
 42 45  0  0  0  0  0  0  0  0999 V2000
   -2.7680   -3.9589    6.6981 O   0  0  0  0  0  0  0  0  0  0  0  0
   -3.9121   -4.7911    6.8993 C   0  0  0  0  0  0  0  0  0  0  0  0
   -4.2859   -5.6040    5.6607 C   0  0  1  0  0  0  0  0  0  0  0  0
   -5.6920   -5.8279    5.6108 O   0  0  0  0  0  0  0  0  0  0  0  0
   -3.9983   -4.9127    4.3375 C   0  0  1  0  0  0  0  0  0  0  0  0
   -2.5805   -4.9163    4.1558 O   0  0  0  0  0  0  0  0  0  0  0  0
   -4.8004   -5.8154    3.4190 C   0  0  1  0  0  0  0  0  0  0  0  0
   -4.2094   -7.1123    3.2849 O   0  0  0  0  0  0  0  0  0  0  0  0
   -6.0908   -5.9055    4.2420 C   0  0  2  0  0  0  0  0  0  0  0  0
   -2.0701   -3.9758    3.2546 C   0  0  2  0  0  0  0  0  0  0  0  0
   -2.4830   -4.3651    1.8287 C   0  0  2  0  0  0  0  0  0  0  0  0
   -2.0866   -5.7703    1.5483 N   0  3  0  0  0  0  0  0  0  0  0  0
   -1.8877   -3.3938    0.8042 C   0  0  1  0  0  0  0  0  0  0  0  0
   -2.5339   -2.1322    0.9104 O   0  0  0  0  0  0  0  0  0  0  0  0
   -0.3811   -3.2191    1.0184 C   0  0  2  0  0  0  0  0  0  0  0  0
    0.3067   -4.4203    0.6924 O   0  0  0  0  0  0  0  0  0  0  0  0
   -0.1096   -2.8418    2.4719 C   0  0  1  0  0  0  0  0  0  0  0  0
   -0.6570   -3.8488    3.3451 O   0  0  0  0  0  0  0  0  0  0  0  0
    1.3689   -2.7007    2.7882 C   0  0  0  0  0  0  0  0  0  0  0  0
    1.9299   -1.4393    2.2552 N   0  3  0  0  0  0  0  0  0  0  0  0
   -6.3230   -2.6122    5.6684 C   0  0  0  0  0  0  0  0  0  0  0  0
   -6.7016   -2.4708    1.9855 C   0  0  2  0  0  0  0  0  0  0  0  0
   -5.8457   -1.2523    1.6484 C   0  0  2  0  0  0  0  0  0  0  0  0
   -5.4699   -1.2699    0.2146 N   0  3  0  0  0  0  0  0  0  0  0  0
   -4.5836   -1.2457    2.5005 C   0  0  1  0  0  0  0  0  0  0  0  0
   -3.8354   -0.0694    2.2339 O   0  0  0  0  0  0  0  0  0  0  0  0
   -4.9643   -1.3025    3.9782 C   0  0  2  0  0  0  0  0  0  0  0  0
   -3.7906   -1.3665    4.7781 O   0  0  0  0  0  0  0  0  0  0  0  0
   -5.3255   -2.0653    6.6165 N   0  3  0  0  0  0  0  0  0  0  0  0
   -5.8298   -2.5348    4.2340 C   0  0  2  0  0  0  0  0  0  0  0  0
   -6.9917   -2.5108    3.3802 O   0  0  0  0  0  0  0  0  0  0  0  0
   -9.4632   -6.1738    1.6212 C   0  0  2  0  0  0  0  0  0  0  0  0
  -10.2895   -7.4014    1.6808 N   0  3  0  0  0  0  0  0  0  0  0  0
   -8.5363   -6.2277    0.4120 C   0  0  0  0  0  0  0  0  0  0  0  0
   -7.6786   -4.9722    0.3392 C   0  0  2  0  0  0  0  0  0  0  0  0
   -6.8214   -5.0851   -0.8324 N   0  3  0  0  0  0  0  0  0  0  0  0
   -6.8461   -4.8399    1.6123 C   0  0  1  0  0  0  0  0  0  0  0  0
   -6.0586   -3.6348    1.5478 O   0  0  0  0  0  0  0  0  0  0  0  0
   -7.7504   -4.7928    2.8518 C   0  0  2  0  0  0  0  0  0  0  0  0
   -6.9334   -4.7734    4.0379 O   0  0  0  0  0  0  0  0  0  0  0  0
   -8.6717   -6.0083    2.9175 C   0  0  1  0  0  0  0  0  0  0  0  0
   -9.5729   -5.8621    4.0070 O   0  0  0  0  0  0  0  0  0  0  0  0
  1  2  1  0  0  0  0
  3  2  1  1  0  0  0
  3  5  1  0  0  0  0
  3  4  1  0  0  0  0
  4  9  1  0  0  0  0
  5  7  1  0  0  0  0
  5  6  1  6  0  0  0
  7  9  1  0  0  0  0
  7  8  1  1  0  0  0
  9 40  1  6  0  0  0
 10  6  1  1  0  0  0
 10 11  1  0  0  0  0
 10 18  1  0  0  0  0
 11 13  1  0  0  0  0
 11 12  1  6  0  0  0
 13 15  1  0  0  0  0
 13 14  1  1  0  0  0
 15 17  1  0  0  0  0
 15 16  1  1  0  0  0
 17 19  1  6  0  0  0
 17 18  1  0  0  0  0
 19 20  1  0  0  0  0
 21 29  1  0  0  0  0
 22 23  1  0  0  0  0
 22 31  1  0  0  0  0
 22 38  1  1  0  0  0
 23 25  1  0  0  0  0
 23 24  1  6  0  0  0
 25 27  1  0  0  0  0
 25 26  1  1  0  0  0
 27 30  1  0  0  0  0
 27 28  1  1  0  0  0
 30 21  1  1  0  0  0
 30 31  1  0  0  0  0
 32 34  1  0  0  0  0
 32 41  1  0  0  0  0
 32 33  1  1  0  0  0
 34 35  1  0  0  0  0
 35 37  1  0  0  0  0
 35 36  1  6  0  0  0
 37 39  1  0  0  0  0
 37 38  1  6  0  0  0
 39 41  1  0  0  0  0
 39 40  1  1  0  0  0
 41 42  1  1  0  0  0
M  CHG  6  12   1  20   1  24   1  29   1  33   1  36   1
M  END
>  <CHROM.1>
-47.70251936,-149.07347019,-159.83216537,-69.69403103,146.24183956,-164.31864071
46.99716857,-57.73390862,99.38218719,75.59148267,-41.01865870,-33.90786973
-175.65171088,-170.68363137,84.67371624,73.64989384,-53.95263367,58.31391736
-135.40162979,85.89172138,-61.52791766,-156.73868274,-4.61027388,-3.92996395
2.91999453,-0.01447573,0.33264789,1.62218604

>  <Name>
1NEM.B

>  <RI>
0

>  <Rbt.Current_Directory>
/home/itssahil/PROJECTS/Mol_Feturizer/New_Systems/rnas/1nem

>  <Rbt.Executable>
rbdock ($Id: //depot/dev/client3/rdock/2013.1/src/exe/rbdock.cxx#4 $)

>  <Rbt.Library>
libRbt.so (2013.1, Build901 2013/11/27)

>  <Rbt.Parameter_File>
/export/apps/rDock/src/rDock_2013.1_src/data/scripts/dock_solv.prm

>  <Rbt.Receptor>
prm/blind_docking_100.prm

>  <SCORE>
-24.9198

>  <SCORE.INTER>
-43.3709

>  <SCORE.INTER.CONST>
1

>  <SCORE.INTER.POLAR>
-7.64384

>  <SCORE.INTER.ROT>
9

>  <SCORE.INTER.SOLV>
47.2887

>  <SCORE.INTER.VDW>
-28.7973

>  <SCORE.INTER.norm>
-1.03264

>  <SCORE.INTRA>
18.1034

>  <SCORE.INTRA.DIHEDRAL>
9.65577

>  <SCORE.INTRA.DIHEDRAL.0>
22.4324

>  <SCORE.INTRA.POLAR>
-0.763579

>  <SCORE.INTRA.POLAR.0>
-1.83749

>  <SCORE.INTRA.REPUL>
0.000150678

>  <SCORE.INTRA.REPUL.0>
0

>  <SCORE.INTRA.SOLV>
6.18124

>  <SCORE.INTRA.SOLV.lig_0>
-160.638

>  <SCORE.INTRA.VDW>
12.7803

>  <SCORE.INTRA.VDW.0>
-7.61953

>  <SCORE.INTRA.norm>
0.431034

>  <SCORE.RESTR>
0.347572

>  <SCORE.RESTR.CAVITY>
0.347572

>  <SCORE.RESTR.norm>
0.00827553

>  <SCORE.SYSTEM>
0

>  <SCORE.SYSTEM.CONST>
0

>  <SCORE.SYSTEM.DIHEDRAL>
0

>  <SCORE.SYSTEM.SOLV>
0

>  <SCORE.SYSTEM.norm>
0

>  <SCORE.heavy>
42

>  <SCORE.norm>
-0.59333

>  <RMSD>
7.985

$$$$
1NEM.B
 OpenBabel11021811403D
libRbt.so/2013.1/901 2013/11/27
 42 45  0  0  0  0  0  0  0  0999 V2000
   -5.9065    0.2659    0.7189 O   0  0  0  0  0  0  0  0  0  0  0  0
   -4.7543    0.6081   -0.0540 C   0  0  0  0  0  0  0  0  0  0  0  0
   -3.6813   -0.4796   -0.0423 C   0  0  1  0  0  0  0  0  0  0  0  0
   -2.5026   -0.0314   -0.7051 O   0  0  0  0  0  0  0  0  0  0  0  0
   -3.1775   -0.8589    1.3412 C   0  0  1  0  0  0  0  0  0  0  0  0
   -4.2174   -1.6001    1.9834 O   0  0  0  0  0  0  0  0  0  0  0  0
   -1.9407   -1.6393    0.9374 C   0  0  1  0  0  0  0  0  0  0  0  0
   -2.2677   -2.8874    0.3174 O   0  0  0  0  0  0  0  0  0  0  0  0
   -1.3742   -0.6653   -0.1024 C   0  0  2  0  0  0  0  0  0  0  0  0
   -3.8427   -2.8180    2.5609 C   0  0  2  0  0  0  0  0  0  0  0  0
   -4.7385   -3.9360    2.0104 C   0  0  2  0  0  0  0  0  0  0  0  0
   -6.1702   -3.5787    2.1921 N   0  3  0  0  0  0  0  0  0  0  0  0
   -4.4022   -5.2781    2.6684 C   0  0  1  0  0  0  0  0  0  0  0  0
   -3.1354   -5.7310    2.2093 O   0  0  0  0  0  0  0  0  0  0  0  0
   -4.3817   -5.1557    4.1951 C   0  0  2  0  0  0  0  0  0  0  0  0
   -5.6951   -4.9270    4.6899 O   0  0  0  0  0  0  0  0  0  0  0  0
   -3.4634   -4.0082    4.6058 C   0  0  1  0  0  0  0  0  0  0  0  0
   -3.9037   -2.7868    3.9809 O   0  0  0  0  0  0  0  0  0  0  0  0
   -3.4249   -3.7793    6.1065 C   0  0  0  0  0  0  0  0  0  0  0  0
   -4.4204   -2.7728    6.5375 N   0  3  0  0  0  0  0  0  0  0  0  0
    6.2095    1.2118    1.7460 C   0  0  0  0  0  0  0  0  0  0  0  0
    3.1922   -0.8661    1.1934 C   0  0  2  0  0  0  0  0  0  0  0  0
    3.0360   -1.5272    2.5608 C   0  0  2  0  0  0  0  0  0  0  0  0
    1.6544   -2.0377    2.7291 N   0  3  0  0  0  0  0  0  0  0  0  0
    3.3416   -0.5253    3.6661 C   0  0  1  0  0  0  0  0  0  0  0  0
    3.2688   -1.1714    4.9277 O   0  0  0  0  0  0  0  0  0  0  0  0
    4.7365    0.0590    3.4547 C   0  0  2  0  0  0  0  0  0  0  0  0
    5.0024    1.0461    4.4429 O   0  0  0  0  0  0  0  0  0  0  0  0
    7.2325    0.1468    1.8575 N   0  3  0  0  0  0  0  0  0  0  0  0
    4.8206    0.6862    2.0645 C   0  0  2  0  0  0  0  0  0  0  0  0
    4.4897   -0.2923    1.0581 O   0  0  0  0  0  0  0  0  0  0  0  0
    0.8680    1.7289   -2.6816 C   0  0  2  0  0  0  0  0  0  0  0  0
    0.3168    1.8223   -4.0530 N   0  3  0  0  0  0  0  0  0  0  0  0
    2.1045    0.8372   -2.6766 C   0  0  0  0  0  0  0  0  0  0  0  0
    2.6810    0.7302   -1.2718 C   0  0  2  0  0  0  0  0  0  0  0  0
    3.8546   -0.1292   -1.3357 N   0  3  0  0  0  0  0  0  0  0  0  0
    1.6325    0.1507   -0.3251 C   0  0  1  0  0  0  0  0  0  0  0  0
    2.1763    0.0790    1.0074 O   0  0  0  0  0  0  0  0  0  0  0  0
    0.3683    1.0212   -0.3142 C   0  0  2  0  0  0  0  0  0  0  0  0
   -0.6363    0.3930    0.5048 O   0  0  0  0  0  0  0  0  0  0  0  0
   -0.1969    1.2028   -1.7207 C   0  0  1  0  0  0  0  0  0  0  0  0
   -1.2884    2.1124   -1.6795 O   0  0  0  0  0  0  0  0  0  0  0  0
  1  2  1  0  0  0  0
  3  2  1  1  0  0  0
  3  5  1  0  0  0  0
  3  4  1  0  0  0  0
  4  9  1  0  0  0  0
  5  7  1  0  0  0  0
  5  6  1  6  0  0  0
  7  9  1  0  0  0  0
  7  8  1  6  0  0  0
  9 40  1  1  0  0  0
 10  6  1  6  0  0  0
 10 11  1  0  0  0  0
 10 18  1  0  0  0  0
 11 13  1  0  0  0  0
 11 12  1  1  0  0  0
 13 15  1  0  0  0  0
 13 14  1  6  0  0  0
 15 17  1  0  0  0  0
 15 16  1  6  0  0  0
 17 19  1  1  0  0  0
 17 18  1  0  0  0  0
 19 20  1  0  0  0  0
 21 29  1  0  0  0  0
 22 23  1  0  0  0  0
 22 31  1  0  0  0  0
 22 38  1  1  0  0  0
 23 25  1  0  0  0  0
 23 24  1  1  0  0  0
 25 27  1  0  0  0  0
 25 26  1  1  0  0  0
 27 30  1  0  0  0  0
 27 28  1  1  0  0  0
 30 21  1  6  0  0  0
 30 31  1  0  0  0  0
 32 34  1  0  0  0  0
 32 41  1  0  0  0  0
 32 33  1  6  0  0  0
 34 35  1  0  0  0  0
 35 37  1  0  0  0  0
 35 36  1  6  0  0  0
 37 39  1  0  0  0  0
 37 38  1  1  0  0  0
 39 41  1  0  0  0  0
 39 40  1  1  0  0  0
 41 42  1  1  0  0  0
M  CHG  6  12   1  20   1  24   1  29   1  33   1  36   1
M  END
>  <CHROM.1>
-77.97704157,-173.78535429,129.96846354,-125.80812113,177.88236111,-90.19201829
158.20601283,144.79109436,-177.78435953,-92.53893693,-93.76548554,57.11621318
-177.50479551,-141.59895036,-71.76110775,-161.66030733,178.90303000,-70.59406082
36.30030404,-69.14739572,-80.18415898,-53.54245444,-0.45839918,-1.08922334
1.48557728,2.72171005,0.23983719,2.11350797

>  <Name>
1NEM.B

>  <RI>
0

>  <Rbt.Current_Directory>
/home/itssahil/PROJECTS/Mol_Feturizer/New_Systems/rnas/1nem

>  <Rbt.Executable>
rbdock ($Id: //depot/dev/client3/rdock/2013.1/src/exe/rbdock.cxx#4 $)

>  <Rbt.Library>
libRbt.so (2013.1, Build901 2013/11/27)

>  <Rbt.Parameter_File>
/export/apps/rDock/src/rDock_2013.1_src/data/scripts/dock_solv.prm

>  <Rbt.Receptor>
prm/pocket_docking_3.prm

>  <SCORE>
-16.2594

>  <SCORE.INTER>
-35.5074

>  <SCORE.INTER.CONST>
1

>  <SCORE.INTER.POLAR>
-5.12132

>  <SCORE.INTER.ROT>
9

>  <SCORE.INTER.SOLV>
31.3888

>  <SCORE.INTER.VDW>
-26.6635

>  <SCORE.INTER.norm>
-0.845414

>  <SCORE.INTRA>
18.4872

>  <SCORE.INTRA.DIHEDRAL>
18.5101

>  <SCORE.INTRA.DIHEDRAL.0>
22.4324

>  <SCORE.INTRA.POLAR>
0.0652338

>  <SCORE.INTRA.POLAR.0>
-1.83749

>  <SCORE.INTRA.REPUL>
0.0061226

>  <SCORE.INTRA.REPUL.0>
0

>  <SCORE.INTRA.SOLV>
1.41754

>  <SCORE.INTRA.SOLV.lig_0>
-160.638

>  <SCORE.INTRA.VDW>
8.27102

>  <SCORE.INTRA.VDW.0>
-7.61953

>  <SCORE.INTRA.norm>
0.440172

>  <SCORE.RESTR>
0.760792

>  <SCORE.RESTR.CAVITY>
0.760792

>  <SCORE.RESTR.norm>
0.0181141

>  <SCORE.SYSTEM>
0

>  <SCORE.SYSTEM.CONST>
0

>  <SCORE.SYSTEM.DIHEDRAL>
0

>  <SCORE.SYSTEM.SOLV>
0

>  <SCORE.SYSTEM.norm>
0

>  <SCORE.heavy>
42

>  <SCORE.norm>
-0.387128

>  <RMSD>
8.001

$$$$
1NEM.B
 OpenBabel11021811403D
libRbt.so/2013.1/901 2013/11/27
 42 45  0  0  0  0  0  0  0  0999 V2000
    7.3511    3.7370    0.3453 O   0  0  0  0  0  0  0  0  0  0  0  0
    6.3280    4.5921    0.8592 C   0  0  0  0  0  0  0  0  0  0  0  0
    4.9192    4.1229    0.4989 C   0  0  1  0  0  0  0  0  0  0  0  0
    4.7119    4.1867   -0.9091 O   0  0  0  0  0  0  0  0  0  0  0  0
    4.6329    2.6658    0.8253 C   0  0  1  0  0  0  0  0  0  0  0  0
    4.5179    2.5636    2.2464 O   0  0  0  0  0  0  0  0  0  0  0  0
    3.3535    2.4913    0.0287 C   0  0  1  0  0  0  0  0  0  0  0  0
    2.2575    3.2120    0.6020 O   0  0  0  0  0  0  0  0  0  0  0  0
    3.7960    3.1561   -1.2801 C   0  0  2  0  0  0  0  0  0  0  0  0
    4.6488    1.2797    2.7866 C   0  0  2  0  0  0  0  0  0  0  0  0
    3.4821    1.0136    3.7475 C   0  0  2  0  0  0  0  0  0  0  0  0
    3.3919    2.1033    4.7548 N   0  3  0  0  0  0  0  0  0  0  0  0
    3.6244   -0.3601    4.4109 C   0  0  1  0  0  0  0  0  0  0  0  0
    3.3885   -1.3811    3.4505 O   0  0  0  0  0  0  0  0  0  0  0  0
    5.0190   -0.5387    5.0188 C   0  0  2  0  0  0  0  0  0  0  0  0
    5.1856    0.3259    6.1354 O   0  0  0  0  0  0  0  0  0  0  0  0
    6.0807   -0.2382    3.9646 C   0  0  1  0  0  0  0  0  0  0  0  0
    5.8917    1.0950    3.4517 O   0  0  0  0  0  0  0  0  0  0  0  0
    7.4992   -0.3386    4.4973 C   0  0  0  0  0  0  0  0  0  0  0  0
    7.8879   -1.7396    4.7728 N   0  3  0  0  0  0  0  0  0  0  0  0
    0.5388    5.7834   -2.6103 C   0  0  0  0  0  0  0  0  0  0  0  0
    2.1329    2.5665   -3.5256 C   0  0  2  0  0  0  0  0  0  0  0  0
    0.9724    1.8472   -4.2087 C   0  0  2  0  0  0  0  0  0  0  0  0
    1.4813    0.7447   -5.0591 N   0  3  0  0  0  0  0  0  0  0  0  0
    0.1828    2.8244   -5.0692 C   0  0  1  0  0  0  0  0  0  0  0  0
   -0.9370    2.1620   -5.6364 O   0  0  0  0  0  0  0  0  0  0  0  0
   -0.2809    4.0004   -4.2125 C   0  0  2  0  0  0  0  0  0  0  0  0
   -0.9595    4.9514   -5.0228 O   0  0  0  0  0  0  0  0  0  0  0  0
   -0.1066    6.9004   -3.3374 N   0  3  0  0  0  0  0  0  0  0  0  0
    0.9294    4.6573   -3.5515 C   0  0  2  0  0  0  0  0  0  0  0  0
    1.6609    3.6844   -2.7781 O   0  0  0  0  0  0  0  0  0  0  0  0
    7.0352    4.4117   -3.9543 C   0  0  2  0  0  0  0  0  0  0  0  0
    8.1657    5.2342   -3.4659 N   0  3  0  0  0  0  0  0  0  0  0  0
    6.0108    5.2973   -4.6545 C   0  0  0  0  0  0  0  0  0  0  0  0
    4.8409    4.4649   -5.1603 C   0  0  2  0  0  0  0  0  0  0  0  0
    3.9039    5.3653   -5.8170 N   0  3  0  0  0  0  0  0  0  0  0  0
    4.1748    3.7442   -3.9906 C   0  0  1  0  0  0  0  0  0  0  0  0
    3.0868    2.9368   -4.4811 O   0  0  0  0  0  0  0  0  0  0  0  0
    5.1835    2.8498   -3.2565 C   0  0  2  0  0  0  0  0  0  0  0  0
    4.5518    2.2677   -2.1003 O   0  0  0  0  0  0  0  0  0  0  0  0
    6.4021    3.6448   -2.7944 C   0  0  1  0  0  0  0  0  0  0  0  0
    7.3614    2.7588   -2.2330 O   0  0  0  0  0  0  0  0  0  0  0  0
  1  2  1  0  0  0  0
  3  2  1  6  0  0  0
  3  5  1  0  0  0  0
  3  4  1  0  0  0  0
  4  9  1  0  0  0  0
  5  7  1  0  0  0  0
  5  6  1  1  0  0  0
  7  9  1  0  0  0  0
  7  8  1  1  0  0  0
  9 40  1  6  0  0  0
 10  6  1  1  0  0  0
 10 11  1  0  0  0  0
 10 18  1  0  0  0  0
 11 13  1  0  0  0  0
 11 12  1  1  0  0  0
 13 15  1  0  0  0  0
 13 14  1  6  0  0  0
 15 17  1  0  0  0  0
 15 16  1  1  0  0  0
 17 19  1  1  0  0  0
 17 18  1  0  0  0  0
 19 20  1  0  0  0  0
 21 29  1  0  0  0  0
 22 23  1  0  0  0  0
 22 31  1  0  0  0  0
 22 38  1  6  0  0  0
 23 25  1  0  0  0  0
 23 24  1  6  0  0  0
 25 27  1  0  0  0  0
 25 26  1  1  0  0  0
 27 30  1  0  0  0  0
 27 28  1  6  0  0  0
 30 21  1  1  0  0  0
 30 31  1  0  0  0  0
 32 34  1  0  0  0  0
 32 41  1  0  0  0  0
 32 33  1  1  0  0  0
 34 35  1  0  0  0  0
 35 37  1  0  0  0  0
 35 36  1  1  0  0  0
 37 39  1  0  0  0  0
 37 38  1  6  0  0  0
 39 41  1  0  0  0  0
 39 40  1  1  0  0  0
 41 42  1  6  0  0  0
M  CHG  6  12   1  20   1  24   1  29   1  33   1  36   1
M  END
>  <CHROM.1>
-64.15099943,-65.06989536,-161.74912302,-130.52565833,61.14425404,-56.41686745
52.67848484,76.46324928,71.13104851,70.85408861,-65.63082098,-64.18464626
-78.08728988,174.02390668,-63.64448950,74.70893299,60.80408168,-175.59193324
60.55834122,-160.35942828,-46.47692751,88.60558863,3.90763855,2.74079664
-0.86091617,-1.20185081,-0.15538733,-1.10446153

>  <Name>
1NEM.B

>  <RI>
0

>  <Rbt.Current_Directory>
/home/itssahil/PROJECTS/Mol_Feturizer/New_Systems/rnas/1nem

>  <Rbt.Executable>
rbdock ($Id: //depot/dev/client3/rdock/2013.1/src/exe/rbdock.cxx#4 $)

>  <Rbt.Library>
libRbt.so (2013.1, Build901 2013/11/27)

>  <Rbt.Parameter_File>
/export/apps/rDock/src/rDock_2013.1_src/data/scripts/dock_solv.prm

>  <Rbt.Receptor>
prm/pocket_docking_8.prm

>  <SCORE>
-27.6147

>  <SCORE.INTER>
-28.2916

>  <SCORE.INTER.CONST>
1

>  <SCORE.INTER.POLAR>
-4.37214

>  <SCORE.INTER.ROT>
9

>  <SCORE.INTER.SOLV>
19.7616

>  <SCORE.INTER.VDW>
-20.4745

>  <SCORE.INTER.norm>
-0.67361

>  <SCORE.INTRA>
0.414718

>  <SCORE.INTRA.DIHEDRAL>
-2.71993

>  <SCORE.INTRA.DIHEDRAL.0>
22.4324

>  <SCORE.INTRA.POLAR>
-0.180544

>  <SCORE.INTRA.POLAR.0>
-1.83749

>  <SCORE.INTRA.REPUL>
0

>  <SCORE.INTRA.REPUL.0>
0

>  <SCORE.INTRA.SOLV>
-4.77156

>  <SCORE.INTRA.SOLV.lig_0>
-160.638

>  <SCORE.INTRA.VDW>
4.77431

>  <SCORE.INTRA.VDW.0>
-7.61953

>  <SCORE.INTRA.norm>
0.00987425

>  <SCORE.RESTR>
0.262228

>  <SCORE.RESTR.CAVITY>
0.262228

>  <SCORE.RESTR.norm>
0.00624353

>  <SCORE.SYSTEM>
0

>  <SCORE.SYSTEM.CONST>
0

>  <SCORE.SYSTEM.DIHEDRAL>
0

>  <SCORE.SYSTEM.SOLV>
0

>  <SCORE.SYSTEM.norm>
0

>  <SCORE.heavy>
42

>  <SCORE.norm>
-0.657492

>  <RMSD>
8.023

$$$$
1NEM.B
 OpenBabel11021811403D
libRbt.so/2013.1/901 2013/11/27
 42 45  0  0  0  0  0  0  0  0999 V2000
    0.0508    1.0553   -2.7878 O   0  0  0  0  0  0  0  0  0  0  0  0
   -0.3692    0.5208   -1.5308 C   0  0  0  0  0  0  0  0  0  0  0  0
    0.7865   -0.0389   -0.7025 C   0  0  1  0  0  0  0  0  0  0  0  0
    1.7385    0.9806   -0.4130 O   0  0  0  0  0  0  0  0  0  0  0  0
    0.3922   -0.5457    0.6756 C   0  0  1  0  0  0  0  0  0  0  0  0
   -0.3270   -1.7669    0.4893 O   0  0  0  0  0  0  0  0  0  0  0  0
    1.7745   -0.6617    1.2901 C   0  0  1  0  0  0  0  0  0  0  0  0
    2.5333   -1.7308    0.7155 O   0  0  0  0  0  0  0  0  0  0  0  0
    2.3460    0.6899    0.8459 C   0  0  2  0  0  0  0  0  0  0  0  0
   -0.9687   -2.2853    1.6192 C   0  0  2  0  0  0  0  0  0  0  0  0
   -1.2361   -3.7816    1.4074 C   0  0  2  0  0  0  0  0  0  0  0  0
   -1.9651   -3.9938    0.1292 N   0  3  0  0  0  0  0  0  0  0  0  0
   -1.9974   -4.3734    2.5981 C   0  0  1  0  0  0  0  0  0  0  0  0
   -1.1398   -4.4357    3.7300 O   0  0  0  0  0  0  0  0  0  0  0  0
   -3.2339   -3.5348    2.9358 C   0  0  2  0  0  0  0  0  0  0  0  0
   -4.2049   -3.6485    1.9031 O   0  0  0  0  0  0  0  0  0  0  0  0
   -2.8305   -2.0737    3.1127 C   0  0  1  0  0  0  0  0  0  0  0  0
   -2.1792   -1.6019    1.9172 O   0  0  0  0  0  0  0  0  0  0  0  0
   -4.0076   -1.1576    3.3978 C   0  0  0  0  0  0  0  0  0  0  0  0
   -4.6171   -1.4356    4.7172 N   0  3  0  0  0  0  0  0  0  0  0  0
    7.0308   -0.4471    4.3312 C   0  0  0  0  0  0  0  0  0  0  0  0
    3.7248    1.1491    3.8310 C   0  0  2  0  0  0  0  0  0  0  0  0
    3.1477    1.0787    5.2427 C   0  0  2  0  0  0  0  0  0  0  0  0
    2.0424    2.0548    5.3945 N   0  3  0  0  0  0  0  0  0  0  0  0
    4.2318    1.3809    6.2686 C   0  0  1  0  0  0  0  0  0  0  0  0
    3.7023    1.2362    7.5774 O   0  0  0  0  0  0  0  0  0  0  0  0
    5.4057    0.4250    6.0681 C   0  0  2  0  0  0  0  0  0  0  0  0
    6.4511    0.7454    6.9769 O   0  0  0  0  0  0  0  0  0  0  0  0
    7.7115   -0.1252    3.0561 N   0  3  0  0  0  0  0  0  0  0  0  0
    5.9171    0.5403    4.6334 C   0  0  2  0  0  0  0  0  0  0  0  0
    4.8466    0.2795    3.7029 O   0  0  0  0  0  0  0  0  0  0  0  0
    3.5495    4.6349   -0.1045 C   0  0  2  0  0  0  0  0  0  0  0  0
    3.5938    4.9762   -1.5450 N   0  3  0  0  0  0  0  0  0  0  0  0
    4.9620    4.4008    0.4192 C   0  0  0  0  0  0  0  0  0  0  0  0
    4.9317    4.0466    1.8994 C   0  0  2  0  0  0  0  0  0  0  0  0
    6.3049    3.8381    2.3362 N   0  3  0  0  0  0  0  0  0  0  0  0
    4.0951    2.7873    2.1129 C   0  0  1  0  0  0  0  0  0  0  0  0
    4.0481    2.4750    3.5189 O   0  0  0  0  0  0  0  0  0  0  0  0
    2.6671    2.9864    1.5863 C   0  0  2  0  0  0  0  0  0  0  0  0
    1.9374    1.7504    1.7071 O   0  0  0  0  0  0  0  0  0  0  0  0
    2.6666    3.4083    0.1191 C   0  0  1  0  0  0  0  0  0  0  0  0
    1.3371    3.7010   -0.2898 O   0  0  0  0  0  0  0  0  0  0  0  0
  1  2  1  0  0  0  0
  3  2  1  1  0  0  0
  3  5  1  0  0  0  0
  3  4  1  0  0  0  0
  4  9  1  0  0  0  0
  5  7  1  0  0  0  0
  5  6  1  6  0  0  0
  7  9  1  0  0  0  0
  7  8  1  6  0  0  0
  9 40  1  1  0  0  0
 10  6  1  6  0  0  0
 10 11  1  0  0  0  0
 10 18  1  0  0  0  0
 11 13  1  0  0  0  0
 11 12  1  6  0  0  0
 13 15  1  0  0  0  0
 13 14  1  1  0  0  0
 15 17  1  0  0  0  0
 15 16  1  6  0  0  0
 17 19  1  6  0  0  0
 17 18  1  0  0  0  0
 19 20  1  0  0  0  0
 21 29  1  0  0  0  0
 22 23  1  0  0  0  0
 22 31  1  0  0  0  0
 22 38  1  1  0  0  0
 23 25  1  0  0  0  0
 23 24  1  6  0  0  0
 25 27  1  0  0  0  0
 25 26  1  1  0  0  0
 27 30  1  0  0  0  0
 27 28  1  1  0  0  0
 30 21  1  1  0  0  0
 30 31  1  0  0  0  0
 32 34  1  0  0  0  0
 32 41  1  0  0  0  0
 32 33  1  6  0  0  0
 34 35  1  0  0  0  0
 35 37  1  0  0  0  0
 35 36  1  6  0  0  0
 37 39  1  0  0  0  0
 37 38  1  1  0  0  0
 39 41  1  0  0  0  0
 39 40  1  6  0  0  0
 41 42  1  1  0  0  0
M  CHG  6  12   1  20   1  24   1  29   1  33   1  36   1
M  END
>  <CHROM.1>
70.15286133,60.51174386,-169.90925574,-159.43474045,62.16477767,-80.17542576
-92.99209299,59.15425216,172.12998582,67.02927827,45.48371421,-167.37754791
-30.63774594,-156.51342183,72.30494731,69.81522186,175.35582593,-172.48842766
63.67834318,-159.16561657,-69.06402916,176.24318116,1.77069892,0.31177238
2.25545963,2.98336253,0.57518878,2.10255614

>  <Name>
1NEM.B

>  <RI>
0

>  <Rbt.Current_Directory>
/home/itssahil/PROJECTS/Mol_Feturizer/New_Systems/rnas/1nem

>  <Rbt.Executable>
rbdock ($Id: //depot/dev/client3/rdock/2013.1/src/exe/rbdock.cxx#4 $)

>  <Rbt.Library>
libRbt.so (2013.1, Build901 2013/11/27)

>  <Rbt.Parameter_File>
/export/apps/rDock/src/rDock_2013.1_src/data/scripts/dock_solv.prm

>  <Rbt.Receptor>
prm/pocket_docking_7.prm

>  <SCORE>
-47.224

>  <SCORE.INTER>
-46.037

>  <SCORE.INTER.CONST>
1

>  <SCORE.INTER.POLAR>
-6.48229

>  <SCORE.INTER.ROT>
9

>  <SCORE.INTER.SOLV>
33.9833

>  <SCORE.INTER.VDW>
-30.0115

>  <SCORE.INTER.norm>
-1.09612

>  <SCORE.INTRA>
-1.23138

>  <SCORE.INTRA.DIHEDRAL>
-5.58998

>  <SCORE.INTRA.DIHEDRAL.0>
22.4324

>  <SCORE.INTRA.POLAR>
0.412653

>  <SCORE.INTRA.POLAR.0>
-1.83749

>  <SCORE.INTRA.REPUL>
0

>  <SCORE.INTRA.REPUL.0>
0

>  <SCORE.INTRA.SOLV>
-8.08679

>  <SCORE.INTRA.SOLV.lig_0>
-160.638

>  <SCORE.INTRA.VDW>
4.20399

>  <SCORE.INTRA.VDW.0>
-7.61953

>  <SCORE.INTRA.norm>
-0.0293185

>  <SCORE.RESTR>
0.0444126

>  <SCORE.RESTR.CAVITY>
0.0444126

>  <SCORE.RESTR.norm>
0.00105744

>  <SCORE.SYSTEM>
0

>  <SCORE.SYSTEM.CONST>
0

>  <SCORE.SYSTEM.DIHEDRAL>
0

>  <SCORE.SYSTEM.SOLV>
0

>  <SCORE.SYSTEM.norm>
0

>  <SCORE.heavy>
42

>  <SCORE.norm>
-1.12438

>  <RMSD>
8.030

$$$$
1NEM.B
 OpenBabel11021811403D
libRbt.so/2013.1/901 2013/11/27
 42 45  0  0  0  0  0  0  0  0999 V2000
   -0.3078   -6.2059    1.4097 O   0  0  0  0  0  0  0  0  0  0  0  0
   -1.2637   -5.3558    0.7728 C   0  0  0  0  0  0  0  0  0  0  0  0
   -1.4378   -4.0140    1.4826 C   0  0  1  0  0  0  0  0  0  0  0  0
   -0.1754   -3.4877    1.8813 O   0  0  0  0  0  0  0  0  0  0  0  0
   -2.0157   -2.9074    0.6148 C   0  0  1  0  0  0  0  0  0  0  0  0
   -3.3991   -3.2050    0.4126 O   0  0  0  0  0  0  0  0  0  0  0  0
   -1.7023   -1.7196    1.5052 C   0  0  1  0  0  0  0  0  0  0  0  0
   -2.5052   -1.7059    2.6903 O   0  0  0  0  0  0  0  0  0  0  0  0
   -0.2495   -2.0621    1.8554 C   0  0  2  0  0  0  0  0  0  0  0  0
   -4.1007   -3.6728    1.5289 C   0  0  2  0  0  0  0  0  0  0  0  0
   -5.1192   -4.7295    1.0803 C   0  0  2  0  0  0  0  0  0  0  0  0
   -5.9756   -4.1841   -0.0057 N   0  3  0  0  0  0  0  0  0  0  0  0
   -5.9544   -5.2205    2.2672 C   0  0  1  0  0  0  0  0  0  0  0  0
   -5.1441   -6.0109    3.1270 O   0  0  0  0  0  0  0  0  0  0  0  0
   -6.5429   -4.0448    3.0531 C   0  0  2  0  0  0  0  0  0  0  0  0
   -7.5305   -3.3774    2.2777 O   0  0  0  0  0  0  0  0  0  0  0  0
   -5.4302   -3.0706    3.4293 C   0  0  1  0  0  0  0  0  0  0  0  0
   -4.7508   -2.6266    2.2388 O   0  0  0  0  0  0  0  0  0  0  0  0
   -5.9333   -1.8425    4.1673 C   0  0  0  0  0  0  0  0  0  0  0  0
   -5.1369   -0.6382    3.8429 N   0  3  0  0  0  0  0  0  0  0  0  0
   -3.1620    1.1331    0.2826 C   0  0  0  0  0  0  0  0  0  0  0  0
    0.2558    0.1786   -0.7827 C   0  0  2  0  0  0  0  0  0  0  0  0
    0.2379    0.6080   -2.2477 C   0  0  2  0  0  0  0  0  0  0  0  0
    1.6225    0.7532   -2.7568 N   0  3  0  0  0  0  0  0  0  0  0  0
   -0.4960    1.9339   -2.3970 C   0  0  1  0  0  0  0  0  0  0  0  0
   -0.5735    2.2831   -3.7705 O   0  0  0  0  0  0  0  0  0  0  0  0
   -1.8987    1.8109   -1.8062 C   0  0  2  0  0  0  0  0  0  0  0  0
   -2.5661    3.0643   -1.8791 O   0  0  0  0  0  0  0  0  0  0  0  0
   -4.0743    2.2740    0.0396 N   0  3  0  0  0  0  0  0  0  0  0  0
   -1.8001    1.3640   -0.3489 C   0  0  2  0  0  0  0  0  0  0  0  0
   -1.0684    0.1246   -0.2587 O   0  0  0  0  0  0  0  0  0  0  0  0
    3.3518   -0.5037    3.1901 C   0  0  2  0  0  0  0  0  0  0  0  0
    3.7125   -0.9579    4.5528 N   0  3  0  0  0  0  0  0  0  0  0  0
    2.9349    0.9623    3.2227 C   0  0  0  0  0  0  0  0  0  0  0  0
    2.5589    1.4426    1.8280 C   0  0  2  0  0  0  0  0  0  0  0  0
    2.1738    2.8433    1.9274 N   0  3  0  0  0  0  0  0  0  0  0  0
    1.4089    0.5990    1.2828 C   0  0  1  0  0  0  0  0  0  0  0  0
    1.0780    1.0414   -0.0480 O   0  0  0  0  0  0  0  0  0  0  0  0
    1.7932   -0.8866    1.2461 C   0  0  2  0  0  0  0  0  0  0  0  0
    0.6548   -1.6636    0.8275 O   0  0  0  0  0  0  0  0  0  0  0  0
    2.2398   -1.3822    2.6192 C   0  0  1  0  0  0  0  0  0  0  0  0
    2.7025   -2.7220    2.5127 O   0  0  0  0  0  0  0  0  0  0  0  0
  1  2  1  0  0  0  0
  3  2  1  6  0  0  0
  3  5  1  0  0  0  0
  3  4  1  0  0  0  0
  4  9  1  0  0  0  0
  5  7  1  0  0  0  0
  5  6  1  1  0  0  0
  7  9  1  0  0  0  0
  7  8  1  1  0  0  0
  9 40  1  6  0  0  0
 10  6  1  6  0  0  0
 10 11  1  0  0  0  0
 10 18  1  0  0  0  0
 11 13  1  0  0  0  0
 11 12  1  6  0  0  0
 13 15  1  0  0  0  0
 13 14  1  1  0  0  0
 15 17  1  0  0  0  0
 15 16  1  6  0  0  0
 17 19  1  6  0  0  0
 17 18  1  0  0  0  0
 19 20  1  0  0  0  0
 21 29  1  0  0  0  0
 22 23  1  0  0  0  0
 22 31  1  0  0  0  0
 22 38  1  1  0  0  0
 23 25  1  0  0  0  0
 23 24  1  1  0  0  0
 25 27  1  0  0  0  0
 25 26  1  6  0  0  0
 27 30  1  0  0  0  0
 27 28  1  1  0  0  0
 30 21  1  6  0  0  0
 30 31  1  0  0  0  0
 32 34  1  0  0  0  0
 32 41  1  0  0  0  0
 32 33  1  1  0  0  0
 34 35  1  0  0  0  0
 35 37  1  0  0  0  0
 35 36  1  1  0  0  0
 37 39  1  0  0  0  0
 37 38  1  6  0  0  0
 39 41  1  0  0  0  0
 39 40  1  1  0  0  0
 41 42  1  6  0  0  0
M  CHG  6  12   1  20   1  24   1  29   1  33   1  36   1
M  END
>  <CHROM.1>
-166.51525280,42.35368118,41.69395062,-143.55660157,64.18801916,-115.84808258
87.76559173,49.60338527,-78.70681940,-146.47254705,-160.03554650,-49.10961897
-39.69074188,-167.66642652,-167.56167247,-64.61975030,89.57426993,157.07502293
47.05895868,166.27026133,-86.47292383,174.58936823,-1.53188380,-1.31599851
1.10707389,-2.49724125,-0.20198767,-0.63566374

>  <Name>
1NEM.B

>  <RI>
0

>  <Rbt.Current_Directory>
/home/itssahil/PROJECTS/Mol_Feturizer/New_Systems/rnas/1nem

>  <Rbt.Executable>
rbdock ($Id: //depot/dev/client3/rdock/2013.1/src/exe/rbdock.cxx#4 $)

>  <Rbt.Library>
libRbt.so (2013.1, Build901 2013/11/27)

>  <Rbt.Parameter_File>
/export/apps/rDock/src/rDock_2013.1_src/data/scripts/dock_solv.prm

>  <Rbt.Receptor>
prm/pocket_docking_4.prm

>  <SCORE>
-20.9293

>  <SCORE.INTER>
-37.8592

>  <SCORE.INTER.CONST>
1

>  <SCORE.INTER.POLAR>
-6.03887

>  <SCORE.INTER.ROT>
9

>  <SCORE.INTER.SOLV>
45.3227

>  <SCORE.INTER.VDW>
-29.8174

>  <SCORE.INTER.norm>
-0.901409

>  <SCORE.INTRA>
16.8377

>  <SCORE.INTRA.DIHEDRAL>
12.8435

>  <SCORE.INTRA.DIHEDRAL.0>
22.4324

>  <SCORE.INTRA.POLAR>
-0.262004

>  <SCORE.INTRA.POLAR.0>
-1.83749

>  <SCORE.INTRA.REPUL>
0

>  <SCORE.INTRA.REPUL.0>
0

>  <SCORE.INTRA.SOLV>
-2.99422

>  <SCORE.INTRA.SOLV.lig_0>
-160.638

>  <SCORE.INTRA.VDW>
12.8039

>  <SCORE.INTRA.VDW.0>
-7.61953

>  <SCORE.INTRA.norm>
0.400897

>  <SCORE.RESTR>
0.0921914

>  <SCORE.RESTR.CAVITY>
0.0921914

>  <SCORE.RESTR.norm>
0.00219503

>  <SCORE.SYSTEM>
0

>  <SCORE.SYSTEM.CONST>
0

>  <SCORE.SYSTEM.DIHEDRAL>
0

>  <SCORE.SYSTEM.SOLV>
0

>  <SCORE.SYSTEM.norm>
0

>  <SCORE.heavy>
42

>  <SCORE.norm>
-0.498317

>  <RMSD>
8.031

$$$$
1NEM.B
 OpenBabel11021811403D
libRbt.so/2013.1/901 2013/11/27
 42 45  0  0  0  0  0  0  0  0999 V2000
   -3.9093    2.7685   -0.3433 O   0  0  0  0  0  0  0  0  0  0  0  0
   -3.0484    2.8240   -1.4826 C   0  0  0  0  0  0  0  0  0  0  0  0
   -1.7783    1.9915   -1.3139 C   0  0  1  0  0  0  0  0  0  0  0  0
   -0.6510    2.8330   -1.0888 O   0  0  0  0  0  0  0  0  0  0  0  0
   -1.7757    1.0771   -0.0993 C   0  0  1  0  0  0  0  0  0  0  0  0
   -2.6800    0.0045   -0.3732 O   0  0  0  0  0  0  0  0  0  0  0  0
   -0.2998    0.7267   -0.0694 C   0  0  1  0  0  0  0  0  0  0  0  0
    0.0766   -0.1205   -1.1602 O   0  0  0  0  0  0  0  0  0  0  0  0
    0.2818    2.1315   -0.2664 C   0  0  2  0  0  0  0  0  0  0  0  0
   -2.6397   -1.0793    0.5104 C   0  0  2  0  0  0  0  0  0  0  0  0
   -3.1009   -2.3468   -0.2219 C   0  0  2  0  0  0  0  0  0  0  0  0
   -4.4243   -2.1154   -0.8585 N   0  3  0  0  0  0  0  0  0  0  0  0
   -3.1331   -3.5461    0.7310 C   0  0  1  0  0  0  0  0  0  0  0  0
   -1.8048   -3.9261    1.0657 O   0  0  0  0  0  0  0  0  0  0  0  0
   -3.9105   -3.2161    2.0090 C   0  0  2  0  0  0  0  0  0  0  0  0
   -5.2934   -3.0568    1.7186 O   0  0  0  0  0  0  0  0  0  0  0  0
   -3.3581   -1.9361    2.6298 C   0  0  1  0  0  0  0  0  0  0  0  0
   -3.4299   -0.8620    1.6721 O   0  0  0  0  0  0  0  0  0  0  0  0
   -4.1083   -1.5030    3.8770 C   0  0  0  0  0  0  0  0  0  0  0  0
   -5.4324   -0.9270    3.5530 N   0  3  0  0  0  0  0  0  0  0  0  0
    4.8434   -0.1618   -0.0451 C   0  0  0  0  0  0  0  0  0  0  0  0
    2.4897    1.5959    2.2126 C   0  0  2  0  0  0  0  0  0  0  0  0
    2.8560    0.9766    3.5592 C   0  0  2  0  0  0  0  0  0  0  0  0
    2.3809    1.8394    4.6671 N   0  3  0  0  0  0  0  0  0  0  0  0
    4.3655    0.8056    3.6649 C   0  0  1  0  0  0  0  0  0  0  0  0
    4.6868    0.1587    4.8867 O   0  0  0  0  0  0  0  0  0  0  0  0
    4.8700   -0.0210    2.4842 C   0  0  2  0  0  0  0  0  0  0  0  0
    6.2868   -0.1269    2.5380 O   0  0  0  0  0  0  0  0  0  0  0  0
    4.4078    0.4972   -1.2977 N   0  3  0  0  0  0  0  0  0  0  0  0
    4.4530    0.6506    1.1772 C   0  0  2  0  0  0  0  0  0  0  0  0
    3.0214    0.8204    1.1416 O   0  0  0  0  0  0  0  0  0  0  0  0
    1.7373    6.0838   -0.4081 C   0  0  2  0  0  0  0  0  0  0  0  0
    1.4269    6.8354   -1.6459 N   0  3  0  0  0  0  0  0  0  0  0  0
    3.1961    5.6413   -0.4192 C   0  0  0  0  0  0  0  0  0  0  0  0
    3.5292    4.8650    0.8472 C   0  0  2  0  0  0  0  0  0  0  0  0
    4.9301    4.4745    0.7754 N   0  3  0  0  0  0  0  0  0  0  0  0
    2.6266    3.6381    0.9543 C   0  0  1  0  0  0  0  0  0  0  0  0
    2.9288    2.9246    2.1692 O   0  0  0  0  0  0  0  0  0  0  0  0
    1.1476    4.0489    0.9581 C   0  0  2  0  0  0  0  0  0  0  0  0
    0.3243    2.8670    0.9544 O   0  0  0  0  0  0  0  0  0  0  0  0
    0.7976    4.8872   -0.2689 C   0  0  1  0  0  0  0  0  0  0  0  0
   -0.5429    5.3478   -0.1620 O   0  0  0  0  0  0  0  0  0  0  0  0
  1  2  1  0  0  0  0
  3  2  1  1  0  0  0
  3  5  1  0  0  0  0
  3  4  1  0  0  0  0
  4  9  1  0  0  0  0
  5  7  1  0  0  0  0
  5  6  1  6  0  0  0
  7  9  1  0  0  0  0
  7  8  1  6  0  0  0
  9 40  1  1  0  0  0
 10  6  1  6  0  0  0
 10 11  1  0  0  0  0
 10 18  1  0  0  0  0
 11 13  1  0  0  0  0
 11 12  1  1  0  0  0
 13 15  1  0  0  0  0
 13 14  1  1  0  0  0
 15 17  1  0  0  0  0
 15 16  1  6  0  0  0
 17 19  1  1  0  0  0
 17 18  1  0  0  0  0
 19 20  1  0  0  0  0
 21 29  1  0  0  0  0
 22 23  1  0  0  0  0
 22 31  1  0  0  0  0
 22 38  1  1  0  0  0
 23 25  1  0  0  0  0
 23 24  1  1  0  0  0
 25 27  1  0  0  0  0
 25 26  1  1  0  0  0
 27 30  1  0  0  0  0
 27 28  1  6  0  0  0
 30 21  1  6  0  0  0
 30 31  1  0  0  0  0
 32 34  1  0  0  0  0
 32 41  1  0  0  0  0
 32 33  1  6  0  0  0
 34 35  1  0  0  0  0
 35 37  1  0  0  0  0
 35 36  1  6  0  0  0
 37 39  1  0  0  0  0
 37 38  1  1  0  0  0
 39 41  1  0  0  0  0
 39 40  1  6  0  0  0
 41 42  1  1  0  0  0
M  CHG  6  12   1  20   1  24   1  29   1  33   1  36   1
M  END
>  <CHROM.1>
-161.58210545,-105.85990984,168.50025037,-153.13758663,-171.35771039,-80.50271920
-84.17636166,60.58900219,70.28665752,-74.08299464,-56.01432826,178.98656202
-46.69146853,-179.03526672,48.55119514,-61.72630258,175.44370092,-172.83374814
-172.20301542,-161.42740128,-72.25266186,77.28022778,0.27297279,1.14516772
0.93208116,2.64846332,0.27899098,2.66726487

>  <Name>
1NEM.B

>  <RI>
0

>  <Rbt.Current_Directory>
/home/itssahil/PROJECTS/Mol_Feturizer/New_Systems/rnas/1nem

>  <Rbt.Executable>
rbdock ($Id: //depot/dev/client3/rdock/2013.1/src/exe/rbdock.cxx#4 $)

>  <Rbt.Library>
libRbt.so (2013.1, Build901 2013/11/27)

>  <Rbt.Parameter_File>
/export/apps/rDock/src/rDock_2013.1_src/data/scripts/dock_solv.prm

>  <Rbt.Receptor>
prm/pocket_docking_8.prm

>  <SCORE>
-38.1777

>  <SCORE.INTER>
-40.5979

>  <SCORE.INTER.CONST>
1

>  <SCORE.INTER.POLAR>
-5.21108

>  <SCORE.INTER.ROT>
9

>  <SCORE.INTER.SOLV>
31.8443

>  <SCORE.INTER.VDW>
-29.9097

>  <SCORE.INTER.norm>
-0.966616

>  <SCORE.INTRA>
2.42015

>  <SCORE.INTRA.DIHEDRAL>
-2.37046

>  <SCORE.INTRA.DIHEDRAL.0>
22.4324

>  <SCORE.INTRA.POLAR>
0.563447

>  <SCORE.INTRA.POLAR.0>
-1.83749

>  <SCORE.INTRA.REPUL>
0.0571749

>  <SCORE.INTRA.REPUL.0>
0

>  <SCORE.INTRA.SOLV>
-3.89464

>  <SCORE.INTRA.SOLV.lig_0>
-160.638

>  <SCORE.INTRA.VDW>
3.3511

>  <SCORE.INTRA.VDW.0>
-7.61953

>  <SCORE.INTRA.norm>
0.0576225

>  <SCORE.RESTR>
0

>  <SCORE.RESTR.CAVITY>
0

>  <SCORE.RESTR.norm>
0

>  <SCORE.SYSTEM>
0

>  <SCORE.SYSTEM.CONST>
0

>  <SCORE.SYSTEM.DIHEDRAL>
0

>  <SCORE.SYSTEM.SOLV>
0

>  <SCORE.SYSTEM.norm>
0

>  <SCORE.heavy>
42

>  <SCORE.norm>
-0.908994

>  <RMSD>
8.041

$$$$
1NEM.B
 OpenBabel11021811403D
libRbt.so/2013.1/901 2013/11/27
 42 45  0  0  0  0  0  0  0  0999 V2000
   -2.2918   -1.2899    0.2939 O   0  0  0  0  0  0  0  0  0  0  0  0
   -2.2500   -2.7004    0.5193 C   0  0  0  0  0  0  0  0  0  0  0  0
   -0.9451   -3.1648    1.1647 C   0  0  1  0  0  0  0  0  0  0  0  0
    0.1776   -2.6041    0.4905 O   0  0  0  0  0  0  0  0  0  0  0  0
   -0.7501   -2.7073    2.6014 C   0  0  1  0  0  0  0  0  0  0  0  0
   -1.6520   -3.4622    3.4137 O   0  0  0  0  0  0  0  0  0  0  0  0
    0.7255   -3.0257    2.7535 C   0  0  1  0  0  0  0  0  0  0  0  0
    0.9736   -4.4352    2.7863 O   0  0  0  0  0  0  0  0  0  0  0  0
    1.2340   -2.4304    1.4352 C   0  0  2  0  0  0  0  0  0  0  0  0
   -2.7663   -2.7734    3.9049 C   0  0  2  0  0  0  0  0  0  0  0  0
   -3.5958   -3.7164    4.7869 C   0  0  2  0  0  0  0  0  0  0  0  0
   -3.9166   -4.9621    4.0414 N   0  3  0  0  0  0  0  0  0  0  0  0
   -4.8620   -3.0174    5.2924 C   0  0  1  0  0  0  0  0  0  0  0  0
   -4.5112   -2.0294    6.2524 O   0  0  0  0  0  0  0  0  0  0  0  0
   -5.6304   -2.3638    4.1397 C   0  0  2  0  0  0  0  0  0  0  0  0
   -6.1853   -3.3590    3.2890 O   0  0  0  0  0  0  0  0  0  0  0  0
   -4.6916   -1.4623    3.3430 C   0  0  1  0  0  0  0  0  0  0  0  0
   -3.5701   -2.2305    2.8655 O   0  0  0  0  0  0  0  0  0  0  0  0
   -5.3594   -0.8128    2.1437 C   0  0  0  0  0  0  0  0  0  0  0  0
   -6.8349   -0.8929    2.2224 N   0  3  0  0  0  0  0  0  0  0  0  0
   -0.6707    3.7859   -0.9403 C   0  0  0  0  0  0  0  0  0  0  0  0
    1.3948    0.7910   -0.2393 C   0  0  2  0  0  0  0  0  0  0  0  0
    1.6787    0.2919   -1.6540 C   0  0  2  0  0  0  0  0  0  0  0  0
    2.8529   -0.6130   -1.6529 N   0  3  0  0  0  0  0  0  0  0  0  0
    1.9501    1.4691   -2.5812 C   0  0  1  0  0  0  0  0  0  0  0  0
    2.1356    0.9978   -3.9071 O   0  0  0  0  0  0  0  0  0  0  0  0
    0.7744    2.4422   -2.5291 C   0  0  2  0  0  0  0  0  0  0  0  0
    1.0502    3.5779   -3.3388 O   0  0  0  0  0  0  0  0  0  0  0  0
   -0.8693    4.2081    0.4651 N   0  3  0  0  0  0  0  0  0  0  0  0
    0.5421    2.8832   -1.0852 C   0  0  2  0  0  0  0  0  0  0  0  0
    0.3247    1.7323   -0.2440 O   0  0  0  0  0  0  0  0  0  0  0  0
    4.4669   -0.4539    3.6711 C   0  0  2  0  0  0  0  0  0  0  0  0
    4.7553   -0.8403    5.0714 N   0  3  0  0  0  0  0  0  0  0  0  0
    4.4967    1.0641    3.5328 C   0  0  0  0  0  0  0  0  0  0  0  0
    4.1994    1.4763    2.0979 C   0  0  2  0  0  0  0  0  0  0  0  0
    4.2444    2.9303    2.0332 N   0  3  0  0  0  0  0  0  0  0  0  0
    2.8253    0.9551    1.6840 C   0  0  1  0  0  0  0  0  0  0  0  0
    2.5636    1.3251    0.3162 O   0  0  0  0  0  0  0  0  0  0  0  0
    2.7583   -0.5723    1.8213 C   0  0  2  0  0  0  0  0  0  0  0  0
    1.4217   -1.0198    1.5245 O   0  0  0  0  0  0  0  0  0  0  0  0
    3.1174   -1.0223    3.2352 C   0  0  1  0  0  0  0  0  0  0  0  0
    3.1638   -2.4422    3.2837 O   0  0  0  0  0  0  0  0  0  0  0  0
  1  2  1  0  0  0  0
  3  2  1  6  0  0  0
  3  5  1  0  0  0  0
  3  4  1  0  0  0  0
  4  9  1  0  0  0  0
  5  7  1  0  0  0  0
  5  6  1  1  0  0  0
  7  9  1  0  0  0  0
  7  8  1  6  0  0  0
  9 40  1  1  0  0  0
 10  6  1  6  0  0  0
 10 11  1  0  0  0  0
 10 18  1  0  0  0  0
 11 13  1  0  0  0  0
 11 12  1  6  0  0  0
 13 15  1  0  0  0  0
 13 14  1  1  0  0  0
 15 17  1  0  0  0  0
 15 16  1  6  0  0  0
 17 19  1  6  0  0  0
 17 18  1  0  0  0  0
 19 20  1  0  0  0  0
 21 29  1  0  0  0  0
 22 23  1  0  0  0  0
 22 31  1  0  0  0  0
 22 38  1  6  0  0  0
 23 25  1  0  0  0  0
 23 24  1  1  0  0  0
 25 27  1  0  0  0  0
 25 26  1  6  0  0  0
 27 30  1  0  0  0  0
 27 28  1  6  0  0  0
 30 21  1  6  0  0  0
 30 31  1  0  0  0  0
 32 34  1  0  0  0  0
 32 41  1  0  0  0  0
 32 33  1  1  0  0  0
 34 35  1  0  0  0  0
 35 37  1  0  0  0  0
 35 36  1  1  0  0  0
 37 39  1  0  0  0  0
 37 38  1  6  0  0  0
 39 41  1  0  0  0  0
 39 40  1  1  0  0  0
 41 42  1  6  0  0  0
M  CHG  6  12   1  20   1  24   1  29   1  33   1  36   1
M  END
>  <CHROM.1>
176.35156612,-47.77280264,-106.71705168,-178.18264232,62.81163492,-149.45665659
173.83214361,177.36407846,61.74994910,15.76506406,67.61648685,-179.57493303
59.57258734,-136.53349124,78.10976567,-178.21337028,70.14945642,160.77850148
-168.79064388,173.60732519,172.02756175,-52.18140789,-0.20549779,-0.72674721
1.61393776,2.44460278,0.11227820,2.27667458

>  <Name>
1NEM.B

>  <RI>
0

>  <Rbt.Current_Directory>
/home/itssahil/PROJECTS/Mol_Feturizer/New_Systems/rnas/1nem

>  <Rbt.Executable>
rbdock ($Id: //depot/dev/client3/rdock/2013.1/src/exe/rbdock.cxx#4 $)

>  <Rbt.Library>
libRbt.so (2013.1, Build901 2013/11/27)

>  <Rbt.Parameter_File>
/export/apps/rDock/src/rDock_2013.1_src/data/scripts/dock_solv.prm

>  <Rbt.Receptor>
prm/pocket_docking_3.prm

>  <SCORE>
-37.8378

>  <SCORE.INTER>
-51.4794

>  <SCORE.INTER.CONST>
1

>  <SCORE.INTER.POLAR>
-6.45835

>  <SCORE.INTER.ROT>
9

>  <SCORE.INTER.SOLV>
37.728

>  <SCORE.INTER.VDW>
-34.9678

>  <SCORE.INTER.norm>
-1.2257

>  <SCORE.INTRA>
12.5114

>  <SCORE.INTRA.DIHEDRAL>
2.38439

>  <SCORE.INTRA.DIHEDRAL.0>
22.4324

>  <SCORE.INTRA.POLAR>
0.993336

>  <SCORE.INTRA.POLAR.0>
-1.83749

>  <SCORE.INTRA.REPUL>
0.305295

>  <SCORE.INTRA.REPUL.0>
0

>  <SCORE.INTRA.SOLV>
-3.61355

>  <SCORE.INTRA.SOLV.lig_0>
-160.638

>  <SCORE.INTRA.VDW>
8.22211

>  <SCORE.INTRA.VDW.0>
-7.61953

>  <SCORE.INTRA.norm>
0.297889

>  <SCORE.RESTR>
1.13028

>  <SCORE.RESTR.CAVITY>
1.13028

>  <SCORE.RESTR.norm>
0.0269114

>  <SCORE.SYSTEM>
0

>  <SCORE.SYSTEM.CONST>
0

>  <SCORE.SYSTEM.DIHEDRAL>
0

>  <SCORE.SYSTEM.SOLV>
0

>  <SCORE.SYSTEM.norm>
0

>  <SCORE.heavy>
42

>  <SCORE.norm>
-0.9009

>  <RMSD>
8.048

$$$$
1NEM.B
 OpenBabel11021811403D
libRbt.so/2013.1/901 2013/11/27
 42 45  0  0  0  0  0  0  0  0999 V2000
   -5.8571   -2.4136   -1.0526 O   0  0  0  0  0  0  0  0  0  0  0  0
   -4.4763   -2.3573   -0.6888 C   0  0  0  0  0  0  0  0  0  0  0  0
   -4.2579   -1.9673    0.7723 C   0  0  1  0  0  0  0  0  0  0  0  0
   -5.3508   -2.3993    1.5776 O   0  0  0  0  0  0  0  0  0  0  0  0
   -3.0587   -2.6282    1.4330 C   0  0  1  0  0  0  0  0  0  0  0  0
   -1.8852   -2.0201    0.8886 O   0  0  0  0  0  0  0  0  0  0  0  0
   -3.3780   -2.3061    2.8808 C   0  0  1  0  0  0  0  0  0  0  0  0
   -3.2272   -0.9123    3.1702 O   0  0  0  0  0  0  0  0  0  0  0  0
   -4.8625   -2.6895    2.8875 C   0  0  2  0  0  0  0  0  0  0  0  0
   -0.7624   -2.8453    0.7632 C   0  0  2  0  0  0  0  0  0  0  0  0
   -0.5229   -3.5790    2.0898 C   0  0  2  0  0  0  0  0  0  0  0  0
   -0.4517   -2.6016    3.2078 N   0  3  0  0  0  0  0  0  0  0  0  0
    0.7386   -4.4452    2.0139 C   0  0  1  0  0  0  0  0  0  0  0  0
    0.5045   -5.5560    1.1585 O   0  0  0  0  0  0  0  0  0  0  0  0
    1.9325   -3.6387    1.4939 C   0  0  2  0  0  0  0  0  0  0  0  0
    2.3245   -2.6633    2.4514 O   0  0  0  0  0  0  0  0  0  0  0  0
    1.5590   -2.9580    0.1801 C   0  0  1  0  0  0  0  0  0  0  0  0
    0.4006   -2.1243    0.3777 O   0  0  0  0  0  0  0  0  0  0  0  0
    2.6709   -2.0898   -0.3821 C   0  0  0  0  0  0  0  0  0  0  0  0
    3.1663   -1.1135    0.6136 N   0  3  0  0  0  0  0  0  0  0  0  0
   -9.0847   -9.4671    3.4216 C   0  0  0  0  0  0  0  0  0  0  0  0
   -7.6723   -6.1963    2.4046 C   0  0  2  0  0  0  0  0  0  0  0  0
   -8.8624   -5.5755    1.6770 C   0  0  2  0  0  0  0  0  0  0  0  0
   -8.6974   -4.1052    1.5846 N   0  3  0  0  0  0  0  0  0  0  0  0
  -10.1543   -5.8924    2.4185 C   0  0  1  0  0  0  0  0  0  0  0  0
  -11.2590   -5.3768    1.6917 O   0  0  0  0  0  0  0  0  0  0  0  0
  -10.2921   -7.4044    2.5816 C   0  0  2  0  0  0  0  0  0  0  0  0
  -11.4608   -7.7053    3.3334 O   0  0  0  0  0  0  0  0  0  0  0  0
   -8.7332  -10.1200    2.1398 N   0  3  0  0  0  0  0  0  0  0  0  0
   -9.0615   -7.9533    3.3010 C   0  0  2  0  0  0  0  0  0  0  0  0
   -7.8651   -7.5975    2.5786 O   0  0  0  0  0  0  0  0  0  0  0  0
   -4.3622   -5.3980    6.5171 C   0  0  2  0  0  0  0  0  0  0  0  0
   -3.0869   -5.6861    7.2129 N   0  3  0  0  0  0  0  0  0  0  0  0
   -5.1855   -6.6746    6.3886 C   0  0  0  0  0  0  0  0  0  0  0  0
   -6.4993   -6.3938    5.6727 C   0  0  2  0  0  0  0  0  0  0  0  0
   -7.2356   -7.6469    5.5842 N   0  3  0  0  0  0  0  0  0  0  0  0
   -6.2202   -5.8268    4.2828 C   0  0  1  0  0  0  0  0  0  0  0  0
   -7.4682   -5.5375    3.6230 O   0  0  0  0  0  0  0  0  0  0  0  0
   -5.3829   -4.5437    4.3762 C   0  0  2  0  0  0  0  0  0  0  0  0
   -5.0498   -4.0938    3.0491 O   0  0  0  0  0  0  0  0  0  0  0  0
   -4.0869   -4.7775    5.1484 C   0  0  1  0  0  0  0  0  0  0  0  0
   -3.4057   -3.5414    5.3173 O   0  0  0  0  0  0  0  0  0  0  0  0
  1  2  1  0  0  0  0
  3  2  1  6  0  0  0
  3  5  1  0  0  0  0
  3  4  1  0  0  0  0
  4  9  1  0  0  0  0
  5  7  1  0  0  0  0
  5  6  1  6  0  0  0
  7  9  1  0  0  0  0
  7  8  1  6  0  0  0
  9 40  1  6  0  0  0
 10  6  1  1  0  0  0
 10 11  1  0  0  0  0
 10 18  1  0  0  0  0
 11 13  1  0  0  0  0
 11 12  1  1  0  0  0
 13 15  1  0  0  0  0
 13 14  1  6  0  0  0
 15 17  1  0  0  0  0
 15 16  1  1  0  0  0
 17 19  1  1  0  0  0
 17 18  1  0  0  0  0
 19 20  1  0  0  0  0
 21 29  1  0  0  0  0
 22 23  1  0  0  0  0
 22 31  1  0  0  0  0
 22 38  1  1  0  0  0
 23 25  1  0  0  0  0
 23 24  1  1  0  0  0
 25 27  1  0  0  0  0
 25 26  1  6  0  0  0
 27 30  1  0  0  0  0
 27 28  1  1  0  0  0
 30 21  1  6  0  0  0
 30 31  1  0  0  0  0
 32 34  1  0  0  0  0
 32 41  1  0  0  0  0
 32 33  1  6  0  0  0
 34 35  1  0  0  0  0
 35 37  1  0  0  0  0
 35 36  1  6  0  0  0
 37 39  1  0  0  0  0
 37 38  1  1  0  0  0
 39 41  1  0  0  0  0
 39 40  1  6  0  0  0
 41 42  1  1  0  0  0
M  CHG  6  12   1  20   1  24   1  29   1  33   1  36   1
M  END
>  <CHROM.1>
-167.90998916,29.68891720,-147.10643603,-49.47968345,68.83313770,-145.64063697
-70.53739420,142.24001685,74.73914323,-52.90690646,-164.45201186,76.63119024
50.30334322,-167.54437819,-165.86264011,77.17674978,-174.28593652,-154.75179665
161.04293005,-121.71662075,151.18753365,-59.61904133,-4.42498095,-4.53420056
2.61679864,0.38481331,-0.26908061,-0.97565553

>  <Name>
1NEM.B

>  <RI>
0

>  <Rbt.Current_Directory>
/home/itssahil/PROJECTS/Mol_Feturizer/New_Systems/rnas/1nem

>  <Rbt.Executable>
rbdock ($Id: //depot/dev/client3/rdock/2013.1/src/exe/rbdock.cxx#4 $)

>  <Rbt.Library>
libRbt.so (2013.1, Build901 2013/11/27)

>  <Rbt.Parameter_File>
/export/apps/rDock/src/rDock_2013.1_src/data/scripts/dock_solv.prm

>  <Rbt.Receptor>
prm/blind_docking_100.prm

>  <SCORE>
-14.369

>  <SCORE.INTER>
-38.9788

>  <SCORE.INTER.CONST>
1

>  <SCORE.INTER.POLAR>
-6.49309

>  <SCORE.INTER.ROT>
9

>  <SCORE.INTER.SOLV>
36.0325

>  <SCORE.INTER.VDW>
-25.9531

>  <SCORE.INTER.norm>
-0.928067

>  <SCORE.INTRA>
18.6916

>  <SCORE.INTRA.DIHEDRAL>
14.4354

>  <SCORE.INTRA.DIHEDRAL.0>
22.4324

>  <SCORE.INTRA.POLAR>
0.609

>  <SCORE.INTRA.POLAR.0>
-1.83749

>  <SCORE.INTRA.REPUL>
0

>  <SCORE.INTRA.REPUL.0>
0

>  <SCORE.INTRA.SOLV>
4.2348

>  <SCORE.INTRA.SOLV.lig_0>
-160.638

>  <SCORE.INTRA.VDW>
7.28589

>  <SCORE.INTRA.VDW.0>
-7.61953

>  <SCORE.INTRA.norm>
0.445038

>  <SCORE.RESTR>
5.91824

>  <SCORE.RESTR.CAVITY>
5.91824

>  <SCORE.RESTR.norm>
0.140911

>  <SCORE.SYSTEM>
0

>  <SCORE.SYSTEM.CONST>
0

>  <SCORE.SYSTEM.DIHEDRAL>
0

>  <SCORE.SYSTEM.SOLV>
0

>  <SCORE.SYSTEM.norm>
0

>  <SCORE.heavy>
42

>  <SCORE.norm>
-0.342119

>  <RMSD>
8.055

$$$$
1NEM.B
 OpenBabel11021811403D
libRbt.so/2013.1/901 2013/11/27
 42 45  0  0  0  0  0  0  0  0999 V2000
   -6.2301   -2.6494    0.3177 O   0  0  0  0  0  0  0  0  0  0  0  0
   -5.3817   -3.0659    1.3895 C   0  0  0  0  0  0  0  0  0  0  0  0
   -4.1151   -3.7733    0.9097 C   0  0  1  0  0  0  0  0  0  0  0  0
   -3.2077   -2.8417    0.3282 O   0  0  0  0  0  0  0  0  0  0  0  0
   -3.2909   -4.4165    2.0135 C   0  0  1  0  0  0  0  0  0  0  0  0
   -4.0055   -5.5715    2.4591 O   0  0  0  0  0  0  0  0  0  0  0  0
   -2.0120   -4.6700    1.2376 C   0  0  1  0  0  0  0  0  0  0  0  0
   -2.1701   -5.7010    0.2572 O   0  0  0  0  0  0  0  0  0  0  0  0
   -1.8759   -3.3054    0.5519 C   0  0  2  0  0  0  0  0  0  0  0  0
   -4.3156   -5.6190    3.8225 C   0  0  2  0  0  0  0  0  0  0  0  0
   -5.3714   -6.7064    4.0638 C   0  0  2  0  0  0  0  0  0  0  0  0
   -6.5396   -6.4908    3.1699 N   0  3  0  0  0  0  0  0  0  0  0  0
   -5.7865   -6.7460    5.5381 C   0  0  1  0  0  0  0  0  0  0  0  0
   -4.7188   -7.2631    6.3212 O   0  0  0  0  0  0  0  0  0  0  0  0
   -6.1653   -5.3505    6.0435 C   0  0  2  0  0  0  0  0  0  0  0  0
   -7.3707   -4.9130    5.4288 O   0  0  0  0  0  0  0  0  0  0  0  0
   -5.0378   -4.3694    5.7353 C   0  0  1  0  0  0  0  0  0  0  0  0
   -4.7700   -4.3670    4.3196 O   0  0  0  0  0  0  0  0  0  0  0  0
   -5.3522   -2.9443    6.1552 C   0  0  0  0  0  0  0  0  0  0  0  0
   -5.4553   -2.8117    7.6255 N   0  3  0  0  0  0  0  0  0  0  0  0
    1.9343   -2.4457    2.0584 C   0  0  0  0  0  0  0  0  0  0  0  0
    0.2747    0.2626    0.1511 C   0  0  2  0  0  0  0  0  0  0  0  0
    1.4265    0.7565   -0.7210 C   0  0  2  0  0  0  0  0  0  0  0  0
    0.9024    1.5137   -1.8827 N   0  3  0  0  0  0  0  0  0  0  0  0
    2.2514   -0.4230   -1.2183 C   0  0  1  0  0  0  0  0  0  0  0  0
    3.3623    0.0531   -1.9624 O   0  0  0  0  0  0  0  0  0  0  0  0
    2.7319   -1.2488   -0.0272 C   0  0  2  0  0  0  0  0  0  0  0  0
    3.4445   -2.3904   -0.4859 O   0  0  0  0  0  0  0  0  0  0  0  0
    0.9243   -3.4623    2.4319 N   0  3  0  0  0  0  0  0  0  0  0  0
    1.5292   -1.6921    0.8036 C   0  0  2  0  0  0  0  0  0  0  0  0
    0.7636   -0.5431    1.2201 O   0  0  0  0  0  0  0  0  0  0  0  0
   -3.9772    0.2545    1.9216 C   0  0  2  0  0  0  0  0  0  0  0  0
   -5.3313    0.1462    2.5116 N   0  3  0  0  0  0  0  0  0  0  0  0
   -4.0772    0.6900    0.4641 C   0  0  0  0  0  0  0  0  0  0  0  0
   -2.6918    0.8034   -0.1565 C   0  0  2  0  0  0  0  0  0  0  0  0
   -2.8564    1.2223   -1.5412 N   0  3  0  0  0  0  0  0  0  0  0  0
   -1.9772   -0.5436   -0.0763 C   0  0  1  0  0  0  0  0  0  0  0  0
   -0.6567   -0.4206   -0.6399 O   0  0  0  0  0  0  0  0  0  0  0  0
   -1.8685   -1.0164    1.3800 C   0  0  2  0  0  0  0  0  0  0  0  0
   -1.2855   -2.3331    1.4117 O   0  0  0  0  0  0  0  0  0  0  0  0
   -3.2382   -1.0764    2.0515 C   0  0  1  0  0  0  0  0  0  0  0  0
   -3.0785   -1.3970    3.4271 O   0  0  0  0  0  0  0  0  0  0  0  0
  1  2  1  0  0  0  0
  3  2  1  1  0  0  0
  3  5  1  0  0  0  0
  3  4  1  0  0  0  0
  4  9  1  0  0  0  0
  5  7  1  0  0  0  0
  5  6  1  6  0  0  0
  7  9  1  0  0  0  0
  7  8  1  6  0  0  0
  9 40  1  1  0  0  0
 10  6  1  6  0  0  0
 10 11  1  0  0  0  0
 10 18  1  0  0  0  0
 11 13  1  0  0  0  0
 11 12  1  6  0  0  0
 13 15  1  0  0  0  0
 13 14  1  1  0  0  0
 15 17  1  0  0  0  0
 15 16  1  6  0  0  0
 17 19  1  6  0  0  0
 17 18  1  0  0  0  0
 19 20  1  0  0  0  0
 21 29  1  0  0  0  0
 22 23  1  0  0  0  0
 22 31  1  0  0  0  0
 22 38  1  6  0  0  0
 23 25  1  0  0  0  0
 23 24  1  6  0  0  0
 25 27  1  0  0  0  0
 25 26  1  1  0  0  0
 27 30  1  0  0  0  0
 27 28  1  6  0  0  0
 30 21  1  1  0  0  0
 30 31  1  0  0  0  0
 32 34  1  0  0  0  0
 32 41  1  0  0  0  0
 32 33  1  6  0  0  0
 34 35  1  0  0  0  0
 35 37  1  0  0  0  0
 35 36  1  6  0  0  0
 37 39  1  0  0  0  0
 37 38  1  1  0  0  0
 39 41  1  0  0  0  0
 39 40  1  6  0  0  0
 41 42  1  1  0  0  0
M  CHG  6  12   1  20   1  24   1  29   1  33   1  36   1
M  END
>  <CHROM.1>
58.01720334,72.62666008,-123.31030016,165.45618006,-78.41476564,-23.78879134
66.07333344,-54.74700198,67.97083893,66.36581313,-159.56067002,-148.52202464
-40.48511353,-159.73585144,56.09494019,-67.05175873,170.79831960,97.94729761
-62.53928818,74.12676086,-50.52959859,-168.92919225,-2.51048737,-2.55677097
1.87679740,2.36253253,-0.30833790,2.59543402

>  <Name>
1NEM.B

>  <RI>
0

>  <Rbt.Current_Directory>
/home/itssahil/PROJECTS/Mol_Feturizer/New_Systems/rnas/1nem

>  <Rbt.Executable>
rbdock ($Id: //depot/dev/client3/rdock/2013.1/src/exe/rbdock.cxx#4 $)

>  <Rbt.Library>
libRbt.so (2013.1, Build901 2013/11/27)

>  <Rbt.Parameter_File>
/export/apps/rDock/src/rDock_2013.1_src/data/scripts/dock_solv.prm

>  <Rbt.Receptor>
prm/pocket_docking_4.prm

>  <SCORE>
-21.9563

>  <SCORE.INTER>
-35.4263

>  <SCORE.INTER.CONST>
1

>  <SCORE.INTER.POLAR>
-5.37607

>  <SCORE.INTER.ROT>
9

>  <SCORE.INTER.SOLV>
35.314

>  <SCORE.INTER.VDW>
-27.0686

>  <SCORE.INTER.norm>
-0.843482

>  <SCORE.INTRA>
12.9947

>  <SCORE.INTRA.DIHEDRAL>
4.94982

>  <SCORE.INTRA.DIHEDRAL.0>
22.4324

>  <SCORE.INTRA.POLAR>
0.481119

>  <SCORE.INTRA.POLAR.0>
-1.83749

>  <SCORE.INTRA.REPUL>
0

>  <SCORE.INTRA.REPUL.0>
0

>  <SCORE.INTRA.SOLV>
1.30375

>  <SCORE.INTRA.SOLV.lig_0>
-160.638

>  <SCORE.INTRA.VDW>
8.23214

>  <SCORE.INTRA.VDW.0>
-7.61953

>  <SCORE.INTRA.norm>
0.309398

>  <SCORE.RESTR>
0.475228

>  <SCORE.RESTR.CAVITY>
0.475228

>  <SCORE.RESTR.norm>
0.0113149

>  <SCORE.SYSTEM>
0

>  <SCORE.SYSTEM.CONST>
0

>  <SCORE.SYSTEM.DIHEDRAL>
0

>  <SCORE.SYSTEM.SOLV>
0

>  <SCORE.SYSTEM.norm>
0

>  <SCORE.heavy>
42

>  <SCORE.norm>
-0.522769

>  <RMSD>
8.064

$$$$
1NEM.B
 OpenBabel11021811403D
libRbt.so/2013.1/901 2013/11/27
 42 45  0  0  0  0  0  0  0  0999 V2000
   -7.1291   -3.8520   -0.2551 O   0  0  0  0  0  0  0  0  0  0  0  0
   -6.1821   -2.7820   -0.2709 C   0  0  0  0  0  0  0  0  0  0  0  0
   -4.7471   -3.2494   -0.0325 C   0  0  1  0  0  0  0  0  0  0  0  0
   -3.8249   -2.1933   -0.2851 O   0  0  0  0  0  0  0  0  0  0  0  0
   -4.4382   -3.6426    1.4033 C   0  0  1  0  0  0  0  0  0  0  0  0
   -5.0956   -4.8870    1.6537 O   0  0  0  0  0  0  0  0  0  0  0  0
   -2.9239   -3.6827    1.3177 C   0  0  1  0  0  0  0  0  0  0  0  0
   -2.4560   -4.7845    0.5327 O   0  0  0  0  0  0  0  0  0  0  0  0
   -2.6935   -2.3649    0.5686 C   0  0  2  0  0  0  0  0  0  0  0  0
   -5.2791   -5.2300    2.9975 C   0  0  2  0  0  0  0  0  0  0  0  0
   -6.5425   -6.0910    3.1320 C   0  0  2  0  0  0  0  0  0  0  0  0
   -7.7001   -5.3999    2.5054 N   0  3  0  0  0  0  0  0  0  0  0  0
   -6.8150   -6.4338    4.6002 C   0  0  1  0  0  0  0  0  0  0  0  0
   -5.8389   -7.3571    5.0643 O   0  0  0  0  0  0  0  0  0  0  0  0
   -6.7904   -5.1768    5.4753 C   0  0  2  0  0  0  0  0  0  0  0  0
   -7.9032   -4.3441    5.1750 O   0  0  0  0  0  0  0  0  0  0  0  0
   -5.4902   -4.4132    5.2403 C   0  0  1  0  0  0  0  0  0  0  0  0
   -5.3634   -4.0895    3.8420 O   0  0  0  0  0  0  0  0  0  0  0  0
   -5.4041   -3.1193    6.0306 C   0  0  0  0  0  0  0  0  0  0  0  0
   -4.5529   -2.1150    5.3549 N   0  3  0  0  0  0  0  0  0  0  0  0
    0.4637   -4.3547    2.2247 C   0  0  0  0  0  0  0  0  0  0  0  0
    0.1106   -0.8228    1.1625 C   0  0  2  0  0  0  0  0  0  0  0  0
    1.5683   -0.3688    1.1617 C   0  0  2  0  0  0  0  0  0  0  0  0
    1.7248    0.8530    0.3370 N   0  3  0  0  0  0  0  0  0  0  0  0
    2.4607   -1.4704    0.6057 C   0  0  1  0  0  0  0  0  0  0  0  0
    3.8192   -1.0666    0.6823 O   0  0  0  0  0  0  0  0  0  0  0  0
    2.2479   -2.7532    1.4061 C   0  0  2  0  0  0  0  0  0  0  0  0
    3.0260   -3.8053    0.8499 O   0  0  0  0  0  0  0  0  0  0  0  0
    0.2916   -5.5677    1.3929 N   0  3  0  0  0  0  0  0  0  0  0  0
    0.7690   -3.1340    1.3741 C   0  0  2  0  0  0  0  0  0  0  0  0
   -0.0340   -2.0471    1.8775 O   0  0  0  0  0  0  0  0  0  0  0  0
   -3.2889    2.1447   -0.1065 C   0  0  2  0  0  0  0  0  0  0  0  0
   -4.5388    2.8870   -0.3896 N   0  3  0  0  0  0  0  0  0  0  0  0
   -2.5418    1.8673   -1.4061 C   0  0  0  0  0  0  0  0  0  0  0  0
   -1.2550    1.1022   -1.1305 C   0  0  2  0  0  0  0  0  0  0  0  0
   -0.5915    0.8716   -2.4059 N   0  3  0  0  0  0  0  0  0  0  0  0
   -1.5773   -0.2195   -0.4374 C   0  0  1  0  0  0  0  0  0  0  0  0
   -0.3527   -0.9244   -0.1548 O   0  0  0  0  0  0  0  0  0  0  0  0
   -2.3398    0.0242    0.8723 C   0  0  2  0  0  0  0  0  0  0  0  0
   -2.7189   -1.2413    1.4462 O   0  0  0  0  0  0  0  0  0  0  0  0
   -3.6035    0.8481    0.6379 C   0  0  1  0  0  0  0  0  0  0  0  0
   -4.2087    1.1542    1.8871 O   0  0  0  0  0  0  0  0  0  0  0  0
  1  2  1  0  0  0  0
  3  2  1  1  0  0  0
  3  5  1  0  0  0  0
  3  4  1  0  0  0  0
  4  9  1  0  0  0  0
  5  7  1  0  0  0  0
  5  6  1  6  0  0  0
  7  9  1  0  0  0  0
  7  8  1  6  0  0  0
  9 40  1  1  0  0  0
 10  6  1  6  0  0  0
 10 11  1  0  0  0  0
 10 18  1  0  0  0  0
 11 13  1  0  0  0  0
 11 12  1  1  0  0  0
 13 15  1  0  0  0  0
 13 14  1  1  0  0  0
 15 17  1  0  0  0  0
 15 16  1  6  0  0  0
 17 19  1  1  0  0  0
 17 18  1  0  0  0  0
 19 20  1  0  0  0  0
 21 29  1  0  0  0  0
 22 23  1  0  0  0  0
 22 31  1  0  0  0  0
 22 38  1  6  0  0  0
 23 25  1  0  0  0  0
 23 24  1  6  0  0  0
 25 27  1  0  0  0  0
 25 26  1  1  0  0  0
 27 30  1  0  0  0  0
 27 28  1  6  0  0  0
 30 21  1  1  0  0  0
 30 31  1  0  0  0  0
 32 34  1  0  0  0  0
 32 41  1  0  0  0  0
 32 33  1  6  0  0  0
 34 35  1  0  0  0  0
 35 37  1  0  0  0  0
 35 36  1  6  0  0  0
 37 39  1  0  0  0  0
 37 38  1  1  0  0  0
 39 41  1  0  0  0  0
 39 40  1  6  0  0  0
 41 42  1  1  0  0  0
M  CHG  6  12   1  20   1  24   1  29   1  33   1  36   1
M  END
>  <CHROM.1>
-79.18082186,169.98036458,-161.56458281,150.42818808,-44.16893730,-73.22361206
-72.42223663,-162.72450601,-92.17253199,-152.00927055,144.57383104,-102.62583615
167.76788273,-127.79453927,-164.50179204,148.47504806,82.35246618,162.81514389
-55.76548097,100.22502223,-17.81754626,-55.68365655,-2.80602799,-2.41955175
1.56316864,2.44820791,-0.12022953,2.60761075

>  <Name>
1NEM.B

>  <RI>
0

>  <Rbt.Current_Directory>
/home/itssahil/PROJECTS/Mol_Feturizer/New_Systems/rnas/1nem

>  <Rbt.Executable>
rbdock ($Id: //depot/dev/client3/rdock/2013.1/src/exe/rbdock.cxx#4 $)

>  <Rbt.Library>
libRbt.so (2013.1, Build901 2013/11/27)

>  <Rbt.Parameter_File>
/export/apps/rDock/src/rDock_2013.1_src/data/scripts/dock_solv.prm

>  <Rbt.Receptor>
prm/blind_docking_40.prm

>  <SCORE>
-26.9546

>  <SCORE.INTER>
-54.6598

>  <SCORE.INTER.CONST>
1

>  <SCORE.INTER.POLAR>
-10.4108

>  <SCORE.INTER.ROT>
9

>  <SCORE.INTER.SOLV>
47.85

>  <SCORE.INTER.VDW>
-27.2872

>  <SCORE.INTER.norm>
-1.30142

>  <SCORE.INTRA>
21.364

>  <SCORE.INTRA.DIHEDRAL>
27.7735

>  <SCORE.INTRA.DIHEDRAL.0>
22.4324

>  <SCORE.INTRA.POLAR>
-0.697932

>  <SCORE.INTRA.POLAR.0>
-1.83749

>  <SCORE.INTRA.REPUL>
0

>  <SCORE.INTRA.REPUL.0>
0

>  <SCORE.INTRA.SOLV>
0.499064

>  <SCORE.INTRA.SOLV.lig_0>
-160.638

>  <SCORE.INTRA.VDW>
9.60067

>  <SCORE.INTRA.VDW.0>
-7.61953

>  <SCORE.INTRA.norm>
0.508666

>  <SCORE.RESTR>
6.34125

>  <SCORE.RESTR.CAVITY>
6.34125

>  <SCORE.RESTR.norm>
0.150982

>  <SCORE.SYSTEM>
0

>  <SCORE.SYSTEM.CONST>
0

>  <SCORE.SYSTEM.DIHEDRAL>
0

>  <SCORE.SYSTEM.SOLV>
0

>  <SCORE.SYSTEM.norm>
0

>  <SCORE.heavy>
42

>  <SCORE.norm>
-0.641776

>  <RMSD>
8.074

$$$$
1NEM.B
 OpenBabel11021811403D
libRbt.so/2013.1/901 2013/11/27
 42 45  0  0  0  0  0  0  0  0999 V2000
   -2.3325   -0.8712    0.4515 O   0  0  0  0  0  0  0  0  0  0  0  0
   -2.3384   -2.2976    0.5383 C   0  0  0  0  0  0  0  0  0  0  0  0
   -1.0480   -2.8666    1.1264 C   0  0  1  0  0  0  0  0  0  0  0  0
    0.0909   -2.2835    0.5000 O   0  0  0  0  0  0  0  0  0  0  0  0
   -0.8306   -2.5555    2.5986 C   0  0  1  0  0  0  0  0  0  0  0  0
   -1.7551   -3.3528    3.3422 O   0  0  0  0  0  0  0  0  0  0  0  0
    0.6335   -2.9382    2.7081 C   0  0  1  0  0  0  0  0  0  0  0  0
    0.8317   -4.3521    2.6045 O   0  0  0  0  0  0  0  0  0  0  0  0
    1.1569   -2.2377    1.4487 C   0  0  2  0  0  0  0  0  0  0  0  0
   -2.8221   -2.6702    3.9363 C   0  0  2  0  0  0  0  0  0  0  0  0
   -3.6640   -3.6598    4.7530 C   0  0  2  0  0  0  0  0  0  0  0  0
   -4.0625   -4.8131    3.9036 N   0  3  0  0  0  0  0  0  0  0  0  0
   -4.8817   -2.9622    5.3678 C   0  0  1  0  0  0  0  0  0  0  0  0
   -4.4579   -2.0872    6.4047 O   0  0  0  0  0  0  0  0  0  0  0  0
   -5.6566   -2.1691    4.3109 C   0  0  2  0  0  0  0  0  0  0  0  0
   -6.2812   -3.0537    3.3892 O   0  0  0  0  0  0  0  0  0  0  0  0
   -4.7047   -1.2334    3.5712 C   0  0  1  0  0  0  0  0  0  0  0  0
   -3.6336   -1.9967    2.9829 O   0  0  0  0  0  0  0  0  0  0  0  0
   -5.3806   -0.4440    2.4640 C   0  0  0  0  0  0  0  0  0  0  0  0
   -5.8639   -1.3220    1.3753 N   0  3  0  0  0  0  0  0  0  0  0  0
   -0.6140    3.7983   -0.9513 C   0  0  0  0  0  0  0  0  0  0  0  0
    1.4944    0.8639   -0.1318 C   0  0  2  0  0  0  0  0  0  0  0  0
    1.8276    0.3423   -1.5275 C   0  0  2  0  0  0  0  0  0  0  0  0
    3.0202   -0.5366   -1.4756 N   0  3  0  0  0  0  0  0  0  0  0  0
    2.0994    1.5059   -2.4715 C   0  0  1  0  0  0  0  0  0  0  0  0
    2.3313    1.0119   -3.7817 O   0  0  0  0  0  0  0  0  0  0  0  0
    0.9025    2.4541   -2.4717 C   0  0  2  0  0  0  0  0  0  0  0  0
    1.1763    3.5788   -3.2974 O   0  0  0  0  0  0  0  0  0  0  0  0
   -0.6693    4.5235    0.3387 N   0  3  0  0  0  0  0  0  0  0  0  0
    0.6212    2.9195   -1.0443 C   0  0  2  0  0  0  0  0  0  0  0  0
    0.4052    1.7815   -0.1852 O   0  0  0  0  0  0  0  0  0  0  0  0
    4.5016   -0.4450    3.7648 C   0  0  2  0  0  0  0  0  0  0  0  0
    4.7936   -0.8478    5.1597 N   0  3  0  0  0  0  0  0  0  0  0  0
    4.6078    1.0695    3.6266 C   0  0  0  0  0  0  0  0  0  0  0  0
    4.3077    1.4984    2.1972 C   0  0  2  0  0  0  0  0  0  0  0  0
    4.4270    2.9482    2.1323 N   0  3  0  0  0  0  0  0  0  0  0  0
    2.9014    1.0497    1.8067 C   0  0  1  0  0  0  0  0  0  0  0  0
    2.6359    1.4345    0.4437 O   0  0  0  0  0  0  0  0  0  0  0  0
    2.7577   -0.4723    1.9446 C   0  0  2  0  0  0  0  0  0  0  0  0
    1.3948   -0.8495    1.6707 O   0  0  0  0  0  0  0  0  0  0  0  0
    3.1172   -0.9422    3.3519 C   0  0  1  0  0  0  0  0  0  0  0  0
    3.0907   -2.3626    3.3991 O   0  0  0  0  0  0  0  0  0  0  0  0
  1  2  1  0  0  0  0
  3  2  1  6  0  0  0
  3  5  1  0  0  0  0
  3  4  1  0  0  0  0
  4  9  1  0  0  0  0
  5  7  1  0  0  0  0
  5  6  1  1  0  0  0
  7  9  1  0  0  0  0
  7  8  1  6  0  0  0
  9 40  1  1  0  0  0
 10  6  1  6  0  0  0
 10 11  1  0  0  0  0
 10 18  1  0  0  0  0
 11 13  1  0  0  0  0
 11 12  1  6  0  0  0
 13 15  1  0  0  0  0
 13 14  1  1  0  0  0
 15 17  1  0  0  0  0
 15 16  1  6  0  0  0
 17 19  1  6  0  0  0
 17 18  1  0  0  0  0
 19 20  1  0  0  0  0
 21 29  1  0  0  0  0
 22 23  1  0  0  0  0
 22 31  1  0  0  0  0
 22 38  1  6  0  0  0
 23 25  1  0  0  0  0
 23 24  1  1  0  0  0
 25 27  1  0  0  0  0
 25 26  1  6  0  0  0
 27 30  1  0  0  0  0
 27 28  1  6  0  0  0
 30 21  1  6  0  0  0
 30 31  1  0  0  0  0
 32 34  1  0  0  0  0
 32 41  1  0  0  0  0
 32 33  1  1  0  0  0
 34 35  1  0  0  0  0
 35 37  1  0  0  0  0
 35 36  1  1  0  0  0
 37 39  1  0  0  0  0
 37 38  1  6  0  0  0
 39 41  1  0  0  0  0
 39 40  1  1  0  0  0
 41 42  1  6  0  0  0
M  CHG  6  12   1  20   1  24   1  29   1  33   1  36   1
M  END
>  <CHROM.1>
-51.39687436,-47.90691240,-108.41736269,-176.86164663,-168.41104236,-147.01091328
86.93298744,-51.41687326,83.83788157,-65.15533440,162.42418689,-164.87687658
-49.35331588,-133.79506776,-46.94561344,-173.86466932,-55.00777221,-69.58139682
69.29648002,168.00456496,165.84710999,77.97806188,-0.15515591,-0.61732037
1.66329749,2.45284646,0.13519079,2.25409623

>  <Name>
1NEM.B

>  <RI>
0

>  <Rbt.Current_Directory>
/home/itssahil/PROJECTS/Mol_Feturizer/New_Systems/rnas/1nem

>  <Rbt.Executable>
rbdock ($Id: //depot/dev/client3/rdock/2013.1/src/exe/rbdock.cxx#4 $)

>  <Rbt.Library>
libRbt.so (2013.1, Build901 2013/11/27)

>  <Rbt.Parameter_File>
/export/apps/rDock/src/rDock_2013.1_src/data/scripts/dock_solv.prm

>  <Rbt.Receptor>
prm/pocket_docking_6.prm

>  <SCORE>
-43.7172

>  <SCORE.INTER>
-54.8123

>  <SCORE.INTER.CONST>
1

>  <SCORE.INTER.POLAR>
-6.92223

>  <SCORE.INTER.ROT>
9

>  <SCORE.INTER.SOLV>
33.6117

>  <SCORE.INTER.VDW>
-34.2714

>  <SCORE.INTER.norm>
-1.30506

>  <SCORE.INTRA>
11.0951

>  <SCORE.INTRA.DIHEDRAL>
6.73713

>  <SCORE.INTRA.DIHEDRAL.0>
22.4324

>  <SCORE.INTRA.POLAR>
0.899503

>  <SCORE.INTRA.POLAR.0>
-1.83749

>  <SCORE.INTRA.REPUL>
0

>  <SCORE.INTRA.REPUL.0>
0

>  <SCORE.INTRA.SOLV>
-1.65808

>  <SCORE.INTRA.SOLV.lig_0>
-160.638

>  <SCORE.INTRA.VDW>
5.49728

>  <SCORE.INTRA.VDW.0>
-7.61953

>  <SCORE.INTRA.norm>
0.264169

>  <SCORE.RESTR>
0

>  <SCORE.RESTR.CAVITY>
0

>  <SCORE.RESTR.norm>
0

>  <SCORE.SYSTEM>
0

>  <SCORE.SYSTEM.CONST>
0

>  <SCORE.SYSTEM.DIHEDRAL>
0

>  <SCORE.SYSTEM.SOLV>
0

>  <SCORE.SYSTEM.norm>
0

>  <SCORE.heavy>
42

>  <SCORE.norm>
-1.04089

>  <RMSD>
8.074

$$$$
1NEM.B
 OpenBabel11021811403D
libRbt.so/2013.1/901 2013/11/27
 42 45  0  0  0  0  0  0  0  0999 V2000
    6.8014    2.7140   -2.5111 O   0  0  0  0  0  0  0  0  0  0  0  0
    5.4616    3.0892   -2.8370 C   0  0  0  0  0  0  0  0  0  0  0  0
    4.4490    1.9736   -2.5824 C   0  0  1  0  0  0  0  0  0  0  0  0
    4.3946    1.6498   -1.1961 O   0  0  0  0  0  0  0  0  0  0  0  0
    3.0094    2.3366   -2.9098 C   0  0  1  0  0  0  0  0  0  0  0  0
    2.8968    2.3844   -4.3340 O   0  0  0  0  0  0  0  0  0  0  0  0
    2.3100    1.1838   -2.2142 C   0  0  1  0  0  0  0  0  0  0  0  0
    2.5290   -0.0632   -2.8821 O   0  0  0  0  0  0  0  0  0  0  0  0
    3.0720    1.2116   -0.8841 C   0  0  2  0  0  0  0  0  0  0  0  0
    1.6499    2.7623   -4.8435 C   0  0  2  0  0  0  0  0  0  0  0  0
    1.5066    2.2315   -6.2763 C   0  0  2  0  0  0  0  0  0  0  0  0
    2.6681    2.6620   -7.0985 N   0  3  0  0  0  0  0  0  0  0  0  0
    0.1784    2.6806   -6.8940 C   0  0  1  0  0  0  0  0  0  0  0  0
   -0.8963    1.9914   -6.2689 O   0  0  0  0  0  0  0  0  0  0  0  0
   -0.0207    4.1914   -6.7390 C   0  0  2  0  0  0  0  0  0  0  0  0
    0.9124    4.8980   -7.5467 O   0  0  0  0  0  0  0  0  0  0  0  0
    0.1551    4.5848   -5.2750 C   0  0  1  0  0  0  0  0  0  0  0  0
    1.4558    4.1704   -4.8140 O   0  0  0  0  0  0  0  0  0  0  0  0
    0.0276    6.0791   -5.0367 C   0  0  0  0  0  0  0  0  0  0  0  0
    1.1349    6.8348   -5.6633 N   0  3  0  0  0  0  0  0  0  0  0  0
    2.3820   -4.0875    2.8544 C   0  0  0  0  0  0  0  0  0  0  0  0
    1.7806   -1.0926    0.7577 C   0  0  2  0  0  0  0  0  0  0  0  0
    0.3280   -1.3119    0.3417 C   0  0  2  0  0  0  0  0  0  0  0  0
   -0.2740   -0.0355   -0.1121 N   0  3  0  0  0  0  0  0  0  0  0  0
   -0.4762   -1.8606    1.5126 C   0  0  1  0  0  0  0  0  0  0  0  0
   -1.8041   -2.1329    1.0921 O   0  0  0  0  0  0  0  0  0  0  0  0
    0.1827   -3.1367    2.0316 C   0  0  2  0  0  0  0  0  0  0  0  0
   -0.5227   -3.6175    3.1686 O   0  0  0  0  0  0  0  0  0  0  0  0
    2.0208   -5.2623    2.0284 N   0  3  0  0  0  0  0  0  0  0  0  0
    1.6327   -2.8429    2.4115 C   0  0  2  0  0  0  0  0  0  0  0  0
    2.3402   -2.2944    1.2809 O   0  0  0  0  0  0  0  0  0  0  0  0
    4.8680    2.6759    2.9428 C   0  0  2  0  0  0  0  0  0  0  0  0
    6.1772    3.3600    3.0490 N   0  3  0  0  0  0  0  0  0  0  0  0
    5.0232    1.1979    3.2828 C   0  0  0  0  0  0  0  0  0  0  0  0
    3.6847    0.4810    3.1755 C   0  0  2  0  0  0  0  0  0  0  0  0
    3.9004   -0.9190    3.5124 N   0  3  0  0  0  0  0  0  0  0  0  0
    3.1347    0.6215    1.7580 C   0  0  1  0  0  0  0  0  0  0  0  0
    1.8550   -0.0353    1.6724 O   0  0  0  0  0  0  0  0  0  0  0  0
    2.9755    2.1007    1.3799 C   0  0  2  0  0  0  0  0  0  0  0  0
    2.5558    2.1992    0.0056 O   0  0  0  0  0  0  0  0  0  0  0  0
    4.2882    2.8630    1.5417 C   0  0  1  0  0  0  0  0  0  0  0  0
    4.0661    4.2463    1.3020 O   0  0  0  0  0  0  0  0  0  0  0  0
  1  2  1  0  0  0  0
  3  2  1  1  0  0  0
  3  5  1  0  0  0  0
  3  4  1  0  0  0  0
  4  9  1  0  0  0  0
  5  7  1  0  0  0  0
  5  6  1  6  0  0  0
  7  9  1  0  0  0  0
  7  8  1  6  0  0  0
  9 40  1  1  0  0  0
 10  6  1  6  0  0  0
 10 11  1  0  0  0  0
 10 18  1  0  0  0  0
 11 13  1  0  0  0  0
 11 12  1  6  0  0  0
 13 15  1  0  0  0  0
 13 14  1  1  0  0  0
 15 17  1  0  0  0  0
 15 16  1  6  0  0  0
 17 19  1  6  0  0  0
 17 18  1  0  0  0  0
 19 20  1  0  0  0  0
 21 29  1  0  0  0  0
 22 23  1  0  0  0  0
 22 31  1  0  0  0  0
 22 38  1  1  0  0  0
 23 25  1  0  0  0  0
 23 24  1  1  0  0  0
 25 27  1  0  0  0  0
 25 26  1  6  0  0  0
 27 30  1  0  0  0  0
 27 28  1  1  0  0  0
 30 21  1  6  0  0  0
 30 31  1  0  0  0  0
 32 34  1  0  0  0  0
 32 41  1  0  0  0  0
 32 33  1  6  0  0  0
 34 35  1  0  0  0  0
 35 37  1  0  0  0  0
 35 36  1  6  0  0  0
 37 39  1  0  0  0  0
 37 38  1  1  0  0  0
 39 41  1  0  0  0  0
 39 40  1  6  0  0  0
 41 42  1  1  0  0  0
M  CHG  6  12   1  20   1  24   1  29   1  33   1  36   1
M  END
>  <CHROM.1>
-55.56074617,63.48608995,-177.32274478,-157.12592112,50.87326319,-79.68593873
170.79517161,-173.62608296,73.28913844,-66.81792718,-70.64889269,39.43640175
34.50470674,-156.86236669,78.42462617,58.99183803,58.65302555,-56.98924017
-72.69347770,-119.01365068,-34.45364165,-50.78138493,2.23600672,1.20599214
-1.16051541,-1.66475645,0.70684156,2.23144371

>  <Name>
1NEM.B

>  <RI>
0

>  <Rbt.Current_Directory>
/home/itssahil/PROJECTS/Mol_Feturizer/New_Systems/rnas/1nem

>  <Rbt.Executable>
rbdock ($Id: //depot/dev/client3/rdock/2013.1/src/exe/rbdock.cxx#4 $)

>  <Rbt.Library>
libRbt.so (2013.1, Build901 2013/11/27)

>  <Rbt.Parameter_File>
/export/apps/rDock/src/rDock_2013.1_src/data/scripts/dock_solv.prm

>  <Rbt.Receptor>
prm/pocket_docking_8.prm

>  <SCORE>
-33.804

>  <SCORE.INTER>
-39.8812

>  <SCORE.INTER.CONST>
1

>  <SCORE.INTER.POLAR>
-5.73046

>  <SCORE.INTER.ROT>
9

>  <SCORE.INTER.SOLV>
27.365

>  <SCORE.INTER.VDW>
-26.2076

>  <SCORE.INTER.norm>
-0.949553

>  <SCORE.INTRA>
6.07723

>  <SCORE.INTRA.DIHEDRAL>
1.38278

>  <SCORE.INTRA.DIHEDRAL.0>
22.4324

>  <SCORE.INTRA.POLAR>
0.392606

>  <SCORE.INTRA.POLAR.0>
-1.83749

>  <SCORE.INTRA.REPUL>
0

>  <SCORE.INTRA.REPUL.0>
0

>  <SCORE.INTRA.SOLV>
1.11601

>  <SCORE.INTRA.SOLV.lig_0>
-160.638

>  <SCORE.INTRA.VDW>
3.49298

>  <SCORE.INTRA.VDW.0>
-7.61953

>  <SCORE.INTRA.norm>
0.144696

>  <SCORE.RESTR>
0

>  <SCORE.RESTR.CAVITY>
0

>  <SCORE.RESTR.norm>
0

>  <SCORE.SYSTEM>
0

>  <SCORE.SYSTEM.CONST>
0

>  <SCORE.SYSTEM.DIHEDRAL>
0

>  <SCORE.SYSTEM.SOLV>
0

>  <SCORE.SYSTEM.norm>
0

>  <SCORE.heavy>
42

>  <SCORE.norm>
-0.804857

>  <RMSD>
8.087

$$$$
1NEM.B
 OpenBabel11021811403D
libRbt.so/2013.1/901 2013/11/27
 42 45  0  0  0  0  0  0  0  0999 V2000
   -4.5227    1.2647   -0.4152 O   0  0  0  0  0  0  0  0  0  0  0  0
   -3.5154    2.2560   -0.2032 C   0  0  0  0  0  0  0  0  0  0  0  0
   -2.1824    1.9049   -0.8624 C   0  0  1  0  0  0  0  0  0  0  0  0
   -1.2491    2.9704   -0.7097 O   0  0  0  0  0  0  0  0  0  0  0  0
   -1.4599    0.7202   -0.2411 C   0  0  1  0  0  0  0  0  0  0  0  0
   -2.1798   -0.4580   -0.6112 O   0  0  0  0  0  0  0  0  0  0  0  0
   -0.0980    0.9102   -0.8821 C   0  0  1  0  0  0  0  0  0  0  0  0
   -0.1167    0.6266   -2.2851 O   0  0  0  0  0  0  0  0  0  0  0  0
    0.0657    2.4169   -0.6499 C   0  0  2  0  0  0  0  0  0  0  0  0
   -2.9165   -1.0772    0.4042 C   0  0  2  0  0  0  0  0  0  0  0  0
   -1.9677   -1.4908    1.5375 C   0  0  2  0  0  0  0  0  0  0  0  0
   -0.8511   -2.3089    0.9952 N   0  3  0  0  0  0  0  0  0  0  0  0
   -2.7280   -2.2320    2.6420 C   0  0  1  0  0  0  0  0  0  0  0  0
   -3.5630   -1.3193    3.3423 O   0  0  0  0  0  0  0  0  0  0  0  0
   -3.5791   -3.3659    2.0621 C   0  0  2  0  0  0  0  0  0  0  0  0
   -2.7450   -4.4015    1.5582 O   0  0  0  0  0  0  0  0  0  0  0  0
   -4.4665   -2.8224    0.9458 C   0  0  1  0  0  0  0  0  0  0  0  0
   -3.6489   -2.2016   -0.0652 O   0  0  0  0  0  0  0  0  0  0  0  0
   -5.3087   -3.8932    0.2750 C   0  0  0  0  0  0  0  0  0  0  0  0
   -6.4166   -3.3106   -0.5143 N   0  3  0  0  0  0  0  0  0  0  0  0
    4.3103    0.1095   -0.8572 C   0  0  0  0  0  0  0  0  0  0  0  0
    2.5767    1.2714    2.2042 C   0  0  2  0  0  0  0  0  0  0  0  0
    3.3340    0.4995    3.2819 C   0  0  2  0  0  0  0  0  0  0  0  0
    3.1358    1.1375    4.6052 N   0  3  0  0  0  0  0  0  0  0  0  0
    4.8212    0.4657    2.9561 C   0  0  1  0  0  0  0  0  0  0  0  0
    5.5026   -0.3194    3.9225 O   0  0  0  0  0  0  0  0  0  0  0  0
    5.0256   -0.1231    1.5620 C   0  0  2  0  0  0  0  0  0  0  0  0
    6.4060   -0.0942    1.2223 O   0  0  0  0  0  0  0  0  0  0  0  0
    5.6286    0.3736   -1.4779 N   0  3  0  0  0  0  0  0  0  0  0  0
    4.2277    0.6895    0.5441 C   0  0  2  0  0  0  0  0  0  0  0  0
    2.8346    0.7194    0.9158 O   0  0  0  0  0  0  0  0  0  0  0  0
    2.3147    5.8280   -0.4575 C   0  0  2  0  0  0  0  0  0  0  0  0
    2.2429    6.5854   -1.7282 N   0  3  0  0  0  0  0  0  0  0  0  0
    3.7304    5.3050   -0.2419 C   0  0  0  0  0  0  0  0  0  0  0  0
    3.8187    4.5219    1.0605 C   0  0  2  0  0  0  0  0  0  0  0  0
    5.1895    4.0535    1.2071 N   0  3  0  0  0  0  0  0  0  0  0  0
    2.8429    3.3480    1.0255 C   0  0  1  0  0  0  0  0  0  0  0  0
    2.9122    2.6289    2.2722 O   0  0  0  0  0  0  0  0  0  0  0  0
    1.4067    3.8404    0.7994 C   0  0  2  0  0  0  0  0  0  0  0  0
    0.5288    2.7061    0.6673 O   0  0  0  0  0  0  0  0  0  0  0  0
    1.2991    4.6867   -0.4666 C   0  0  1  0  0  0  0  0  0  0  0  0
   -0.0137    5.2219   -0.5692 O   0  0  0  0  0  0  0  0  0  0  0  0
  1  2  1  0  0  0  0
  3  2  1  1  0  0  0
  3  5  1  0  0  0  0
  3  4  1  0  0  0  0
  4  9  1  0  0  0  0
  5  7  1  0  0  0  0
  5  6  1  6  0  0  0
  7  9  1  0  0  0  0
  7  8  1  6  0  0  0
  9 40  1  1  0  0  0
 10  6  1  6  0  0  0
 10 11  1  0  0  0  0
 10 18  1  0  0  0  0
 11 13  1  0  0  0  0
 11 12  1  6  0  0  0
 13 15  1  0  0  0  0
 13 14  1  6  0  0  0
 15 17  1  0  0  0  0
 15 16  1  6  0  0  0
 17 19  1  6  0  0  0
 17 18  1  0  0  0  0
 19 20  1  0  0  0  0
 21 29  1  0  0  0  0
 22 23  1  0  0  0  0
 22 31  1  0  0  0  0
 22 38  1  6  0  0  0
 23 25  1  0  0  0  0
 23 24  1  1  0  0  0
 25 27  1  0  0  0  0
 25 26  1  1  0  0  0
 27 30  1  0  0  0  0
 27 28  1  6  0  0  0
 30 21  1  6  0  0  0
 30 31  1  0  0  0  0
 32 34  1  0  0  0  0
 32 41  1  0  0  0  0
 32 33  1  6  0  0  0
 34 35  1  0  0  0  0
 35 37  1  0  0  0  0
 35 36  1  6  0  0  0
 37 39  1  0  0  0  0
 37 38  1  1  0  0  0
 39 41  1  0  0  0  0
 39 40  1  6  0  0  0
 41 42  1  1  0  0  0
M  CHG  6  12   1  20   1  24   1  29   1  33   1  36   1
M  END
>  <CHROM.1>
-178.51856418,175.44768121,-107.66854740,-59.78557148,-25.99405508,-99.64427006
154.88553215,175.48991123,176.13352259,163.75710598,112.12230627,-74.36594276
-60.86539775,150.80823519,-170.87041226,63.75354821,61.15573590,76.21001272
55.97660987,-152.71090921,-105.65775149,-64.82545114,0.48972495,0.87176341
0.67834125,2.65696742,0.27057789,2.72101818

>  <Name>
1NEM.B

>  <RI>
0

>  <Rbt.Current_Directory>
/home/itssahil/PROJECTS/Mol_Feturizer/New_Systems/rnas/1nem

>  <Rbt.Executable>
rbdock ($Id: //depot/dev/client3/rdock/2013.1/src/exe/rbdock.cxx#4 $)

>  <Rbt.Library>
libRbt.so (2013.1, Build901 2013/11/27)

>  <Rbt.Parameter_File>
/export/apps/rDock/src/rDock_2013.1_src/data/scripts/dock_solv.prm

>  <Rbt.Receptor>
prm/pocket_docking_8.prm

>  <SCORE>
-38.292

>  <SCORE.INTER>
-50.5446

>  <SCORE.INTER.CONST>
1

>  <SCORE.INTER.POLAR>
-6.74056

>  <SCORE.INTER.ROT>
9

>  <SCORE.INTER.SOLV>
31.2202

>  <SCORE.INTER.VDW>
-31.2346

>  <SCORE.INTER.norm>
-1.20344

>  <SCORE.INTRA>
12.2526

>  <SCORE.INTRA.DIHEDRAL>
13.9338

>  <SCORE.INTRA.DIHEDRAL.0>
22.4324

>  <SCORE.INTRA.POLAR>
0.187005

>  <SCORE.INTRA.POLAR.0>
-1.83749

>  <SCORE.INTRA.REPUL>
0

>  <SCORE.INTRA.REPUL.0>
0

>  <SCORE.INTRA.SOLV>
-4.8357

>  <SCORE.INTRA.SOLV.lig_0>
-160.638

>  <SCORE.INTRA.VDW>
7.0677

>  <SCORE.INTRA.VDW.0>
-7.61953

>  <SCORE.INTRA.norm>
0.291728

>  <SCORE.RESTR>
0

>  <SCORE.RESTR.CAVITY>
0

>  <SCORE.RESTR.norm>
0

>  <SCORE.SYSTEM>
0

>  <SCORE.SYSTEM.CONST>
0

>  <SCORE.SYSTEM.DIHEDRAL>
0

>  <SCORE.SYSTEM.SOLV>
0

>  <SCORE.SYSTEM.norm>
0

>  <SCORE.heavy>
42

>  <SCORE.norm>
-0.911714

>  <RMSD>
8.092

$$$$
1NEM.B
 OpenBabel11021811403D
libRbt.so/2013.1/901 2013/11/27
 42 45  0  0  0  0  0  0  0  0999 V2000
   -3.0922    0.7451    0.7146 O   0  0  0  0  0  0  0  0  0  0  0  0
   -2.9197   -0.5781    0.2033 C   0  0  0  0  0  0  0  0  0  0  0  0
   -1.4521   -0.9852    0.0798 C   0  0  1  0  0  0  0  0  0  0  0  0
   -0.6767    0.0827   -0.4569 O   0  0  0  0  0  0  0  0  0  0  0  0
   -0.7629   -1.2829    1.4019 C   0  0  1  0  0  0  0  0  0  0  0  0
   -1.2748   -2.5304    1.8762 O   0  0  0  0  0  0  0  0  0  0  0  0
    0.6772   -1.2803    0.9245 C   0  0  1  0  0  0  0  0  0  0  0  0
    0.9750   -2.4113    0.0991 O   0  0  0  0  0  0  0  0  0  0  0  0
    0.6444   -0.0025    0.0778 C   0  0  2  0  0  0  0  0  0  0  0  0
   -2.2668   -2.4578    2.8601 C   0  0  2  0  0  0  0  0  0  0  0  0
   -2.4544   -3.8434    3.4927 C   0  0  2  0  0  0  0  0  0  0  0  0
   -2.7041   -4.8579    2.4350 N   0  3  0  0  0  0  0  0  0  0  0  0
   -3.5800   -3.8206    4.5320 C   0  0  1  0  0  0  0  0  0  0  0  0
   -3.1611   -3.0846    5.6737 O   0  0  0  0  0  0  0  0  0  0  0  0
   -4.8527   -3.1932    3.9549 C   0  0  2  0  0  0  0  0  0  0  0  0
   -5.4131   -4.0400    2.9594 O   0  0  0  0  0  0  0  0  0  0  0  0
   -4.5256   -1.8290    3.3542 C   0  0  1  0  0  0  0  0  0  0  0  0
   -3.5024   -1.9735    2.3502 O   0  0  0  0  0  0  0  0  0  0  0  0
   -5.7240   -1.1559    2.7085 C   0  0  0  0  0  0  0  0  0  0  0  0
   -6.1469   -1.8492    1.4715 N   0  3  0  0  0  0  0  0  0  0  0  0
    6.8667    0.0472    1.3297 C   0  0  0  0  0  0  0  0  0  0  0  0
    3.4587    1.1103    2.3208 C   0  0  2  0  0  0  0  0  0  0  0  0
    3.6467    1.3421    3.8181 C   0  0  2  0  0  0  0  0  0  0  0  0
    2.5616    2.2042    4.3441 N   0  3  0  0  0  0  0  0  0  0  0  0
    4.9913    2.0067    4.0814 C   0  0  1  0  0  0  0  0  0  0  0  0
    5.1877    2.1459    5.4802 O   0  0  0  0  0  0  0  0  0  0  0  0
    6.1077    1.1588    3.4760 C   0  0  2  0  0  0  0  0  0  0  0  0
    7.3601    1.8070    3.6571 O   0  0  0  0  0  0  0  0  0  0  0  0
    6.7705    0.0954   -0.1472 N   0  3  0  0  0  0  0  0  0  0  0  0
    5.8428    0.9576    1.9851 C   0  0  2  0  0  0  0  0  0  0  0  0
    4.5459    0.3584    1.7883 O   0  0  0  0  0  0  0  0  0  0  0  0
    1.5372    3.4486   -2.0330 C   0  0  2  0  0  0  0  0  0  0  0  0
    1.1074    3.3895   -3.4490 N   0  3  0  0  0  0  0  0  0  0  0  0
    3.0562    3.3536   -1.9451 C   0  0  0  0  0  0  0  0  0  0  0  0
    3.5126    3.4108   -0.4939 C   0  0  2  0  0  0  0  0  0  0  0  0
    4.9656    3.3173   -0.4794 N   0  3  0  0  0  0  0  0  0  0  0  0
    2.8851    2.2615    0.2914 C   0  0  1  0  0  0  0  0  0  0  0  0
    3.2993    2.3393    1.6693 O   0  0  0  0  0  0  0  0  0  0  0  0
    1.3532    2.3222    0.2148 C   0  0  2  0  0  0  0  0  0  0  0  0
    0.7965    1.1696    0.8754 O   0  0  0  0  0  0  0  0  0  0  0  0
    0.8663    2.3338   -1.2321 C   0  0  1  0  0  0  0  0  0  0  0  0
   -0.5433    2.5155   -1.2568 O   0  0  0  0  0  0  0  0  0  0  0  0
  1  2  1  0  0  0  0
  3  2  1  1  0  0  0
  3  5  1  0  0  0  0
  3  4  1  0  0  0  0
  4  9  1  0  0  0  0
  5  7  1  0  0  0  0
  5  6  1  6  0  0  0
  7  9  1  0  0  0  0
  7  8  1  6  0  0  0
  9 40  1  1  0  0  0
 10  6  1  6  0  0  0
 10 11  1  0  0  0  0
 10 18  1  0  0  0  0
 11 13  1  0  0  0  0
 11 12  1  6  0  0  0
 13 15  1  0  0  0  0
 13 14  1  1  0  0  0
 15 17  1  0  0  0  0
 15 16  1  6  0  0  0
 17 19  1  6  0  0  0
 17 18  1  0  0  0  0
 19 20  1  0  0  0  0
 21 29  1  0  0  0  0
 22 23  1  0  0  0  0
 22 31  1  0  0  0  0
 22 38  1  6  0  0  0
 23 25  1  0  0  0  0
 23 24  1  6  0  0  0
 25 27  1  0  0  0  0
 25 26  1  1  0  0  0
 27 30  1  0  0  0  0
 27 28  1  6  0  0  0
 30 21  1  1  0  0  0
 30 31  1  0  0  0  0
 32 34  1  0  0  0  0
 32 41  1  0  0  0  0
 32 33  1  6  0  0  0
 34 35  1  0  0  0  0
 35 37  1  0  0  0  0
 35 36  1  6  0  0  0
 37 39  1  0  0  0  0
 37 38  1  1  0  0  0
 39 41  1  0  0  0  0
 39 40  1  1  0  0  0
 41 42  1  1  0  0  0
M  CHG  6  12   1  20   1  24   1  29   1  33   1  36   1
M  END
>  <CHROM.1>
-58.60843189,-42.75852046,-99.99134549,-166.29781340,50.75562089,-91.55071538
-67.52950820,-176.50755715,61.50967139,-69.51719623,-52.64586299,-167.78315024
-54.89594044,-169.77756664,-61.47027258,-86.64333302,-58.59054412,-58.85121762
60.26363316,-146.52278167,-86.97767227,172.87820865,0.65048953,0.05662534
1.54183740,2.76496241,0.34335410,2.14672239

>  <Name>
1NEM.B

>  <RI>
0

>  <Rbt.Current_Directory>
/home/itssahil/PROJECTS/Mol_Feturizer/New_Systems/rnas/1nem

>  <Rbt.Executable>
rbdock ($Id: //depot/dev/client3/rdock/2013.1/src/exe/rbdock.cxx#4 $)

>  <Rbt.Library>
libRbt.so (2013.1, Build901 2013/11/27)

>  <Rbt.Parameter_File>
/export/apps/rDock/src/rDock_2013.1_src/data/scripts/dock_solv.prm

>  <Rbt.Receptor>
prm/pocket_docking_4.prm

>  <SCORE>
-26.5898

>  <SCORE.INTER>
-31.644

>  <SCORE.INTER.CONST>
1

>  <SCORE.INTER.POLAR>
-5.22986

>  <SCORE.INTER.ROT>
9

>  <SCORE.INTER.SOLV>
22.7223

>  <SCORE.INTER.VDW>
-20.8372

>  <SCORE.INTER.norm>
-0.753428

>  <SCORE.INTRA>
4.83689

>  <SCORE.INTRA.DIHEDRAL>
1.78921

>  <SCORE.INTRA.DIHEDRAL.0>
22.4324

>  <SCORE.INTRA.POLAR>
0.114101

>  <SCORE.INTRA.POLAR.0>
-1.83749

>  <SCORE.INTRA.REPUL>
0

>  <SCORE.INTRA.REPUL.0>
0

>  <SCORE.INTRA.SOLV>
-0.299912

>  <SCORE.INTRA.SOLV.lig_0>
-160.638

>  <SCORE.INTRA.VDW>
3.7043

>  <SCORE.INTRA.VDW.0>
-7.61953

>  <SCORE.INTRA.norm>
0.115164

>  <SCORE.RESTR>
0.217338

>  <SCORE.RESTR.CAVITY>
0.217338

>  <SCORE.RESTR.norm>
0.00517471

>  <SCORE.SYSTEM>
0

>  <SCORE.SYSTEM.CONST>
0

>  <SCORE.SYSTEM.DIHEDRAL>
0

>  <SCORE.SYSTEM.SOLV>
0

>  <SCORE.SYSTEM.norm>
0

>  <SCORE.heavy>
42

>  <SCORE.norm>
-0.63309

>  <RMSD>
8.104

$$$$
1NEM.B
 OpenBabel11021811403D
libRbt.so/2013.1/901 2013/11/27
 42 45  0  0  0  0  0  0  0  0999 V2000
   -4.5456    1.5303   -1.9299 O   0  0  0  0  0  0  0  0  0  0  0  0
   -4.3233    1.2901   -0.5388 C   0  0  0  0  0  0  0  0  0  0  0  0
   -3.5705   -0.0119   -0.2694 C   0  0  1  0  0  0  0  0  0  0  0  0
   -2.2355    0.0675   -0.7603 O   0  0  0  0  0  0  0  0  0  0  0  0
   -3.3790   -0.3411    1.2025 C   0  0  1  0  0  0  0  0  0  0  0  0
   -4.6517   -0.7384    1.7179 O   0  0  0  0  0  0  0  0  0  0  0  0
   -2.3333   -1.4321    1.0675 C   0  0  1  0  0  0  0  0  0  0  0  0
   -2.8720   -2.6292    0.4967 O   0  0  0  0  0  0  0  0  0  0  0  0
   -1.3993   -0.7430    0.0658 C   0  0  2  0  0  0  0  0  0  0  0  0
   -4.8262   -2.1075    1.9467 C   0  0  2  0  0  0  0  0  0  0  0  0
   -6.3267   -2.4200    2.0271 C   0  0  2  0  0  0  0  0  0  0  0  0
   -6.9790   -1.5364    3.0291 N   0  3  0  0  0  0  0  0  0  0  0  0
   -6.5592   -3.9012    2.3422 C   0  0  1  0  0  0  0  0  0  0  0  0
   -6.2046   -4.6908    1.2146 O   0  0  0  0  0  0  0  0  0  0  0  0
   -5.7385   -4.3434    3.5576 C   0  0  2  0  0  0  0  0  0  0  0  0
   -6.2355   -3.7283    4.7394 O   0  0  0  0  0  0  0  0  0  0  0  0
   -4.2736   -3.9682    3.3518 C   0  0  1  0  0  0  0  0  0  0  0  0
   -4.1633   -2.5498    3.1240 O   0  0  0  0  0  0  0  0  0  0  0  0
   -3.3923   -4.3225    4.5366 C   0  0  0  0  0  0  0  0  0  0  0  0
   -1.9831   -3.9295    4.3139 N   0  3  0  0  0  0  0  0  0  0  0  0
    2.8362    3.1911    1.3773 C   0  0  0  0  0  0  0  0  0  0  0  0
    3.3479   -0.4781    1.4288 C   0  0  2  0  0  0  0  0  0  0  0  0
    3.6093   -0.7177    2.9139 C   0  0  2  0  0  0  0  0  0  0  0  0
    3.3858   -2.1440    3.2506 N   0  3  0  0  0  0  0  0  0  0  0  0
    2.6841    0.1503    3.7563 C   0  0  1  0  0  0  0  0  0  0  0  0
    2.9896   -0.0235    5.1314 O   0  0  0  0  0  0  0  0  0  0  0  0
    2.8572    1.6151    3.3607 C   0  0  2  0  0  0  0  0  0  0  0  0
    1.9473    2.4250    4.0939 O   0  0  0  0  0  0  0  0  0  0  0  0
    4.2042    3.6539    1.7052 N   0  3  0  0  0  0  0  0  0  0  0  0
    2.5960    1.7726    1.8640 C   0  0  2  0  0  0  0  0  0  0  0  0
    3.4716    0.9063    1.1139 O   0  0  0  0  0  0  0  0  0  0  0  0
    1.3316    1.4196   -2.3344 C   0  0  2  0  0  0  0  0  0  0  0  0
    0.8395    1.8381   -3.6670 N   0  3  0  0  0  0  0  0  0  0  0  0
    2.2630    0.2209   -2.4757 C   0  0  0  0  0  0  0  0  0  0  0  0
    2.7753   -0.2220   -1.1123 C   0  0  2  0  0  0  0  0  0  0  0  0
    3.6560   -1.3634   -1.3162 N   0  3  0  0  0  0  0  0  0  0  0  0
    1.5986   -0.5956   -0.2139 C   0  0  1  0  0  0  0  0  0  0  0  0
    2.0901   -0.9865    1.0830 O   0  0  0  0  0  0  0  0  0  0  0  0
    0.6345    0.5887   -0.0587 C   0  0  2  0  0  0  0  0  0  0  0  0
   -0.5131    0.1725    0.7058 O   0  0  0  0  0  0  0  0  0  0  0  0
    0.1543    1.0995   -1.4148 C   0  0  1  0  0  0  0  0  0  0  0  0
   -0.6332    2.2683   -1.2297 O   0  0  0  0  0  0  0  0  0  0  0  0
  1  2  1  0  0  0  0
  3  2  1  1  0  0  0
  3  5  1  0  0  0  0
  3  4  1  0  0  0  0
  4  9  1  0  0  0  0
  5  7  1  0  0  0  0
  5  6  1  6  0  0  0
  7  9  1  0  0  0  0
  7  8  1  6  0  0  0
  9 40  1  1  0  0  0
 10  6  1  1  0  0  0
 10 11  1  0  0  0  0
 10 18  1  0  0  0  0
 11 13  1  0  0  0  0
 11 12  1  1  0  0  0
 13 15  1  0  0  0  0
 13 14  1  6  0  0  0
 15 17  1  0  0  0  0
 15 16  1  1  0  0  0
 17 19  1  1  0  0  0
 17 18  1  0  0  0  0
 19 20  1  0  0  0  0
 21 29  1  0  0  0  0
 22 23  1  0  0  0  0
 22 31  1  0  0  0  0
 22 38  1  1  0  0  0
 23 25  1  0  0  0  0
 23 24  1  1  0  0  0
 25 27  1  0  0  0  0
 25 26  1  1  0  0  0
 27 30  1  0  0  0  0
 27 28  1  1  0  0  0
 30 21  1  6  0  0  0
 30 31  1  0  0  0  0
 32 34  1  0  0  0  0
 32 41  1  0  0  0  0
 32 33  1  6  0  0  0
 34 35  1  0  0  0  0
 35 37  1  0  0  0  0
 35 36  1  6  0  0  0
 37 39  1  0  0  0  0
 37 38  1  1  0  0  0
 39 41  1  0  0  0  0
 39 40  1  1  0  0  0
 41 42  1  1  0  0  0
M  CHG  6  12   1  20   1  24   1  29   1  33   1  36   1
M  END
>  <CHROM.1>
-65.31590979,66.91802307,105.10458035,-160.89344026,-118.12717317,-82.09290871
73.87176521,166.70991872,178.35431000,-179.20951937,-51.96672189,55.76348953
-81.46148322,168.02076450,59.99244151,63.87850516,175.98246709,-51.34635345
-74.31601787,23.72994307,-69.45417450,65.11660109,-0.90102716,-0.60841696
1.28219403,2.75769518,0.30289887,2.09676469

>  <Name>
1NEM.B

>  <RI>
0

>  <Rbt.Current_Directory>
/home/itssahil/PROJECTS/Mol_Feturizer/New_Systems/rnas/1nem

>  <Rbt.Executable>
rbdock ($Id: //depot/dev/client3/rdock/2013.1/src/exe/rbdock.cxx#4 $)

>  <Rbt.Library>
libRbt.so (2013.1, Build901 2013/11/27)

>  <Rbt.Parameter_File>
/export/apps/rDock/src/rDock_2013.1_src/data/scripts/dock_solv.prm

>  <Rbt.Receptor>
prm/pocket_docking_4.prm

>  <SCORE>
-27.7173

>  <SCORE.INTER>
-45.9402

>  <SCORE.INTER.CONST>
1

>  <SCORE.INTER.POLAR>
-7.40154

>  <SCORE.INTER.ROT>
9

>  <SCORE.INTER.SOLV>
46.089

>  <SCORE.INTER.VDW>
-30.918

>  <SCORE.INTER.norm>
-1.09381

>  <SCORE.INTRA>
18.2229

>  <SCORE.INTRA.DIHEDRAL>
3.98733

>  <SCORE.INTRA.DIHEDRAL.0>
22.4324

>  <SCORE.INTRA.POLAR>
1.75465

>  <SCORE.INTRA.POLAR.0>
-1.83749

>  <SCORE.INTRA.REPUL>
0

>  <SCORE.INTRA.REPUL.0>
0

>  <SCORE.INTRA.SOLV>
-4.71106

>  <SCORE.INTRA.SOLV.lig_0>
-160.638

>  <SCORE.INTRA.VDW>
12.619

>  <SCORE.INTRA.VDW.0>
-7.61953

>  <SCORE.INTRA.norm>
0.433879

>  <SCORE.RESTR>
0

>  <SCORE.RESTR.CAVITY>
0

>  <SCORE.RESTR.norm>
0

>  <SCORE.SYSTEM>
0

>  <SCORE.SYSTEM.CONST>
0

>  <SCORE.SYSTEM.DIHEDRAL>
0

>  <SCORE.SYSTEM.SOLV>
0

>  <SCORE.SYSTEM.norm>
0

>  <SCORE.heavy>
42

>  <SCORE.norm>
-0.659936

>  <RMSD>
8.106

$$$$
1NEM.B
 OpenBabel11021811403D
libRbt.so/2013.1/901 2013/11/27
 42 45  0  0  0  0  0  0  0  0999 V2000
   -3.2143   -3.7351   -0.3214 O   0  0  0  0  0  0  0  0  0  0  0  0
   -1.8555   -3.3018   -0.4119 C   0  0  0  0  0  0  0  0  0  0  0  0
   -1.0610   -3.5525    0.8691 C   0  0  1  0  0  0  0  0  0  0  0  0
    0.2820   -3.0996    0.7254 O   0  0  0  0  0  0  0  0  0  0  0  0
   -1.5572   -2.7847    2.0839 C   0  0  1  0  0  0  0  0  0  0  0  0
   -2.7874   -3.3865    2.4933 O   0  0  0  0  0  0  0  0  0  0  0  0
   -0.3650   -2.9924    2.9989 C   0  0  1  0  0  0  0  0  0  0  0  0
   -0.2575   -4.3476    3.4473 O   0  0  0  0  0  0  0  0  0  0  0  0
    0.7568   -2.6749    2.0032 C   0  0  2  0  0  0  0  0  0  0  0  0
   -3.7255   -2.5344    3.0861 C   0  0  2  0  0  0  0  0  0  0  0  0
   -5.0282   -3.3080    3.3309 C   0  0  2  0  0  0  0  0  0  0  0  0
   -5.4846   -3.9508    2.0704 N   0  3  0  0  0  0  0  0  0  0  0  0
   -6.1045   -2.3909    3.9205 C   0  0  1  0  0  0  0  0  0  0  0  0
   -5.7644   -2.0542    5.2590 O   0  0  0  0  0  0  0  0  0  0  0  0
   -6.2557   -1.1117    3.0915 C   0  0  2  0  0  0  0  0  0  0  0  0
   -6.8149   -1.4112    1.8188 O   0  0  0  0  0  0  0  0  0  0  0  0
   -4.8924   -0.4483    2.9182 C   0  0  1  0  0  0  0  0  0  0  0  0
   -3.9765   -1.3749    2.3029 O   0  0  0  0  0  0  0  0  0  0  0  0
   -4.9400    0.8034    2.0597 C   0  0  0  0  0  0  0  0  0  0  0  0
   -5.2078    0.4888    0.6388 N   0  3  0  0  0  0  0  0  0  0  0  0
   -0.2110    4.7491   -0.3897 C   0  0  0  0  0  0  0  0  0  0  0  0
    0.4560    1.2308    0.5609 C   0  0  2  0  0  0  0  0  0  0  0  0
   -0.0077    0.4943   -0.6935 C   0  0  2  0  0  0  0  0  0  0  0  0
    0.5804   -0.8658   -0.7369 N   0  3  0  0  0  0  0  0  0  0  0  0
    0.4102    1.2645   -1.9389 C   0  0  1  0  0  0  0  0  0  0  0  0
   -0.0932    0.6111   -3.0940 O   0  0  0  0  0  0  0  0  0  0  0  0
   -0.1314    2.6903   -1.8638 C   0  0  2  0  0  0  0  0  0  0  0  0
    0.3125    3.4364   -2.9897 O   0  0  0  0  0  0  0  0  0  0  0  0
   -1.0883    4.8199    0.8012 N   0  3  0  0  0  0  0  0  0  0  0  0
    0.3603    3.3547   -0.5793 C   0  0  2  0  0  0  0  0  0  0  0  0
   -0.0307    2.5703    0.5659 O   0  0  0  0  0  0  0  0  0  0  0  0
    4.3739   -0.8205    3.4238 C   0  0  2  0  0  0  0  0  0  0  0  0
    4.9297   -1.3079    4.7071 N   0  3  0  0  0  0  0  0  0  0  0  0
    4.3741    0.7038    3.4013 C   0  0  0  0  0  0  0  0  0  0  0  0
    3.8030    1.2194    2.0878 C   0  0  2  0  0  0  0  0  0  0  0  0
    3.8325    2.6745    2.1293 N   0  3  0  0  0  0  0  0  0  0  0  0
    2.3753    0.7085    1.9086 C   0  0  1  0  0  0  0  0  0  0  0  0
    1.8521    1.1775    0.6505 O   0  0  0  0  0  0  0  0  0  0  0  0
    2.3384   -0.8258    1.9365 C   0  0  2  0  0  0  0  0  0  0  0  0
    0.9703   -1.2713    1.8703 O   0  0  0  0  0  0  0  0  0  0  0  0
    2.9662   -1.3763    3.2146 C   0  0  1  0  0  0  0  0  0  0  0  0
    3.0232   -2.7948    3.1422 O   0  0  0  0  0  0  0  0  0  0  0  0
  1  2  1  0  0  0  0
  3  2  1  6  0  0  0
  3  5  1  0  0  0  0
  3  4  1  0  0  0  0
  4  9  1  0  0  0  0
  5  7  1  0  0  0  0
  5  6  1  1  0  0  0
  7  9  1  0  0  0  0
  7  8  1  6  0  0  0
  9 40  1  6  0  0  0
 10  6  1  6  0  0  0
 10 11  1  0  0  0  0
 10 18  1  0  0  0  0
 11 13  1  0  0  0  0
 11 12  1  6  0  0  0
 13 15  1  0  0  0  0
 13 14  1  1  0  0  0
 15 17  1  0  0  0  0
 15 16  1  6  0  0  0
 17 19  1  6  0  0  0
 17 18  1  0  0  0  0
 19 20  1  0  0  0  0
 21 29  1  0  0  0  0
 22 23  1  0  0  0  0
 22 31  1  0  0  0  0
 22 38  1  6  0  0  0
 23 25  1  0  0  0  0
 23 24  1  6  0  0  0
 25 27  1  0  0  0  0
 25 26  1  6  0  0  0
 27 30  1  0  0  0  0
 27 28  1  6  0  0  0
 30 21  1  1  0  0  0
 30 31  1  0  0  0  0
 32 34  1  0  0  0  0
 32 41  1  0  0  0  0
 32 33  1  1  0  0  0
 34 35  1  0  0  0  0
 35 37  1  0  0  0  0
 35 36  1  1  0  0  0
 37 39  1  0  0  0  0
 37 38  1  6  0  0  0
 39 41  1  0  0  0  0
 39 40  1  1  0  0  0
 41 42  1  6  0  0  0
M  CHG  6  12   1  20   1  24   1  29   1  33   1  36   1
M  END
>  <CHROM.1>
-175.92849166,-179.83997728,-148.92620283,174.31704303,-46.93046645,-112.70613941
38.16205485,-48.25464820,83.46254987,-69.94884382,56.20381858,115.18868499
-18.12317519,-128.20084917,-103.23305557,52.95173052,72.77285268,30.93622812
-165.85147344,-157.06870120,-174.75610607,80.66364488,-0.81524696,-0.59815710
1.46867043,-2.67112530,-0.11559760,-0.61561196

>  <Name>
1NEM.B

>  <RI>
0

>  <Rbt.Current_Directory>
/home/itssahil/PROJECTS/Mol_Feturizer/New_Systems/rnas/1nem

>  <Rbt.Executable>
rbdock ($Id: //depot/dev/client3/rdock/2013.1/src/exe/rbdock.cxx#4 $)

>  <Rbt.Library>
libRbt.so (2013.1, Build901 2013/11/27)

>  <Rbt.Parameter_File>
/export/apps/rDock/src/rDock_2013.1_src/data/scripts/dock_solv.prm

>  <Rbt.Receptor>
prm/pocket_docking_4.prm

>  <SCORE>
2.38889

>  <SCORE.INTER>
-12.5695

>  <SCORE.INTER.CONST>
1

>  <SCORE.INTER.POLAR>
-6.21616

>  <SCORE.INTER.ROT>
9

>  <SCORE.INTER.SOLV>
43.7948

>  <SCORE.INTER.VDW>
-11.8574

>  <SCORE.INTER.norm>
-0.299273

>  <SCORE.INTRA>
14.8463

>  <SCORE.INTRA.DIHEDRAL>
19.5374

>  <SCORE.INTRA.DIHEDRAL.0>
22.4324

>  <SCORE.INTRA.POLAR>
-0.949778

>  <SCORE.INTRA.POLAR.0>
-1.83749

>  <SCORE.INTRA.REPUL>
0

>  <SCORE.INTRA.REPUL.0>
0

>  <SCORE.INTRA.SOLV>
3.85346

>  <SCORE.INTRA.SOLV.lig_0>
-160.638

>  <SCORE.INTRA.VDW>
6.38016

>  <SCORE.INTRA.VDW.0>
-7.61953

>  <SCORE.INTRA.norm>
0.353484

>  <SCORE.RESTR>
0.112012

>  <SCORE.RESTR.CAVITY>
0.112012

>  <SCORE.RESTR.norm>
0.00266695

>  <SCORE.SYSTEM>
0

>  <SCORE.SYSTEM.CONST>
0

>  <SCORE.SYSTEM.DIHEDRAL>
0

>  <SCORE.SYSTEM.SOLV>
0

>  <SCORE.SYSTEM.norm>
0

>  <SCORE.heavy>
42

>  <SCORE.norm>
0.0568784

>  <RMSD>
8.107

$$$$
1NEM.B
 OpenBabel11021811403D
libRbt.so/2013.1/901 2013/11/27
 42 45  0  0  0  0  0  0  0  0999 V2000
   -3.0532   -2.3897   -0.5192 O   0  0  0  0  0  0  0  0  0  0  0  0
   -2.6066   -3.7182   -0.2402 C   0  0  0  0  0  0  0  0  0  0  0  0
   -1.5079   -3.7696    0.8205 C   0  0  1  0  0  0  0  0  0  0  0  0
   -0.2275   -3.5682    0.2293 O   0  0  0  0  0  0  0  0  0  0  0  0
   -1.5835   -2.6686    1.8661 C   0  0  1  0  0  0  0  0  0  0  0  0
   -2.6933   -2.9659    2.7166 O   0  0  0  0  0  0  0  0  0  0  0  0
   -0.2031   -2.8253    2.4758 C   0  0  1  0  0  0  0  0  0  0  0  0
   -0.0805   -4.0343    3.2324 O   0  0  0  0  0  0  0  0  0  0  0  0
    0.6170   -2.9251    1.1841 C   0  0  2  0  0  0  0  0  0  0  0  0
   -3.9483   -2.5423    2.2663 C   0  0  2  0  0  0  0  0  0  0  0  0
   -4.3917   -1.3192    3.0805 C   0  0  2  0  0  0  0  0  0  0  0  0
   -4.3251   -1.6225    4.5344 N   0  3  0  0  0  0  0  0  0  0  0  0
   -5.7930   -0.8636    2.6610 C   0  0  1  0  0  0  0  0  0  0  0  0
   -5.7392   -0.2872    1.3627 O   0  0  0  0  0  0  0  0  0  0  0  0
   -6.7790   -2.0358    2.6623 C   0  0  2  0  0  0  0  0  0  0  0  0
   -7.0190   -2.4779    3.9923 O   0  0  0  0  0  0  0  0  0  0  0  0
   -6.2154   -3.1815    1.8264 C   0  0  1  0  0  0  0  0  0  0  0  0
   -4.9274   -3.5703    2.3419 O   0  0  0  0  0  0  0  0  0  0  0  0
   -7.1068   -4.4108    1.8166 C   0  0  0  0  0  0  0  0  0  0  0  0
   -6.6857   -5.4066    2.8270 N   0  3  0  0  0  0  0  0  0  0  0  0
   -2.2204    2.2469   -0.3865 C   0  0  0  0  0  0  0  0  0  0  0  0
    0.7816    0.2117   -1.1436 C   0  0  2  0  0  0  0  0  0  0  0  0
    0.9392    0.4657   -2.6408 C   0  0  2  0  0  0  0  0  0  0  0  0
    2.3182    0.1375   -3.0746 N   0  3  0  0  0  0  0  0  0  0  0  0
    0.6443    1.9254   -2.9593 C   0  0  1  0  0  0  0  0  0  0  0  0
    0.7181    2.1310   -4.3617 O   0  0  0  0  0  0  0  0  0  0  0  0
   -0.7478    2.2889   -2.4475 C   0  0  2  0  0  0  0  0  0  0  0  0
   -1.0035    3.6682   -2.6792 O   0  0  0  0  0  0  0  0  0  0  0  0
   -3.2690    1.6034   -1.2108 N   0  3  0  0  0  0  0  0  0  0  0  0
   -0.8335    1.9934   -0.9513 C   0  0  2  0  0  0  0  0  0  0  0  0
   -0.5128    0.6101   -0.6999 O   0  0  0  0  0  0  0  0  0  0  0  0
    3.4128   -0.5674    3.2162 C   0  0  2  0  0  0  0  0  0  0  0  0
    3.5328   -0.9013    4.6540 N   0  3  0  0  0  0  0  0  0  0  0  0
    3.2078    0.9335    3.0451 C   0  0  0  0  0  0  0  0  0  0  0  0
    3.0804    1.2914    1.5710 C   0  0  2  0  0  0  0  0  0  0  0  0
    2.8891    2.7317    1.4766 N   0  3  0  0  0  0  0  0  0  0  0  0
    1.8990    0.5437    0.9573 C   0  0  1  0  0  0  0  0  0  0  0  0
    1.8027    0.8658   -0.4439 O   0  0  0  0  0  0  0  0  0  0  0  0
    2.0697   -0.9729    1.1217 C   0  0  2  0  0  0  0  0  0  0  0  0
    0.8935   -1.6416    0.6277 O   0  0  0  0  0  0  0  0  0  0  0  0
    2.2670   -1.3573    2.5859 C   0  0  1  0  0  0  0  0  0  0  0  0
    2.5441   -2.7484    2.6780 O   0  0  0  0  0  0  0  0  0  0  0  0
  1  2  1  0  0  0  0
  3  2  1  6  0  0  0
  3  5  1  0  0  0  0
  3  4  1  0  0  0  0
  4  9  1  0  0  0  0
  5  7  1  0  0  0  0
  5  6  1  1  0  0  0
  7  9  1  0  0  0  0
  7  8  1  1  0  0  0
  9 40  1  6  0  0  0
 10  6  1  1  0  0  0
 10 11  1  0  0  0  0
 10 18  1  0  0  0  0
 11 13  1  0  0  0  0
 11 12  1  1  0  0  0
 13 15  1  0  0  0  0
 13 14  1  6  0  0  0
 15 17  1  0  0  0  0
 15 16  1  1  0  0  0
 17 19  1  1  0  0  0
 17 18  1  0  0  0  0
 19 20  1  0  0  0  0
 21 29  1  0  0  0  0
 22 23  1  0  0  0  0
 22 31  1  0  0  0  0
 22 38  1  1  0  0  0
 23 25  1  0  0  0  0
 23 24  1  1  0  0  0
 25 27  1  0  0  0  0
 25 26  1  6  0  0  0
 27 30  1  0  0  0  0
 27 28  1  1  0  0  0
 30 21  1  6  0  0  0
 30 31  1  0  0  0  0
 32 34  1  0  0  0  0
 32 41  1  0  0  0  0
 32 33  1  1  0  0  0
 34 35  1  0  0  0  0
 35 37  1  0  0  0  0
 35 36  1  1  0  0  0
 37 39  1  0  0  0  0
 37 38  1  6  0  0  0
 39 41  1  0  0  0  0
 39 40  1  1  0  0  0
 41 42  1  6  0  0  0
M  CHG  6  12   1  20   1  24   1  29   1  33   1  36   1
M  END
>  <CHROM.1>
174.98344319,-85.33558398,-84.04989940,-105.64319714,54.69854806,-158.66993624
55.35750968,-100.08453373,171.05148551,-95.99604536,-7.75322423,49.13792044
-61.09864259,-170.75547912,37.32399679,-68.16783617,-177.62284778,-65.69865252
71.29485138,178.04599566,-154.37671785,69.87472023,-1.21228113,-0.98392214
0.95604787,2.54920686,0.15688709,2.27746965

>  <Name>
1NEM.B

>  <RI>
0

>  <Rbt.Current_Directory>
/home/itssahil/PROJECTS/Mol_Feturizer/New_Systems/rnas/1nem

>  <Rbt.Executable>
rbdock ($Id: //depot/dev/client3/rdock/2013.1/src/exe/rbdock.cxx#4 $)

>  <Rbt.Library>
libRbt.so (2013.1, Build901 2013/11/27)

>  <Rbt.Parameter_File>
/export/apps/rDock/src/rDock_2013.1_src/data/scripts/dock_solv.prm

>  <Rbt.Receptor>
prm/pocket_docking_4.prm

>  <SCORE>
-23.4055

>  <SCORE.INTER>
-43.7037

>  <SCORE.INTER.CONST>
1

>  <SCORE.INTER.POLAR>
-5.8199

>  <SCORE.INTER.ROT>
9

>  <SCORE.INTER.SOLV>
38.4991

>  <SCORE.INTER.VDW>
-32.1692

>  <SCORE.INTER.norm>
-1.04056

>  <SCORE.INTRA>
20.2982

>  <SCORE.INTRA.DIHEDRAL>
9.87704

>  <SCORE.INTRA.DIHEDRAL.0>
22.4324

>  <SCORE.INTRA.POLAR>
0.905442

>  <SCORE.INTRA.POLAR.0>
-1.83749

>  <SCORE.INTRA.REPUL>
0.427799

>  <SCORE.INTRA.REPUL.0>
0

>  <SCORE.INTRA.SOLV>
-1.74412

>  <SCORE.INTRA.SOLV.lig_0>
-160.638

>  <SCORE.INTRA.VDW>
11.0143

>  <SCORE.INTRA.VDW.0>
-7.61953

>  <SCORE.INTRA.norm>
0.483291

>  <SCORE.RESTR>
0

>  <SCORE.RESTR.CAVITY>
0

>  <SCORE.RESTR.norm>
0

>  <SCORE.SYSTEM>
0

>  <SCORE.SYSTEM.CONST>
0

>  <SCORE.SYSTEM.DIHEDRAL>
0

>  <SCORE.SYSTEM.SOLV>
0

>  <SCORE.SYSTEM.norm>
0

>  <SCORE.heavy>
42

>  <SCORE.norm>
-0.557273

>  <RMSD>
8.134

$$$$
1NEM.B
 OpenBabel11021811403D
libRbt.so/2013.1/901 2013/11/27
 42 45  0  0  0  0  0  0  0  0999 V2000
   -5.4582   -2.2901   -1.2382 O   0  0  0  0  0  0  0  0  0  0  0  0
   -5.2190   -3.4208   -0.3978 C   0  0  0  0  0  0  0  0  0  0  0  0
   -5.3178   -3.0913    1.0910 C   0  0  1  0  0  0  0  0  0  0  0  0
   -6.3742   -3.8274    1.7006 O   0  0  0  0  0  0  0  0  0  0  0  0
   -4.1008   -3.4888    1.9110 C   0  0  1  0  0  0  0  0  0  0  0  0
   -3.0486   -2.5808    1.5770 O   0  0  0  0  0  0  0  0  0  0  0  0
   -4.6960   -3.3532    3.2999 C   0  0  1  0  0  0  0  0  0  0  0  0
   -4.9388   -1.9872    3.6527 O   0  0  0  0  0  0  0  0  0  0  0  0
   -6.0241   -4.0812    3.0613 C   0  0  2  0  0  0  0  0  0  0  0  0
   -1.8177   -3.1562    1.2437 C   0  0  2  0  0  0  0  0  0  0  0  0
   -1.4088   -4.1477    2.3416 C   0  0  2  0  0  0  0  0  0  0  0  0
   -1.4415   -3.4805    3.6697 N   0  3  0  0  0  0  0  0  0  0  0  0
   -0.0324   -4.7521    2.0455 C   0  0  1  0  0  0  0  0  0  0  0  0
   -0.1281   -5.6384    0.9382 O   0  0  0  0  0  0  0  0  0  0  0  0
    0.9974   -3.6597    1.7417 C   0  0  2  0  0  0  0  0  0  0  0  0
    1.2745   -2.9025    2.9130 O   0  0  0  0  0  0  0  0  0  0  0  0
    0.4651   -2.7436    0.6433 C   0  0  1  0  0  0  0  0  0  0  0  0
   -0.7991   -2.1838    1.0487 O   0  0  0  0  0  0  0  0  0  0  0  0
    1.4025   -1.5950    0.3147 C   0  0  0  0  0  0  0  0  0  0  0  0
    2.7621   -2.0711   -0.0237 N   0  3  0  0  0  0  0  0  0  0  0  0
   -4.0802   -3.3178    6.4063 C   0  0  0  0  0  0  0  0  0  0  0  0
   -5.1950   -6.6365    5.1936 C   0  0  2  0  0  0  0  0  0  0  0  0
   -4.2901   -7.5638    6.0011 C   0  0  2  0  0  0  0  0  0  0  0  0
   -4.8571   -8.9331    6.0343 N   0  3  0  0  0  0  0  0  0  0  0  0
   -4.1429   -7.0443    7.4250 C   0  0  1  0  0  0  0  0  0  0  0  0
   -3.2390   -7.8707    8.1423 O   0  0  0  0  0  0  0  0  0  0  0  0
   -3.6289   -5.6067    7.3939 C   0  0  2  0  0  0  0  0  0  0  0  0
   -3.5546   -5.0907    8.7166 O   0  0  0  0  0  0  0  0  0  0  0  0
   -4.2888   -2.5360    7.6466 N   0  3  0  0  0  0  0  0  0  0  0  0
   -4.5740   -4.7460    6.5577 C   0  0  2  0  0  0  0  0  0  0  0  0
   -4.7058   -5.2984    5.2321 O   0  0  0  0  0  0  0  0  0  0  0  0
   -9.5173   -6.3646    2.6895 C   0  0  2  0  0  0  0  0  0  0  0  0
  -10.5576   -5.7680    1.8204 N   0  3  0  0  0  0  0  0  0  0  0  0
   -9.9158   -6.2195    4.1539 C   0  0  0  0  0  0  0  0  0  0  0  0
   -8.8538   -6.8268    5.0598 C   0  0  2  0  0  0  0  0  0  0  0  0
   -9.2932   -6.6577    6.4376 N   0  3  0  0  0  0  0  0  0  0  0  0
   -7.5149   -6.1312    4.8260 C   0  0  1  0  0  0  0  0  0  0  0  0
   -6.5094   -6.7305    5.6663 O   0  0  0  0  0  0  0  0  0  0  0  0
   -7.0888   -6.2502    3.3561 C   0  0  2  0  0  0  0  0  0  0  0  0
   -5.8789   -5.4971    3.1477 O   0  0  0  0  0  0  0  0  0  0  0  0
   -8.1643   -5.7094    2.4172 C   0  0  1  0  0  0  0  0  0  0  0  0
   -7.7833   -5.9523    1.0695 O   0  0  0  0  0  0  0  0  0  0  0  0
  1  2  1  0  0  0  0
  3  2  1  6  0  0  0
  3  5  1  0  0  0  0
  3  4  1  0  0  0  0
  4  9  1  0  0  0  0
  5  7  1  0  0  0  0
  5  6  1  1  0  0  0
  7  9  1  0  0  0  0
  7  8  1  6  0  0  0
  9 40  1  6  0  0  0
 10  6  1  1  0  0  0
 10 11  1  0  0  0  0
 10 18  1  0  0  0  0
 11 13  1  0  0  0  0
 11 12  1  1  0  0  0
 13 15  1  0  0  0  0
 13 14  1  6  0  0  0
 15 17  1  0  0  0  0
 15 16  1  1  0  0  0
 17 19  1  1  0  0  0
 17 18  1  0  0  0  0
 19 20  1  0  0  0  0
 21 29  1  0  0  0  0
 22 23  1  0  0  0  0
 22 31  1  0  0  0  0
 22 38  1  1  0  0  0
 23 25  1  0  0  0  0
 23 24  1  1  0  0  0
 25 27  1  0  0  0  0
 25 26  1  1  0  0  0
 27 30  1  0  0  0  0
 27 28  1  1  0  0  0
 30 21  1  6  0  0  0
 30 31  1  0  0  0  0
 32 34  1  0  0  0  0
 32 41  1  0  0  0  0
 32 33  1  6  0  0  0
 34 35  1  0  0  0  0
 35 37  1  0  0  0  0
 35 36  1  1  0  0  0
 37 39  1  0  0  0  0
 37 38  1  1  0  0  0
 39 41  1  0  0  0  0
 39 40  1  1  0  0  0
 41 42  1  6  0  0  0
M  CHG  6  12   1  20   1  24   1  29   1  33   1  36   1
M  END
>  <CHROM.1>
-155.80773837,117.53971287,-130.13183701,-51.49881249,-54.76602969,-84.04635841
-132.48283818,-64.61650365,59.83102461,54.39378719,52.16566604,-75.53792105
45.87099360,-167.47299173,67.51767617,64.02525789,63.33312602,-41.06926760
60.32326122,153.58565193,-76.75867928,-69.22471773,-4.29748959,-4.68317975
3.51080801,0.55253926,-0.22755510,-1.17240563

>  <Name>
1NEM.B

>  <RI>
0

>  <Rbt.Current_Directory>
/home/itssahil/PROJECTS/Mol_Feturizer/New_Systems/rnas/1nem

>  <Rbt.Executable>
rbdock ($Id: //depot/dev/client3/rdock/2013.1/src/exe/rbdock.cxx#4 $)

>  <Rbt.Library>
libRbt.so (2013.1, Build901 2013/11/27)

>  <Rbt.Parameter_File>
/export/apps/rDock/src/rDock_2013.1_src/data/scripts/dock_solv.prm

>  <Rbt.Receptor>
prm/pocket_docking_7.prm

>  <SCORE>
-28.6827

>  <SCORE.INTER>
-44.4101

>  <SCORE.INTER.CONST>
1

>  <SCORE.INTER.POLAR>
-6.12515

>  <SCORE.INTER.ROT>
9

>  <SCORE.INTER.SOLV>
38.3204

>  <SCORE.INTER.VDW>
-31.563

>  <SCORE.INTER.norm>
-1.05738

>  <SCORE.INTRA>
15.7027

>  <SCORE.INTRA.DIHEDRAL>
6.56764

>  <SCORE.INTRA.DIHEDRAL.0>
22.4324

>  <SCORE.INTRA.POLAR>
1.01858

>  <SCORE.INTRA.POLAR.0>
-1.83749

>  <SCORE.INTRA.REPUL>
0

>  <SCORE.INTRA.REPUL.0>
0

>  <SCORE.INTRA.SOLV>
-3.79195

>  <SCORE.INTRA.SOLV.lig_0>
-160.638

>  <SCORE.INTRA.VDW>
10.8517

>  <SCORE.INTRA.VDW.0>
-7.61953

>  <SCORE.INTRA.norm>
0.373873

>  <SCORE.RESTR>
0.0246798

>  <SCORE.RESTR.CAVITY>
0.0246798

>  <SCORE.RESTR.norm>
0.000587615

>  <SCORE.SYSTEM>
0

>  <SCORE.SYSTEM.CONST>
0

>  <SCORE.SYSTEM.DIHEDRAL>
0

>  <SCORE.SYSTEM.SOLV>
0

>  <SCORE.SYSTEM.norm>
0

>  <SCORE.heavy>
42

>  <SCORE.norm>
-0.682922

>  <RMSD>
8.144

$$$$
1NEM.B
 OpenBabel11021811403D
libRbt.so/2013.1/901 2013/11/27
 42 45  0  0  0  0  0  0  0  0999 V2000
   -6.9843   -4.1055   -0.4430 O   0  0  0  0  0  0  0  0  0  0  0  0
   -6.1181   -2.9704   -0.5031 C   0  0  0  0  0  0  0  0  0  0  0  0
   -4.6713   -3.3021   -0.1407 C   0  0  1  0  0  0  0  0  0  0  0  0
   -3.8215   -2.1860   -0.3893 O   0  0  0  0  0  0  0  0  0  0  0  0
   -4.4372   -3.5940    1.3329 C   0  0  1  0  0  0  0  0  0  0  0  0
   -5.0085   -4.8751    1.6081 O   0  0  0  0  0  0  0  0  0  0  0  0
   -2.9225   -3.5101    1.3536 C   0  0  1  0  0  0  0  0  0  0  0  0
   -2.3111   -4.6071    0.6666 O   0  0  0  0  0  0  0  0  0  0  0  0
   -2.7452   -2.2175    0.5484 C   0  0  2  0  0  0  0  0  0  0  0  0
   -5.0942   -5.2372    2.9567 C   0  0  2  0  0  0  0  0  0  0  0  0
   -6.3980   -6.0122    3.1907 C   0  0  2  0  0  0  0  0  0  0  0  0
   -7.5555   -5.2281    2.6851 N   0  3  0  0  0  0  0  0  0  0  0  0
   -6.5609   -6.3711    4.6713 C   0  0  1  0  0  0  0  0  0  0  0  0
   -5.6147   -7.3703    5.0274 O   0  0  0  0  0  0  0  0  0  0  0  0
   -6.3688   -5.1404    5.5629 C   0  0  2  0  0  0  0  0  0  0  0  0
   -7.4424   -4.2260    5.3806 O   0  0  0  0  0  0  0  0  0  0  0  0
   -5.0442   -4.4626    5.2237 C   0  0  1  0  0  0  0  0  0  0  0  0
   -5.0212   -4.1145    3.8257 O   0  0  0  0  0  0  0  0  0  0  0  0
   -4.7961   -3.1973    6.0259 C   0  0  0  0  0  0  0  0  0  0  0  0
   -4.6652   -2.0080    5.1551 N   0  3  0  0  0  0  0  0  0  0  0  0
    3.9174    0.6869    1.0917 C   0  0  0  0  0  0  0  0  0  0  0  0
    0.9629   -1.4432    0.4129 C   0  0  2  0  0  0  0  0  0  0  0  0
    1.2940   -2.6793    1.2457 C   0  0  2  0  0  0  0  0  0  0  0  0
    0.0661   -3.4691    1.5024 N   0  3  0  0  0  0  0  0  0  0  0  0
    1.9149   -2.2665    2.5735 C   0  0  1  0  0  0  0  0  0  0  0  0
    2.2889   -3.4242    3.3045 O   0  0  0  0  0  0  0  0  0  0  0  0
    3.1386   -1.3903    2.3150 C   0  0  2  0  0  0  0  0  0  0  0  0
    3.6835   -0.9438    3.5500 O   0  0  0  0  0  0  0  0  0  0  0  0
    4.9653   -0.0891    0.3897 N   0  3  0  0  0  0  0  0  0  0  0  0
    2.7330   -0.1870    1.4660 C   0  0  2  0  0  0  0  0  0  0  0  0
    2.1204   -0.6304    0.2380 O   0  0  0  0  0  0  0  0  0  0  0  0
   -2.7507    2.0819   -0.7214 C   0  0  2  0  0  0  0  0  0  0  0  0
   -3.7321    2.6902   -1.6489 N   0  3  0  0  0  0  0  0  0  0  0  0
   -1.4762    1.7199   -1.4754 C   0  0  0  0  0  0  0  0  0  0  0  0
   -0.4583    1.0910   -0.5342 C   0  0  2  0  0  0  0  0  0  0  0  0
    0.7304    0.7715   -1.3121 N   0  3  0  0  0  0  0  0  0  0  0  0
   -1.0481   -0.1663    0.1003 C   0  0  1  0  0  0  0  0  0  0  0  0
   -0.0894   -0.7394    1.0107 O   0  0  0  0  0  0  0  0  0  0  0  0
   -2.3405    0.1624    0.8605 C   0  0  2  0  0  0  0  0  0  0  0  0
   -2.9252   -1.0568    1.3568 O   0  0  0  0  0  0  0  0  0  0  0  0
   -3.3582    0.8558   -0.0418 C   0  0  1  0  0  0  0  0  0  0  0  0
   -4.4843    1.2517    0.7301 O   0  0  0  0  0  0  0  0  0  0  0  0
  1  2  1  0  0  0  0
  3  2  1  1  0  0  0
  3  5  1  0  0  0  0
  3  4  1  0  0  0  0
  4  9  1  0  0  0  0
  5  7  1  0  0  0  0
  5  6  1  6  0  0  0
  7  9  1  0  0  0  0
  7  8  1  6  0  0  0
  9 40  1  1  0  0  0
 10  6  1  6  0  0  0
 10 11  1  0  0  0  0
 10 18  1  0  0  0  0
 11 13  1  0  0  0  0
 11 12  1  1  0  0  0
 13 15  1  0  0  0  0
 13 14  1  1  0  0  0
 15 17  1  0  0  0  0
 15 16  1  6  0  0  0
 17 19  1  1  0  0  0
 17 18  1  0  0  0  0
 19 20  1  0  0  0  0
 21 29  1  0  0  0  0
 22 23  1  0  0  0  0
 22 31  1  0  0  0  0
 22 38  1  1  0  0  0
 23 25  1  0  0  0  0
 23 24  1  1  0  0  0
 25 27  1  0  0  0  0
 25 26  1  6  0  0  0
 27 30  1  0  0  0  0
 27 28  1  1  0  0  0
 30 21  1  6  0  0  0
 30 31  1  0  0  0  0
 32 34  1  0  0  0  0
 32 41  1  0  0  0  0
 32 33  1  6  0  0  0
 34 35  1  0  0  0  0
 35 37  1  0  0  0  0
 35 36  1  6  0  0  0
 37 39  1  0  0  0  0
 37 38  1  1  0  0  0
 39 41  1  0  0  0  0
 39 40  1  6  0  0  0
 41 42  1  1  0  0  0
M  CHG  6  12   1  20   1  24   1  29   1  33   1  36   1
M  END
>  <CHROM.1>
28.92784135,172.16843753,-169.91701399,142.93032730,-50.84164132,-86.44854014
143.21038478,-60.96173568,167.45566919,-119.30306290,0.52995418,56.20708399
-60.23400039,-141.58161949,49.09437219,174.39895259,-56.96877183,153.41326632
168.02207168,-76.60723963,-33.22448160,178.87241592,-2.35133157,-2.19898325
1.67806451,2.54503205,0.14972534,2.38182357

>  <Name>
1NEM.B

>  <RI>
0

>  <Rbt.Current_Directory>
/home/itssahil/PROJECTS/Mol_Feturizer/New_Systems/rnas/1nem

>  <Rbt.Executable>
rbdock ($Id: //depot/dev/client3/rdock/2013.1/src/exe/rbdock.cxx#4 $)

>  <Rbt.Library>
libRbt.so (2013.1, Build901 2013/11/27)

>  <Rbt.Parameter_File>
/export/apps/rDock/src/rDock_2013.1_src/data/scripts/dock_solv.prm

>  <Rbt.Receptor>
prm/pocket_docking_5.prm

>  <SCORE>
-32.6392

>  <SCORE.INTER>
-43.6214

>  <SCORE.INTER.CONST>
1

>  <SCORE.INTER.POLAR>
-5.76324

>  <SCORE.INTER.ROT>
9

>  <SCORE.INTER.SOLV>
36.1307

>  <SCORE.INTER.VDW>
-31.5137

>  <SCORE.INTER.norm>
-1.0386

>  <SCORE.INTRA>
10.9822

>  <SCORE.INTRA.DIHEDRAL>
14.8335

>  <SCORE.INTRA.DIHEDRAL.0>
22.4324

>  <SCORE.INTRA.POLAR>
-1.64652

>  <SCORE.INTRA.POLAR.0>
-1.83749

>  <SCORE.INTRA.REPUL>
0

>  <SCORE.INTRA.REPUL.0>
0

>  <SCORE.INTRA.SOLV>
5.31069

>  <SCORE.INTRA.SOLV.lig_0>
-160.638

>  <SCORE.INTRA.VDW>
6.50828

>  <SCORE.INTRA.VDW.0>
-7.61953

>  <SCORE.INTRA.norm>
0.261481

>  <SCORE.RESTR>
0

>  <SCORE.RESTR.CAVITY>
0

>  <SCORE.RESTR.norm>
0

>  <SCORE.SYSTEM>
0

>  <SCORE.SYSTEM.CONST>
0

>  <SCORE.SYSTEM.DIHEDRAL>
0

>  <SCORE.SYSTEM.SOLV>
0

>  <SCORE.SYSTEM.norm>
0

>  <SCORE.heavy>
42

>  <SCORE.norm>
-0.777123

>  <RMSD>
8.150

$$$$
1NEM.B
 OpenBabel11021811403D
libRbt.so/2013.1/901 2013/11/27
 42 45  0  0  0  0  0  0  0  0999 V2000
   -4.1174    2.0381   -1.5727 O   0  0  0  0  0  0  0  0  0  0  0  0
   -2.9065    2.7952   -1.6253 C   0  0  0  0  0  0  0  0  0  0  0  0
   -1.6595    1.9473   -1.3789 C   0  0  1  0  0  0  0  0  0  0  0  0
   -0.5252    2.7765   -1.1436 O   0  0  0  0  0  0  0  0  0  0  0  0
   -1.7185    1.0795   -0.1320 C   0  0  1  0  0  0  0  0  0  0  0  0
   -2.6327    0.0136   -0.3993 O   0  0  0  0  0  0  0  0  0  0  0  0
   -0.2517    0.7042   -0.0345 C   0  0  1  0  0  0  0  0  0  0  0  0
    0.1478   -0.1900   -1.0784 O   0  0  0  0  0  0  0  0  0  0  0  0
    0.3635    2.0901   -0.2618 C   0  0  2  0  0  0  0  0  0  0  0  0
   -2.7898   -0.9357    0.6164 C   0  0  2  0  0  0  0  0  0  0  0  0
   -3.1493   -2.2906   -0.0084 C   0  0  2  0  0  0  0  0  0  0  0  0
   -4.3255   -2.1428   -0.9057 N   0  3  0  0  0  0  0  0  0  0  0  0
   -3.3941   -3.3439    1.0769 C   0  0  1  0  0  0  0  0  0  0  0  0
   -2.1626   -3.6812    1.7016 O   0  0  0  0  0  0  0  0  0  0  0  0
   -4.3816   -2.8330    2.1305 C   0  0  2  0  0  0  0  0  0  0  0  0
   -5.6820   -2.7077    1.5689 O   0  0  0  0  0  0  0  0  0  0  0  0
   -3.9116   -1.4819    2.6621 C   0  0  1  0  0  0  0  0  0  0  0  0
   -3.7722   -0.5525    1.5700 O   0  0  0  0  0  0  0  0  0  0  0  0
   -4.8636   -0.8733    3.6767 C   0  0  0  0  0  0  0  0  0  0  0  0
   -4.7580   -1.5320    4.9976 N   0  3  0  0  0  0  0  0  0  0  0  0
    4.2598    0.1004   -0.8564 C   0  0  0  0  0  0  0  0  0  0  0  0
    2.6593    1.8662    1.9804 C   0  0  2  0  0  0  0  0  0  0  0  0
    3.3779    1.2283    3.1669 C   0  0  2  0  0  0  0  0  0  0  0  0
    3.2452    2.0860    4.3687 N   0  3  0  0  0  0  0  0  0  0  0  0
    4.8538    1.0361    2.8450 C   0  0  1  0  0  0  0  0  0  0  0  0
    5.4940    0.3726    3.9241 O   0  0  0  0  0  0  0  0  0  0  0  0
    4.9950    0.2150    1.5653 C   0  0  2  0  0  0  0  0  0  0  0  0
    6.3685    0.0898    1.2198 O   0  0  0  0  0  0  0  0  0  0  0  0
    5.5739    0.1903   -1.5331 N   0  3  0  0  0  0  0  0  0  0  0  0
    4.2396    0.9055    0.4313 C   0  0  2  0  0  0  0  0  0  0  0  0
    2.8580    1.0946    0.7988 O   0  0  0  0  0  0  0  0  0  0  0  0
    1.2733    6.2293   -0.5218 C   0  0  2  0  0  0  0  0  0  0  0  0
    0.7381    6.9552   -1.6965 N   0  3  0  0  0  0  0  0  0  0  0  0
    2.7574    5.9420   -0.7186 C   0  0  0  0  0  0  0  0  0  0  0  0
    3.3210    5.1935    0.4813 C   0  0  2  0  0  0  0  0  0  0  0  0
    4.7352    4.9523    0.2324 N   0  3  0  0  0  0  0  0  0  0  0  0
    2.5692    3.8780    0.6701 C   0  0  1  0  0  0  0  0  0  0  0  0
    3.0894    3.1893    1.8240 O   0  0  0  0  0  0  0  0  0  0  0  0
    1.0674    4.1317    0.8613 C   0  0  2  0  0  0  0  0  0  0  0  0
    0.3757    2.8703    0.9316 O   0  0  0  0  0  0  0  0  0  0  0  0
    0.4857    4.9397   -0.2960 C   0  0  1  0  0  0  0  0  0  0  0  0
   -0.8719    5.2566   -0.0181 O   0  0  0  0  0  0  0  0  0  0  0  0
  1  2  1  0  0  0  0
  3  2  1  1  0  0  0
  3  5  1  0  0  0  0
  3  4  1  0  0  0  0
  4  9  1  0  0  0  0
  5  7  1  0  0  0  0
  5  6  1  6  0  0  0
  7  9  1  0  0  0  0
  7  8  1  6  0  0  0
  9 40  1  1  0  0  0
 10  6  1  6  0  0  0
 10 11  1  0  0  0  0
 10 18  1  0  0  0  0
 11 13  1  0  0  0  0
 11 12  1  1  0  0  0
 13 15  1  0  0  0  0
 13 14  1  1  0  0  0
 15 17  1  0  0  0  0
 15 16  1  6  0  0  0
 17 19  1  1  0  0  0
 17 18  1  0  0  0  0
 19 20  1  0  0  0  0
 21 29  1  0  0  0  0
 22 23  1  0  0  0  0
 22 31  1  0  0  0  0
 22 38  1  6  0  0  0
 23 25  1  0  0  0  0
 23 24  1  1  0  0  0
 25 27  1  0  0  0  0
 25 26  1  1  0  0  0
 27 30  1  0  0  0  0
 27 28  1  6  0  0  0
 30 21  1  6  0  0  0
 30 31  1  0  0  0  0
 32 34  1  0  0  0  0
 32 41  1  0  0  0  0
 32 33  1  6  0  0  0
 34 35  1  0  0  0  0
 35 37  1  0  0  0  0
 35 36  1  6  0  0  0
 37 39  1  0  0  0  0
 37 38  1  1  0  0  0
 39 41  1  0  0  0  0
 39 40  1  6  0  0  0
 41 42  1  1  0  0  0
M  CHG  6  12   1  20   1  24   1  29   1  33   1  36   1
M  END
>  <CHROM.1>
175.26623327,-166.95513799,177.58178134,-150.69530364,71.48915652,-72.05120640
-85.88671250,61.16594347,168.45455718,75.84951350,172.83451103,-75.65626696
-54.76505357,175.18085456,-163.47618224,175.47620236,-59.66971639,-90.12262083
-73.83357210,-169.16702572,-66.83616749,77.55628532,0.25530616,1.26357889
0.74079349,2.64622950,0.19424393,2.67659882

>  <Name>
1NEM.B

>  <RI>
0

>  <Rbt.Current_Directory>
/home/itssahil/PROJECTS/Mol_Feturizer/New_Systems/rnas/1nem

>  <Rbt.Executable>
rbdock ($Id: //depot/dev/client3/rdock/2013.1/src/exe/rbdock.cxx#4 $)

>  <Rbt.Library>
libRbt.so (2013.1, Build901 2013/11/27)

>  <Rbt.Parameter_File>
/export/apps/rDock/src/rDock_2013.1_src/data/scripts/dock_solv.prm

>  <Rbt.Receptor>
prm/pocket_docking_6.prm

>  <SCORE>
-39.2458

>  <SCORE.INTER>
-40.5241

>  <SCORE.INTER.CONST>
1

>  <SCORE.INTER.POLAR>
-6.07682

>  <SCORE.INTER.ROT>
9

>  <SCORE.INTER.SOLV>
37.8973

>  <SCORE.INTER.VDW>
-28.9924

>  <SCORE.INTER.norm>
-0.964859

>  <SCORE.INTRA>
1.25019

>  <SCORE.INTRA.DIHEDRAL>
-6.78717

>  <SCORE.INTRA.DIHEDRAL.0>
22.4324

>  <SCORE.INTRA.POLAR>
0.487304

>  <SCORE.INTRA.POLAR.0>
-1.83749

>  <SCORE.INTRA.REPUL>
0.0667793

>  <SCORE.INTRA.REPUL.0>
0

>  <SCORE.INTRA.SOLV>
-6.67652

>  <SCORE.INTRA.SOLV.lig_0>
-160.638

>  <SCORE.INTRA.VDW>
5.99131

>  <SCORE.INTRA.VDW.0>
-7.61953

>  <SCORE.INTRA.norm>
0.0297665

>  <SCORE.RESTR>
0.0280904

>  <SCORE.RESTR.CAVITY>
0.0280904

>  <SCORE.RESTR.norm>
0.000668818

>  <SCORE.SYSTEM>
0

>  <SCORE.SYSTEM.CONST>
0

>  <SCORE.SYSTEM.DIHEDRAL>
0

>  <SCORE.SYSTEM.SOLV>
0

>  <SCORE.SYSTEM.norm>
0

>  <SCORE.heavy>
42

>  <SCORE.norm>
-0.934424

>  <RMSD>
8.153

$$$$
1NEM.B
 OpenBabel11021811403D
libRbt.so/2013.1/901 2013/11/27
 42 45  0  0  0  0  0  0  0  0999 V2000
   -1.9185   -0.5262   -0.4309 O   0  0  0  0  0  0  0  0  0  0  0  0
   -2.0898   -1.4233    0.6681 C   0  0  0  0  0  0  0  0  0  0  0  0
   -0.8469   -2.2653    0.9526 C   0  0  1  0  0  0  0  0  0  0  0  0
    0.3306   -1.5832    0.5312 O   0  0  0  0  0  0  0  0  0  0  0  0
   -0.5844   -2.5312    2.4263 C   0  0  1  0  0  0  0  0  0  0  0  0
   -1.5657   -3.4713    2.8697 O   0  0  0  0  0  0  0  0  0  0  0  0
    0.8418   -3.0389    2.3253 C   0  0  1  0  0  0  0  0  0  0  0  0
    0.9140   -4.3280    1.7071 O   0  0  0  0  0  0  0  0  0  0  0  0
    1.4085   -1.9693    1.3842 C   0  0  2  0  0  0  0  0  0  0  0  0
   -2.8519   -2.9661    3.0878 C   0  0  2  0  0  0  0  0  0  0  0  0
   -3.2287   -3.1609    4.5627 C   0  0  2  0  0  0  0  0  0  0  0  0
   -3.0480   -4.5843    4.9519 N   0  3  0  0  0  0  0  0  0  0  0  0
   -4.6584   -2.6785    4.8286 C   0  0  1  0  0  0  0  0  0  0  0  0
   -4.7066   -1.2601    4.7488 O   0  0  0  0  0  0  0  0  0  0  0  0
   -5.6422   -3.2835    3.8224 C   0  0  2  0  0  0  0  0  0  0  0  0
   -5.7770   -4.6818    4.0429 O   0  0  0  0  0  0  0  0  0  0  0  0
   -5.1471   -3.0257    2.4020 C   0  0  1  0  0  0  0  0  0  0  0  0
   -3.8228   -3.5706    2.2434 O   0  0  0  0  0  0  0  0  0  0  0  0
   -6.0375   -3.6403    1.3365 C   0  0  0  0  0  0  0  0  0  0  0  0
   -6.2240   -5.0937    1.5434 N   0  3  0  0  0  0  0  0  0  0  0  0
    1.7581    2.5636    4.7733 C   0  0  0  0  0  0  0  0  0  0  0  0
    4.8572    1.0523    3.4175 C   0  0  2  0  0  0  0  0  0  0  0  0
    5.6950    0.9113    4.6860 C   0  0  2  0  0  0  0  0  0  0  0  0
    6.7784   -0.0789    4.4781 N   0  3  0  0  0  0  0  0  0  0  0  0
    4.8177    0.4626    5.8471 C   0  0  1  0  0  0  0  0  0  0  0  0
    5.5914    0.4103    7.0359 O   0  0  0  0  0  0  0  0  0  0  0  0
    3.6571    1.4401    6.0181 C   0  0  2  0  0  0  0  0  0  0  0  0
    2.7949    0.9907    7.0555 O   0  0  0  0  0  0  0  0  0  0  0  0
    1.4563    3.1251    3.4366 N   0  3  0  0  0  0  0  0  0  0  0  0
    2.8781    1.5399    4.7080 C   0  0  2  0  0  0  0  0  0  0  0  0
    3.7589    1.9336    3.6361 O   0  0  0  0  0  0  0  0  0  0  0  0
    3.2382    0.9637   -0.9162 C   0  0  2  0  0  0  0  0  0  0  0  0
    2.8897    0.8862   -2.3535 N   0  3  0  0  0  0  0  0  0  0  0  0
    4.6739    0.4976   -0.7023 C   0  0  0  0  0  0  0  0  0  0  0  0
    5.0456    0.5698    0.7721 C   0  0  2  0  0  0  0  0  0  0  0  0
    6.4222    0.1152    0.9078 N   0  3  0  0  0  0  0  0  0  0  0  0
    4.0993   -0.3080    1.5878 C   0  0  1  0  0  0  0  0  0  0  0  0
    4.4398   -0.2120    2.9846 O   0  0  0  0  0  0  0  0  0  0  0  0
    2.6417    0.1293    1.3866 C   0  0  2  0  0  0  0  0  0  0  0  0
    1.7700   -0.7808    2.0841 O   0  0  0  0  0  0  0  0  0  0  0  0
    2.2580    0.1316   -0.0910 C   0  0  1  0  0  0  0  0  0  0  0  0
    0.9467    0.6594   -0.2398 O   0  0  0  0  0  0  0  0  0  0  0  0
  1  2  1  0  0  0  0
  3  2  1  1  0  0  0
  3  5  1  0  0  0  0
  3  4  1  0  0  0  0
  4  9  1  0  0  0  0
  5  7  1  0  0  0  0
  5  6  1  6  0  0  0
  7  9  1  0  0  0  0
  7  8  1  6  0  0  0
  9 40  1  1  0  0  0
 10  6  1  1  0  0  0
 10 11  1  0  0  0  0
 10 18  1  0  0  0  0
 11 13  1  0  0  0  0
 11 12  1  6  0  0  0
 13 15  1  0  0  0  0
 13 14  1  6  0  0  0
 15 17  1  0  0  0  0
 15 16  1  1  0  0  0
 17 19  1  6  0  0  0
 17 18  1  0  0  0  0
 19 20  1  0  0  0  0
 21 29  1  0  0  0  0
 22 23  1  0  0  0  0
 22 31  1  0  0  0  0
 22 38  1  1  0  0  0
 23 25  1  0  0  0  0
 23 24  1  6  0  0  0
 25 27  1  0  0  0  0
 25 26  1  1  0  0  0
 27 30  1  0  0  0  0
 27 28  1  1  0  0  0
 30 21  1  1  0  0  0
 30 31  1  0  0  0  0
 32 34  1  0  0  0  0
 32 41  1  0  0  0  0
 32 33  1  6  0  0  0
 34 35  1  0  0  0  0
 35 37  1  0  0  0  0
 35 36  1  6  0  0  0
 37 39  1  0  0  0  0
 37 38  1  1  0  0  0
 39 41  1  0  0  0  0
 39 40  1  1  0  0  0
 41 42  1  1  0  0  0
M  CHG  6  12   1  20   1  24   1  29   1  33   1  36   1
M  END
>  <CHROM.1>
-55.73512458,27.19896481,-76.34761404,-118.52301122,99.97673315,-82.16852863
-139.06337369,-64.17011994,-57.54167050,-55.39369313,168.18319989,152.51358432
38.50978778,-157.28607611,-49.80551792,-169.44207496,-56.28180953,153.15783374
84.72297797,36.73382117,-84.64779111,-57.32017031,0.64848333,-1.01917194
2.63283718,-3.10959666,0.44817452,1.53876180

>  <Name>
1NEM.B

>  <RI>
0

>  <Rbt.Current_Directory>
/home/itssahil/PROJECTS/Mol_Feturizer/New_Systems/rnas/1nem

>  <Rbt.Executable>
rbdock ($Id: //depot/dev/client3/rdock/2013.1/src/exe/rbdock.cxx#4 $)

>  <Rbt.Library>
libRbt.so (2013.1, Build901 2013/11/27)

>  <Rbt.Parameter_File>
/export/apps/rDock/src/rDock_2013.1_src/data/scripts/dock_solv.prm

>  <Rbt.Receptor>
prm/pocket_docking_2.prm

>  <SCORE>
-14.814

>  <SCORE.INTER>
-40.7991

>  <SCORE.INTER.CONST>
1

>  <SCORE.INTER.POLAR>
-5.11365

>  <SCORE.INTER.ROT>
9

>  <SCORE.INTER.SOLV>
31.2954

>  <SCORE.INTER.VDW>
-30.1857

>  <SCORE.INTER.norm>
-0.971408

>  <SCORE.INTRA>
19.2437

>  <SCORE.INTRA.DIHEDRAL>
14.276

>  <SCORE.INTRA.DIHEDRAL.0>
22.4324

>  <SCORE.INTRA.POLAR>
0.338273

>  <SCORE.INTRA.POLAR.0>
-1.83749

>  <SCORE.INTRA.REPUL>
0

>  <SCORE.INTRA.REPUL.0>
0

>  <SCORE.INTRA.SOLV>
0.255223

>  <SCORE.INTRA.SOLV.lig_0>
-160.638

>  <SCORE.INTRA.VDW>
10.828

>  <SCORE.INTRA.VDW.0>
-7.61953

>  <SCORE.INTRA.norm>
0.458184

>  <SCORE.RESTR>
6.74139

>  <SCORE.RESTR.CAVITY>
6.74139

>  <SCORE.RESTR.norm>
0.160509

>  <SCORE.SYSTEM>
0

>  <SCORE.SYSTEM.CONST>
0

>  <SCORE.SYSTEM.DIHEDRAL>
0

>  <SCORE.SYSTEM.SOLV>
0

>  <SCORE.SYSTEM.norm>
0

>  <SCORE.heavy>
42

>  <SCORE.norm>
-0.352714

>  <RMSD>
8.155

$$$$
1NEM.B
 OpenBabel11021811403D
libRbt.so/2013.1/901 2013/11/27
 42 45  0  0  0  0  0  0  0  0999 V2000
   -4.9708   -1.4795   -0.1631 O   0  0  0  0  0  0  0  0  0  0  0  0
   -5.2168   -2.7717   -0.7215 C   0  0  0  0  0  0  0  0  0  0  0  0
   -4.1151   -3.7811   -0.4020 C   0  0  1  0  0  0  0  0  0  0  0  0
   -2.8362   -3.2567   -0.7469 O   0  0  0  0  0  0  0  0  0  0  0  0
   -3.9667   -4.1122    1.0745 C   0  0  1  0  0  0  0  0  0  0  0  0
   -5.0873   -4.9193    1.4435 O   0  0  0  0  0  0  0  0  0  0  0  0
   -2.6188   -4.8071    1.0274 C   0  0  1  0  0  0  0  0  0  0  0  0
   -2.6896   -6.0803    0.3770 O   0  0  0  0  0  0  0  0  0  0  0  0
   -1.8654   -3.8045    0.1453 C   0  0  2  0  0  0  0  0  0  0  0  0
   -5.3645   -5.0040    2.8121 C   0  0  2  0  0  0  0  0  0  0  0  0
   -6.7897   -4.4975    3.0721 C   0  0  2  0  0  0  0  0  0  0  0  0
   -6.9641   -3.1417    2.4875 N   0  3  0  0  0  0  0  0  0  0  0  0
   -7.1092   -4.5131    4.5705 C   0  0  1  0  0  0  0  0  0  0  0  0
   -7.2413   -5.8562    5.0167 O   0  0  0  0  0  0  0  0  0  0  0  0
   -6.0134   -3.8092    5.3768 C   0  0  2  0  0  0  0  0  0  0  0  0
   -6.0214   -2.4130    5.1072 O   0  0  0  0  0  0  0  0  0  0  0  0
   -4.6528   -4.4007    5.0193 C   0  0  1  0  0  0  0  0  0  0  0  0
   -4.4289   -4.2805    3.6010 O   0  0  0  0  0  0  0  0  0  0  0  0
   -3.4980   -3.7227    5.7352 C   0  0  0  0  0  0  0  0  0  0  0  0
   -2.9827   -4.5439    6.8533 N   0  3  0  0  0  0  0  0  0  0  0  0
   -3.8251   -0.8324    2.5449 C   0  0  0  0  0  0  0  0  0  0  0  0
   -1.4915   -0.5807   -0.3218 C   0  0  2  0  0  0  0  0  0  0  0  0
   -2.1493    0.5278   -1.1400 C   0  0  2  0  0  0  0  0  0  0  0  0
   -1.1703    1.1197   -2.0828 N   0  3  0  0  0  0  0  0  0  0  0  0
   -2.6820    1.6157   -0.2171 C   0  0  1  0  0  0  0  0  0  0  0  0
   -3.3585    2.6006   -0.9831 O   0  0  0  0  0  0  0  0  0  0  0  0
   -3.6348    0.9982    0.8040 C   0  0  2  0  0  0  0  0  0  0  0  0
   -4.0829    1.9957    1.7127 O   0  0  0  0  0  0  0  0  0  0  0  0
   -3.1500   -1.9997    3.1570 N   0  3  0  0  0  0  0  0  0  0  0  0
   -2.9129   -0.1090    1.5696 C   0  0  2  0  0  0  0  0  0  0  0  0
   -2.3989   -1.0938    0.6500 O   0  0  0  0  0  0  0  0  0  0  0  0
    2.2417   -3.1063    1.8381 C   0  0  2  0  0  0  0  0  0  0  0  0
    2.8972   -4.0160    2.8057 N   0  3  0  0  0  0  0  0  0  0  0  0
    2.4830   -1.6558    2.2408 C   0  0  0  0  0  0  0  0  0  0  0  0
    1.8125   -0.7087    1.2556 C   0  0  2  0  0  0  0  0  0  0  0  0
    2.0808    0.6537    1.6938 N   0  3  0  0  0  0  0  0  0  0  0  0
    0.3108   -0.9820    1.2155 C   0  0  1  0  0  0  0  0  0  0  0  0
   -0.3121   -0.1010    0.2604 O   0  0  0  0  0  0  0  0  0  0  0  0
    0.0330   -2.4395    0.8221 C   0  0  2  0  0  0  0  0  0  0  0  0
   -1.3832   -2.6917    0.8953 O   0  0  0  0  0  0  0  0  0  0  0  0
    0.7479   -3.4154    1.7535 C   0  0  1  0  0  0  0  0  0  0  0  0
    0.5653   -4.7431    1.2800 O   0  0  0  0  0  0  0  0  0  0  0  0
  1  2  1  0  0  0  0
  3  2  1  1  0  0  0
  3  5  1  0  0  0  0
  3  4  1  0  0  0  0
  4  9  1  0  0  0  0
  5  7  1  0  0  0  0
  5  6  1  6  0  0  0
  7  9  1  0  0  0  0
  7  8  1  6  0  0  0
  9 40  1  1  0  0  0
 10  6  1  6  0  0  0
 10 11  1  0  0  0  0
 10 18  1  0  0  0  0
 11 13  1  0  0  0  0
 11 12  1  1  0  0  0
 13 15  1  0  0  0  0
 13 14  1  1  0  0  0
 15 17  1  0  0  0  0
 15 16  1  6  0  0  0
 17 19  1  1  0  0  0
 17 18  1  0  0  0  0
 19 20  1  0  0  0  0
 21 29  1  0  0  0  0
 22 23  1  0  0  0  0
 22 31  1  0  0  0  0
 22 38  1  1  0  0  0
 23 25  1  0  0  0  0
 23 24  1  6  0  0  0
 25 27  1  0  0  0  0
 25 26  1  6  0  0  0
 27 30  1  0  0  0  0
 27 28  1  1  0  0  0
 30 21  1  1  0  0  0
 30 31  1  0  0  0  0
 32 34  1  0  0  0  0
 32 41  1  0  0  0  0
 32 33  1  1  0  0  0
 34 35  1  0  0  0  0
 35 37  1  0  0  0  0
 35 36  1  1  0  0  0
 37 39  1  0  0  0  0
 37 38  1  6  0  0  0
 39 41  1  0  0  0  0
 39 40  1  1  0  0  0
 41 42  1  6  0  0  0
M  CHG  6  12   1  20   1  24   1  29   1  33   1  36   1
M  END
>  <CHROM.1>
-175.49292088,-51.89606432,-161.56761109,121.27804796,-179.85967910,-121.68226746
-36.10911067,63.66810419,-69.82570669,103.65640271,97.13121302,173.30253197
-142.20799882,171.41360921,86.21021858,-174.71570700,-65.90057805,56.36304246
65.73632639,152.86653720,159.08628957,87.25929644,-2.71503812,-2.37264737
1.76420157,2.39357844,-0.08006101,2.49535187

>  <Name>
1NEM.B

>  <RI>
0

>  <Rbt.Current_Directory>
/home/itssahil/PROJECTS/Mol_Feturizer/New_Systems/rnas/1nem

>  <Rbt.Executable>
rbdock ($Id: //depot/dev/client3/rdock/2013.1/src/exe/rbdock.cxx#4 $)

>  <Rbt.Library>
libRbt.so (2013.1, Build901 2013/11/27)

>  <Rbt.Parameter_File>
/export/apps/rDock/src/rDock_2013.1_src/data/scripts/dock_solv.prm

>  <Rbt.Receptor>
prm/blind_docking_60.prm

>  <SCORE>
2.08288

>  <SCORE.INTER>
-38.9902

>  <SCORE.INTER.CONST>
1

>  <SCORE.INTER.POLAR>
-6.04054

>  <SCORE.INTER.ROT>
9

>  <SCORE.INTER.SOLV>
45.2356

>  <SCORE.INTER.VDW>
-30.5369

>  <SCORE.INTER.norm>
-0.928338

>  <SCORE.INTRA>
31.9419

>  <SCORE.INTRA.DIHEDRAL>
15.9788

>  <SCORE.INTRA.DIHEDRAL.0>
22.4324

>  <SCORE.INTRA.POLAR>
-0.830314

>  <SCORE.INTRA.POLAR.0>
-1.83749

>  <SCORE.INTRA.REPUL>
0.331291

>  <SCORE.INTRA.REPUL.0>
0

>  <SCORE.INTRA.SOLV>
7.54586

>  <SCORE.INTRA.SOLV.lig_0>
-160.638

>  <SCORE.INTRA.VDW>
21.3462

>  <SCORE.INTRA.VDW.0>
-7.61953

>  <SCORE.INTRA.norm>
0.760522

>  <SCORE.RESTR>
9.13115

>  <SCORE.RESTR.CAVITY>
9.13115

>  <SCORE.RESTR.norm>
0.217408

>  <SCORE.SYSTEM>
0

>  <SCORE.SYSTEM.CONST>
0

>  <SCORE.SYSTEM.DIHEDRAL>
0

>  <SCORE.SYSTEM.SOLV>
0

>  <SCORE.SYSTEM.norm>
0

>  <SCORE.heavy>
42

>  <SCORE.norm>
0.0495923

>  <RMSD>
8.158

$$$$
1NEM.B
 OpenBabel11021811403D
libRbt.so/2013.1/901 2013/11/27
 42 45  0  0  0  0  0  0  0  0999 V2000
   -2.0257   -0.6548    1.2285 O   0  0  0  0  0  0  0  0  0  0  0  0
   -1.8658   -1.8991    0.5442 C   0  0  0  0  0  0  0  0  0  0  0  0
   -0.6006   -2.6502    0.9562 C   0  0  1  0  0  0  0  0  0  0  0  0
    0.5620   -1.8911    0.6374 O   0  0  0  0  0  0  0  0  0  0  0  0
   -0.4610   -2.8855    2.4517 C   0  0  1  0  0  0  0  0  0  0  0  0
   -1.4131   -3.8881    2.8146 O   0  0  0  0  0  0  0  0  0  0  0  0
    0.9998   -3.2934    2.4923 C   0  0  1  0  0  0  0  0  0  0  0  0
    1.2184   -4.5793    1.9024 O   0  0  0  0  0  0  0  0  0  0  0  0
    1.5783   -2.1945    1.5933 C   0  0  2  0  0  0  0  0  0  0  0  0
   -2.7219   -3.4466    3.0365 C   0  0  2  0  0  0  0  0  0  0  0  0
   -2.8639   -2.9983    4.4974 C   0  0  2  0  0  0  0  0  0  0  0  0
   -2.4125   -4.0818    5.4099 N   0  3  0  0  0  0  0  0  0  0  0  0
   -4.3032   -2.5679    4.7983 C   0  0  1  0  0  0  0  0  0  0  0  0
   -4.5829   -1.3409    4.1373 O   0  0  0  0  0  0  0  0  0  0  0  0
   -5.3053   -3.6348    4.3468 C   0  0  2  0  0  0  0  0  0  0  0  0
   -5.1890   -4.7966    5.1585 O   0  0  0  0  0  0  0  0  0  0  0  0
   -5.0501   -3.9930    2.8855 C   0  0  1  0  0  0  0  0  0  0  0  0
   -3.6899   -4.4404    2.7259 O   0  0  0  0  0  0  0  0  0  0  0  0
   -5.9672   -5.0871    2.3679 C   0  0  0  0  0  0  0  0  0  0  0  0
   -7.2257   -5.1652    3.1423 N   0  3  0  0  0  0  0  0  0  0  0  0
   -0.0755    4.5308    1.3292 C   0  0  0  0  0  0  0  0  0  0  0  0
    1.2057    1.1368    0.5769 C   0  0  2  0  0  0  0  0  0  0  0  0
    0.8440    1.0068   -0.9007 C   0  0  2  0  0  0  0  0  0  0  0  0
    1.6545   -0.0599   -1.5355 N   0  3  0  0  0  0  0  0  0  0  0  0
    1.0937    2.3255   -1.6201 C   0  0  1  0  0  0  0  0  0  0  0  0
    0.6812    2.2150   -2.9737 O   0  0  0  0  0  0  0  0  0  0  0  0
    0.3185    3.4420   -0.9241 C   0  0  2  0  0  0  0  0  0  0  0  0
    0.6008    4.6883   -1.5475 O   0  0  0  0  0  0  0  0  0  0  0  0
   -0.1375    4.1928    2.7696 N   0  3  0  0  0  0  0  0  0  0  0  0
    0.7208    3.4999    0.5483 C   0  0  2  0  0  0  0  0  0  0  0  0
    0.4976    2.2199    1.1740 O   0  0  0  0  0  0  0  0  0  0  0  0
    5.1443   -0.1347    3.8019 C   0  0  2  0  0  0  0  0  0  0  0  0
    5.6969   -0.3824    5.1534 N   0  3  0  0  0  0  0  0  0  0  0  0
    5.0829    1.3643    3.5308 C   0  0  0  0  0  0  0  0  0  0  0  0
    4.5142    1.6343    2.1448 C   0  0  2  0  0  0  0  0  0  0  0  0
    4.4837    3.0767    1.9484 N   0  3  0  0  0  0  0  0  0  0  0  0
    3.1119    1.0401    2.0362 C   0  0  1  0  0  0  0  0  0  0  0  0
    2.5922    1.2752    0.7129 O   0  0  0  0  0  0  0  0  0  0  0  0
    3.1370   -0.4693    2.3139 C   0  0  2  0  0  0  0  0  0  0  0  0
    1.7896   -0.9782    2.3068 O   0  0  0  0  0  0  0  0  0  0  0  0
    3.7643   -0.7771    3.6712 C   0  0  1  0  0  0  0  0  0  0  0  0
    3.8802   -2.1847    3.8320 O   0  0  0  0  0  0  0  0  0  0  0  0
  1  2  1  0  0  0  0
  3  2  1  1  0  0  0
  3  5  1  0  0  0  0
  3  4  1  0  0  0  0
  4  9  1  0  0  0  0
  5  7  1  0  0  0  0
  5  6  1  6  0  0  0
  7  9  1  0  0  0  0
  7  8  1  6  0  0  0
  9 40  1  1  0  0  0
 10  6  1  1  0  0  0
 10 11  1  0  0  0  0
 10 18  1  0  0  0  0
 11 13  1  0  0  0  0
 11 12  1  1  0  0  0
 13 15  1  0  0  0  0
 13 14  1  6  0  0  0
 15 17  1  0  0  0  0
 15 16  1  1  0  0  0
 17 19  1  1  0  0  0
 17 18  1  0  0  0  0
 19 20  1  0  0  0  0
 21 29  1  0  0  0  0
 22 23  1  0  0  0  0
 22 31  1  0  0  0  0
 22 38  1  6  0  0  0
 23 25  1  0  0  0  0
 23 24  1  6  0  0  0
 25 27  1  0  0  0  0
 25 26  1  6  0  0  0
 27 30  1  0  0  0  0
 27 28  1  6  0  0  0
 30 21  1  1  0  0  0
 30 31  1  0  0  0  0
 32 34  1  0  0  0  0
 32 41  1  0  0  0  0
 32 33  1  1  0  0  0
 34 35  1  0  0  0  0
 35 37  1  0  0  0  0
 35 36  1  1  0  0  0
 37 39  1  0  0  0  0
 37 38  1  6  0  0  0
 39 41  1  0  0  0  0
 39 40  1  1  0  0  0
 41 42  1  6  0  0  0
M  CHG  6  12   1  20   1  24   1  29   1  33   1  36   1
M  END
>  <CHROM.1>
-65.70649045,-62.01095026,-82.61909673,-86.79424727,80.72320129,-123.60813590
68.93731295,63.24215311,52.04775037,24.09321793,58.38949641,154.78192489
-64.96955874,-163.59242200,-57.08262383,-168.45714240,63.10047419,64.90345152
-172.48031887,-162.47477445,135.09475321,178.54353951,-0.04058723,-0.78654190
2.04137059,2.42279274,0.23816118,2.48445819

>  <Name>
1NEM.B

>  <RI>
0

>  <Rbt.Current_Directory>
/home/itssahil/PROJECTS/Mol_Feturizer/New_Systems/rnas/1nem

>  <Rbt.Executable>
rbdock ($Id: //depot/dev/client3/rdock/2013.1/src/exe/rbdock.cxx#4 $)

>  <Rbt.Library>
libRbt.so (2013.1, Build901 2013/11/27)

>  <Rbt.Parameter_File>
/export/apps/rDock/src/rDock_2013.1_src/data/scripts/dock_solv.prm

>  <Rbt.Receptor>
prm/pocket_docking_6.prm

>  <SCORE>
-35.4342

>  <SCORE.INTER>
-41.4028

>  <SCORE.INTER.CONST>
1

>  <SCORE.INTER.POLAR>
-5.67795

>  <SCORE.INTER.ROT>
9

>  <SCORE.INTER.SOLV>
35.4072

>  <SCORE.INTER.VDW>
-30.0778

>  <SCORE.INTER.norm>
-0.985781

>  <SCORE.INTRA>
5.96859

>  <SCORE.INTRA.DIHEDRAL>
8.13849

>  <SCORE.INTRA.DIHEDRAL.0>
22.4324

>  <SCORE.INTRA.POLAR>
0.481126

>  <SCORE.INTRA.POLAR.0>
-1.83749

>  <SCORE.INTRA.REPUL>
0.00264092

>  <SCORE.INTRA.REPUL.0>
0

>  <SCORE.INTRA.SOLV>
-3.47651

>  <SCORE.INTRA.SOLV.lig_0>
-160.638

>  <SCORE.INTRA.VDW>
1.98857

>  <SCORE.INTRA.VDW.0>
-7.61953

>  <SCORE.INTRA.norm>
0.142109

>  <SCORE.RESTR>
0

>  <SCORE.RESTR.CAVITY>
0

>  <SCORE.RESTR.norm>
0

>  <SCORE.SYSTEM>
0

>  <SCORE.SYSTEM.CONST>
0

>  <SCORE.SYSTEM.DIHEDRAL>
0

>  <SCORE.SYSTEM.SOLV>
0

>  <SCORE.SYSTEM.norm>
0

>  <SCORE.heavy>
42

>  <SCORE.norm>
-0.843672

>  <RMSD>
8.171

$$$$
1NEM.B
 OpenBabel11021811403D
libRbt.so/2013.1/901 2013/11/27
 42 45  0  0  0  0  0  0  0  0999 V2000
   -0.0206    0.5927   -2.6381 O   0  0  0  0  0  0  0  0  0  0  0  0
   -0.0002    0.3003   -1.2395 C   0  0  0  0  0  0  0  0  0  0  0  0
    1.3846   -0.0987   -0.7317 C   0  0  1  0  0  0  0  0  0  0  0  0
    2.2570    1.0274   -0.7107 O   0  0  0  0  0  0  0  0  0  0  0  0
    1.4160   -0.5878    0.7074 C   0  0  1  0  0  0  0  0  0  0  0  0
    0.8164   -1.8853    0.7282 O   0  0  0  0  0  0  0  0  0  0  0  0
    2.9134   -0.5307    0.9448 C   0  0  1  0  0  0  0  0  0  0  0  0
    3.6163   -1.5356    0.2063 O   0  0  0  0  0  0  0  0  0  0  0  0
    3.1951    0.8548    0.3516 C   0  0  2  0  0  0  0  0  0  0  0  0
   -0.4406   -1.9760    1.3358 C   0  0  2  0  0  0  0  0  0  0  0  0
   -0.7609   -3.4501    1.6181 C   0  0  2  0  0  0  0  0  0  0  0  0
   -0.6147   -4.2514    0.3744 N   0  3  0  0  0  0  0  0  0  0  0  0
   -2.1599   -3.5976    2.2253 C   0  0  1  0  0  0  0  0  0  0  0  0
   -2.1607   -3.0882    3.5524 O   0  0  0  0  0  0  0  0  0  0  0  0
   -3.2066   -2.8548    1.3892 C   0  0  2  0  0  0  0  0  0  0  0  0
   -3.3817   -3.4974    0.1327 O   0  0  0  0  0  0  0  0  0  0  0  0
   -2.7635   -1.4099    1.1778 C   0  0  1  0  0  0  0  0  0  0  0  0
   -1.4675   -1.3867    0.5488 O   0  0  0  0  0  0  0  0  0  0  0  0
   -3.7199   -0.6109    0.3100 C   0  0  0  0  0  0  0  0  0  0  0  0
   -3.9990   -1.2903   -0.9747 N   0  3  0  0  0  0  0  0  0  0  0  0
    5.7179    3.0064    7.7009 C   0  0  0  0  0  0  0  0  0  0  0  0
    4.7539    1.3489    4.5307 C   0  0  2  0  0  0  0  0  0  0  0  0
    3.5633    0.5095    4.9879 C   0  0  2  0  0  0  0  0  0  0  0  0
    2.7319    0.1212    3.8236 N   0  3  0  0  0  0  0  0  0  0  0  0
    2.7127    1.2988    5.9742 C   0  0  1  0  0  0  0  0  0  0  0  0
    1.6544    0.4817    6.4504 O   0  0  0  0  0  0  0  0  0  0  0  0
    3.5821    1.7648    7.1399 C   0  0  2  0  0  0  0  0  0  0  0  0
    2.8110    2.5610    8.0304 O   0  0  0  0  0  0  0  0  0  0  0  0
    5.1680    4.1228    8.5035 N   0  3  0  0  0  0  0  0  0  0  0  0
    4.7566    2.5815    6.6045 C   0  0  2  0  0  0  0  0  0  0  0  0
    5.5083    1.8031    5.6512 O   0  0  0  0  0  0  0  0  0  0  0  0
    5.6953    4.1487    0.1160 C   0  0  2  0  0  0  0  0  0  0  0  0
    6.3449    4.2892   -1.2076 N   0  3  0  0  0  0  0  0  0  0  0  0
    6.7191    3.7035    1.1542 C   0  0  0  0  0  0  0  0  0  0  0  0
    6.0645    3.5527    2.5202 C   0  0  2  0  0  0  0  0  0  0  0  0
    7.0909    3.1292    3.4622 N   0  3  0  0  0  0  0  0  0  0  0  0
    4.9382    2.5247    2.4436 C   0  0  1  0  0  0  0  0  0  0  0  0
    4.3057    2.4086    3.7331 O   0  0  0  0  0  0  0  0  0  0  0  0
    3.8933    2.9387    1.3981 C   0  0  2  0  0  0  0  0  0  0  0  0
    2.9028    1.9001    1.2764 O   0  0  0  0  0  0  0  0  0  0  0  0
    4.5312    3.1630    0.0294 C   0  0  1  0  0  0  0  0  0  0  0  0
    3.5537    3.6630   -0.8734 O   0  0  0  0  0  0  0  0  0  0  0  0
  1  2  1  0  0  0  0
  3  2  1  1  0  0  0
  3  5  1  0  0  0  0
  3  4  1  0  0  0  0
  4  9  1  0  0  0  0
  5  7  1  0  0  0  0
  5  6  1  6  0  0  0
  7  9  1  0  0  0  0
  7  8  1  6  0  0  0
  9 40  1  1  0  0  0
 10  6  1  6  0  0  0
 10 11  1  0  0  0  0
 10 18  1  0  0  0  0
 11 13  1  0  0  0  0
 11 12  1  6  0  0  0
 13 15  1  0  0  0  0
 13 14  1  1  0  0  0
 15 17  1  0  0  0  0
 15 16  1  6  0  0  0
 17 19  1  6  0  0  0
 17 18  1  0  0  0  0
 19 20  1  0  0  0  0
 21 29  1  0  0  0  0
 22 23  1  0  0  0  0
 22 31  1  0  0  0  0
 22 38  1  1  0  0  0
 23 25  1  0  0  0  0
 23 24  1  6  0  0  0
 25 27  1  0  0  0  0
 25 26  1  1  0  0  0
 27 30  1  0  0  0  0
 27 28  1  1  0  0  0
 30 21  1  1  0  0  0
 30 31  1  0  0  0  0
 32 34  1  0  0  0  0
 32 41  1  0  0  0  0
 32 33  1  6  0  0  0
 34 35  1  0  0  0  0
 35 37  1  0  0  0  0
 35 36  1  1  0  0  0
 37 39  1  0  0  0  0
 37 38  1  1  0  0  0
 39 41  1  0  0  0  0
 39 40  1  6  0  0  0
 41 42  1  6  0  0  0
M  CHG  6  12   1  20   1  24   1  29   1  33   1  36   1
M  END
>  <CHROM.1>
161.86173287,71.23064985,-109.22737172,-164.56750222,-151.61209414,-111.17785786
65.21196614,178.12982081,66.40397777,-52.70668750,158.46306607,-75.63656724
178.82974283,-126.83635659,-37.04399570,-179.74945196,-54.15418827,175.87181738
-175.29008757,-96.85400941,-87.14969214,64.17181843,2.11270536,0.60216413
2.19442066,-2.74110806,0.65099691,1.63854393

>  <Name>
1NEM.B

>  <RI>
0

>  <Rbt.Current_Directory>
/home/itssahil/PROJECTS/Mol_Feturizer/New_Systems/rnas/1nem

>  <Rbt.Executable>
rbdock ($Id: //depot/dev/client3/rdock/2013.1/src/exe/rbdock.cxx#4 $)

>  <Rbt.Library>
libRbt.so (2013.1, Build901 2013/11/27)

>  <Rbt.Parameter_File>
/export/apps/rDock/src/rDock_2013.1_src/data/scripts/dock_solv.prm

>  <Rbt.Receptor>
prm/pocket_docking_6.prm

>  <SCORE>
-39.954

>  <SCORE.INTER>
-46.8026

>  <SCORE.INTER.CONST>
1

>  <SCORE.INTER.POLAR>
-7.21358

>  <SCORE.INTER.ROT>
9

>  <SCORE.INTER.SOLV>
33.5736

>  <SCORE.INTER.VDW>
-27.9477

>  <SCORE.INTER.norm>
-1.11435

>  <SCORE.INTRA>
6.84858

>  <SCORE.INTRA.DIHEDRAL>
15.8985

>  <SCORE.INTRA.DIHEDRAL.0>
22.4324

>  <SCORE.INTRA.POLAR>
-1.81165

>  <SCORE.INTRA.POLAR.0>
-1.83749

>  <SCORE.INTRA.REPUL>
0

>  <SCORE.INTRA.REPUL.0>
0

>  <SCORE.INTRA.SOLV>
2.82959

>  <SCORE.INTRA.SOLV.lig_0>
-160.638

>  <SCORE.INTRA.VDW>
3.64415

>  <SCORE.INTRA.VDW.0>
-7.61953

>  <SCORE.INTRA.norm>
0.163061

>  <SCORE.RESTR>
0

>  <SCORE.RESTR.CAVITY>
0

>  <SCORE.RESTR.norm>
0

>  <SCORE.SYSTEM>
0

>  <SCORE.SYSTEM.CONST>
0

>  <SCORE.SYSTEM.DIHEDRAL>
0

>  <SCORE.SYSTEM.SOLV>
0

>  <SCORE.SYSTEM.norm>
0

>  <SCORE.heavy>
42

>  <SCORE.norm>
-0.951285

>  <RMSD>
8.189

$$$$
1NEM.B
 OpenBabel11021811403D
libRbt.so/2013.1/901 2013/11/27
 42 45  0  0  0  0  0  0  0  0999 V2000
   -1.7842   -0.8166    1.2400 O   0  0  0  0  0  0  0  0  0  0  0  0
   -1.4641   -2.0896    0.6751 C   0  0  0  0  0  0  0  0  0  0  0  0
   -0.1621   -2.6754    1.2194 C   0  0  1  0  0  0  0  0  0  0  0  0
    0.9594   -1.9338    0.7485 O   0  0  0  0  0  0  0  0  0  0  0  0
   -0.0162   -2.6013    2.7310 C   0  0  1  0  0  0  0  0  0  0  0  0
   -0.9146   -3.5612    3.2920 O   0  0  0  0  0  0  0  0  0  0  0  0
    1.4642   -2.9146    2.8420 C   0  0  1  0  0  0  0  0  0  0  0  0
    1.7537   -4.2784    2.5175 O   0  0  0  0  0  0  0  0  0  0  0  0
    1.9866   -1.9867    1.7388 C   0  0  2  0  0  0  0  0  0  0  0  0
   -2.2776   -3.2592    3.2017 C   0  0  2  0  0  0  0  0  0  0  0  0
   -2.8178   -2.9343    4.6010 C   0  0  2  0  0  0  0  0  0  0  0  0
   -2.4885   -4.0359    5.5435 N   0  3  0  0  0  0  0  0  0  0  0  0
   -4.3246   -2.6610    4.5541 C   0  0  1  0  0  0  0  0  0  0  0  0
   -4.5649   -1.4197    3.9045 O   0  0  0  0  0  0  0  0  0  0  0  0
   -5.0666   -3.7794    3.8158 C   0  0  2  0  0  0  0  0  0  0  0  0
   -5.0275   -4.9821    4.5735 O   0  0  0  0  0  0  0  0  0  0  0  0
   -4.4269   -4.0043    2.4486 C   0  0  1  0  0  0  0  0  0  0  0  0
   -3.0289   -4.3121    2.6117 O   0  0  0  0  0  0  0  0  0  0  0  0
   -5.0680   -5.1370    1.6663 C   0  0  0  0  0  0  0  0  0  0  0  0
   -6.5330   -4.9655    1.5463 N   0  3  0  0  0  0  0  0  0  0  0  0
    2.0706    2.4667    4.9327 C   0  0  0  0  0  0  0  0  0  0  0  0
    5.1151    1.4249    3.0963 C   0  0  2  0  0  0  0  0  0  0  0  0
    6.1607    1.4759    4.2076 C   0  0  2  0  0  0  0  0  0  0  0  0
    7.3461    0.6676    3.8345 N   0  3  0  0  0  0  0  0  0  0  0  0
    5.5731    0.9395    5.5061 C   0  0  1  0  0  0  0  0  0  0  0  0
    6.5285    1.0642    6.5483 O   0  0  0  0  0  0  0  0  0  0  0  0
    4.3088    1.7212    5.8560 C   0  0  2  0  0  0  0  0  0  0  0  0
    3.7157    1.1814    7.0300 O   0  0  0  0  0  0  0  0  0  0  0  0
    1.3675    2.0481    6.1670 N   0  3  0  0  0  0  0  0  0  0  0  0
    3.3204    1.6374    4.6944 C   0  0  2  0  0  0  0  0  0  0  0  0
    3.9353    2.1239    3.4841 O   0  0  0  0  0  0  0  0  0  0  0  0
    3.1933    0.9195   -1.0645 C   0  0  2  0  0  0  0  0  0  0  0  0
    2.6994    0.7190   -2.4463 N   0  3  0  0  0  0  0  0  0  0  0  0
    4.6632    0.5253   -0.9742 C   0  0  0  0  0  0  0  0  0  0  0  0
    5.1841    0.7243    0.4422 C   0  0  2  0  0  0  0  0  0  0  0  0
    6.5866    0.3333    0.4606 N   0  3  0  0  0  0  0  0  0  0  0  0
    4.3697   -0.1232    1.4169 C   0  0  1  0  0  0  0  0  0  0  0  0
    4.8506    0.0923    2.7580 O   0  0  0  0  0  0  0  0  0  0  0  0
    2.8807    0.2425    1.3436 C   0  0  2  0  0  0  0  0  0  0  0  0
    2.1295   -0.6435    2.1953 O   0  0  0  0  0  0  0  0  0  0  0  0
    2.3441    0.1170   -0.0801 C   0  0  1  0  0  0  0  0  0  0  0  0
    1.0017    0.5824   -0.1239 O   0  0  0  0  0  0  0  0  0  0  0  0
  1  2  1  0  0  0  0
  3  2  1  1  0  0  0
  3  5  1  0  0  0  0
  3  4  1  0  0  0  0
  4  9  1  0  0  0  0
  5  7  1  0  0  0  0
  5  6  1  1  0  0  0
  7  9  1  0  0  0  0
  7  8  1  6  0  0  0
  9 40  1  1  0  0  0
 10  6  1  1  0  0  0
 10 11  1  0  0  0  0
 10 18  1  0  0  0  0
 11 13  1  0  0  0  0
 11 12  1  1  0  0  0
 13 15  1  0  0  0  0
 13 14  1  6  0  0  0
 15 17  1  0  0  0  0
 15 16  1  1  0  0  0
 17 19  1  1  0  0  0
 17 18  1  0  0  0  0
 19 20  1  0  0  0  0
 21 29  1  0  0  0  0
 22 23  1  0  0  0  0
 22 31  1  0  0  0  0
 22 38  1  1  0  0  0
 23 25  1  0  0  0  0
 23 24  1  6  0  0  0
 25 27  1  0  0  0  0
 25 26  1  1  0  0  0
 27 30  1  0  0  0  0
 27 28  1  1  0  0  0
 30 21  1  1  0  0  0
 30 31  1  0  0  0  0
 32 34  1  0  0  0  0
 32 41  1  0  0  0  0
 32 33  1  6  0  0  0
 34 35  1  0  0  0  0
 35 37  1  0  0  0  0
 35 36  1  6  0  0  0
 37 39  1  0  0  0  0
 37 38  1  1  0  0  0
 39 41  1  0  0  0  0
 39 40  1  1  0  0  0
 41 42  1  1  0  0  0
M  CHG  6  12   1  20   1  24   1  29   1  33   1  36   1
M  END
>  <CHROM.1>
-65.89118520,-69.94802068,-71.02400018,-110.10900451,-164.11195276,-78.52189439
173.23721126,59.27247094,67.07051774,53.53705488,-65.37525735,-58.27087704
179.15602847,-154.32883512,72.22469677,56.03624490,-65.75543549,29.27857001
-62.50968767,43.42379591,-72.21616923,-61.83275839,1.06319396,-1.06299744
2.75486926,-3.08711595,0.49231474,1.45871492

>  <Name>
1NEM.B

>  <RI>
0

>  <Rbt.Current_Directory>
/home/itssahil/PROJECTS/Mol_Feturizer/New_Systems/rnas/1nem

>  <Rbt.Executable>
rbdock ($Id: //depot/dev/client3/rdock/2013.1/src/exe/rbdock.cxx#4 $)

>  <Rbt.Library>
libRbt.so (2013.1, Build901 2013/11/27)

>  <Rbt.Parameter_File>
/export/apps/rDock/src/rDock_2013.1_src/data/scripts/dock_solv.prm

>  <Rbt.Receptor>
prm/pocket_docking_3.prm

>  <SCORE>
-26.1213

>  <SCORE.INTER>
-34.1031

>  <SCORE.INTER.CONST>
1

>  <SCORE.INTER.POLAR>
-3.95947

>  <SCORE.INTER.ROT>
9

>  <SCORE.INTER.SOLV>
33.0703

>  <SCORE.INTER.VDW>
-30.1607

>  <SCORE.INTER.norm>
-0.81198

>  <SCORE.INTRA>
7.95981

>  <SCORE.INTRA.DIHEDRAL>
-3.31713

>  <SCORE.INTRA.DIHEDRAL.0>
22.4324

>  <SCORE.INTRA.POLAR>
1.01306

>  <SCORE.INTRA.POLAR.0>
-1.83749

>  <SCORE.INTRA.REPUL>
0.00685099

>  <SCORE.INTRA.REPUL.0>
0

>  <SCORE.INTRA.SOLV>
-0.97143

>  <SCORE.INTRA.SOLV.lig_0>
-160.638

>  <SCORE.INTRA.VDW>
6.62544

>  <SCORE.INTRA.VDW.0>
-7.61953

>  <SCORE.INTRA.norm>
0.189519

>  <SCORE.RESTR>
0.0220138

>  <SCORE.RESTR.CAVITY>
0.0220138

>  <SCORE.RESTR.norm>
0.000524137

>  <SCORE.SYSTEM>
0

>  <SCORE.SYSTEM.CONST>
0

>  <SCORE.SYSTEM.DIHEDRAL>
0

>  <SCORE.SYSTEM.SOLV>
0

>  <SCORE.SYSTEM.norm>
0

>  <SCORE.heavy>
42

>  <SCORE.norm>
-0.621936

>  <RMSD>
8.194

$$$$
1NEM.B
 OpenBabel11021811403D
libRbt.so/2013.1/901 2013/11/27
 42 45  0  0  0  0  0  0  0  0999 V2000
   -8.3837   -3.5845    1.4344 O   0  0  0  0  0  0  0  0  0  0  0  0
   -7.4293   -2.5210    1.4483 C   0  0  0  0  0  0  0  0  0  0  0  0
   -6.1431   -2.8615    0.6970 C   0  0  1  0  0  0  0  0  0  0  0  0
   -5.4518   -1.6748    0.3185 O   0  0  0  0  0  0  0  0  0  0  0  0
   -5.1101   -3.6171    1.5178 C   0  0  1  0  0  0  0  0  0  0  0  0
   -5.5970   -4.9499    1.6903 O   0  0  0  0  0  0  0  0  0  0  0  0
   -3.9110   -3.4479    0.6037 C   0  0  1  0  0  0  0  0  0  0  0  0
   -4.0398   -4.2075   -0.6028 O   0  0  0  0  0  0  0  0  0  0  0  0
   -4.0511   -1.9510    0.3029 C   0  0  2  0  0  0  0  0  0  0  0  0
   -5.2004   -5.6065    2.8604 C   0  0  2  0  0  0  0  0  0  0  0  0
   -6.3237   -6.5465    3.3187 C   0  0  2  0  0  0  0  0  0  0  0  0
   -7.6023   -5.7964    3.4322 N   0  3  0  0  0  0  0  0  0  0  0  0
   -5.9537   -7.2370    4.6354 C   0  0  1  0  0  0  0  0  0  0  0  0
   -4.9203   -8.1851    4.4036 O   0  0  0  0  0  0  0  0  0  0  0  0
   -5.4918   -6.2191    5.6827 C   0  0  2  0  0  0  0  0  0  0  0  0
   -6.5824   -5.4049    6.0948 O   0  0  0  0  0  0  0  0  0  0  0  0
   -4.3835   -5.3481    5.0981 C   0  0  1  0  0  0  0  0  0  0  0  0
   -4.8556   -4.7009    3.9006 O   0  0  0  0  0  0  0  0  0  0  0  0
   -3.9009   -4.2711    6.0538 C   0  0  0  0  0  0  0  0  0  0  0  0
   -2.9975   -4.8173    7.0908 N   0  3  0  0  0  0  0  0  0  0  0  0
    3.4082   -0.0238    1.6430 C   0  0  0  0  0  0  0  0  0  0  0  0
    0.4134   -1.8132    0.3955 C   0  0  2  0  0  0  0  0  0  0  0  0
    0.6077   -3.1888    1.0287 C   0  0  2  0  0  0  0  0  0  0  0  0
   -0.6773   -3.9274    1.0558 N   0  3  0  0  0  0  0  0  0  0  0  0
    1.1355   -3.0426    2.4496 C   0  0  1  0  0  0  0  0  0  0  0  0
    1.3852   -4.3272    2.9992 O   0  0  0  0  0  0  0  0  0  0  0  0
    2.4209   -2.2184    2.4350 C   0  0  2  0  0  0  0  0  0  0  0  0
    2.8827   -2.0187    3.7648 O   0  0  0  0  0  0  0  0  0  0  0  0
    3.0836    1.3976    1.3837 N   0  3  0  0  0  0  0  0  0  0  0  0
    2.1522   -0.8675    1.7747 C   0  0  2  0  0  0  0  0  0  0  0  0
    1.6226   -1.0609    0.4474 O   0  0  0  0  0  0  0  0  0  0  0  0
   -2.9337    2.0739   -0.5319 C   0  0  2  0  0  0  0  0  0  0  0  0
   -3.8260    2.8525   -1.4212 N   0  3  0  0  0  0  0  0  0  0  0  0
   -1.7045    1.6089   -1.3045 C   0  0  0  0  0  0  0  0  0  0  0  0
   -0.7787    0.8046   -0.4028 C   0  0  2  0  0  0  0  0  0  0  0  0
    0.3706    0.3935   -1.1967 N   0  3  0  0  0  0  0  0  0  0  0  0
   -1.5212   -0.4098    0.1499 C   0  0  1  0  0  0  0  0  0  0  0  0
   -0.6470   -1.1498    1.0243 O   0  0  0  0  0  0  0  0  0  0  0  0
   -2.7721    0.0240    0.9265 C   0  0  2  0  0  0  0  0  0  0  0  0
   -3.5036   -1.1446    1.3437 O   0  0  0  0  0  0  0  0  0  0  0  0
   -3.6905    0.8898    0.0677 C   0  0  1  0  0  0  0  0  0  0  0  0
   -4.7684    1.3693    0.8606 O   0  0  0  0  0  0  0  0  0  0  0  0
  1  2  1  0  0  0  0
  3  2  1  1  0  0  0
  3  5  1  0  0  0  0
  3  4  1  0  0  0  0
  4  9  1  0  0  0  0
  5  7  1  0  0  0  0
  5  6  1  6  0  0  0
  7  9  1  0  0  0  0
  7  8  1  6  0  0  0
  9 40  1  1  0  0  0
 10  6  1  6  0  0  0
 10 11  1  0  0  0  0
 10 18  1  0  0  0  0
 11 13  1  0  0  0  0
 11 12  1  1  0  0  0
 13 15  1  0  0  0  0
 13 14  1  6  0  0  0
 15 17  1  0  0  0  0
 15 16  1  6  0  0  0
 17 19  1  1  0  0  0
 17 18  1  0  0  0  0
 19 20  1  0  0  0  0
 21 29  1  0  0  0  0
 22 23  1  0  0  0  0
 22 31  1  0  0  0  0
 22 38  1  1  0  0  0
 23 25  1  0  0  0  0
 23 24  1  1  0  0  0
 25 27  1  0  0  0  0
 25 26  1  6  0  0  0
 27 30  1  0  0  0  0
 27 28  1  1  0  0  0
 30 21  1  6  0  0  0
 30 31  1  0  0  0  0
 32 34  1  0  0  0  0
 32 41  1  0  0  0  0
 32 33  1  6  0  0  0
 34 35  1  0  0  0  0
 35 37  1  0  0  0  0
 35 36  1  6  0  0  0
 37 39  1  0  0  0  0
 37 38  1  1  0  0  0
 39 41  1  0  0  0  0
 39 40  1  6  0  0  0
 41 42  1  1  0  0  0
M  CHG  6  12   1  20   1  24   1  29   1  33   1  36   1
M  END
>  <CHROM.1>
-166.96891468,158.90212078,-150.56323997,147.05769518,129.10555372,-105.38355564
47.38838232,63.70599655,67.83477407,77.60151525,177.39065890,-163.19378433
42.11497683,-139.53478908,-61.01987921,-63.85967127,60.09190373,-101.39964860
162.63538430,-69.55214257,-64.61669777,-56.08651695,-2.76577035,-2.54933106
1.89823105,2.37746525,0.14681156,2.45082609

>  <Name>
1NEM.B

>  <RI>
0

>  <Rbt.Current_Directory>
/home/itssahil/PROJECTS/Mol_Feturizer/New_Systems/rnas/1nem

>  <Rbt.Executable>
rbdock ($Id: //depot/dev/client3/rdock/2013.1/src/exe/rbdock.cxx#4 $)

>  <Rbt.Library>
libRbt.so (2013.1, Build901 2013/11/27)

>  <Rbt.Parameter_File>
/export/apps/rDock/src/rDock_2013.1_src/data/scripts/dock_solv.prm

>  <Rbt.Receptor>
prm/blind_docking_40.prm

>  <SCORE>
-37.1346

>  <SCORE.INTER>
-52.97

>  <SCORE.INTER.CONST>
1

>  <SCORE.INTER.POLAR>
-7.46625

>  <SCORE.INTER.ROT>
9

>  <SCORE.INTER.SOLV>
37.452

>  <SCORE.INTER.VDW>
-32.5098

>  <SCORE.INTER.norm>
-1.26119

>  <SCORE.INTRA>
9.87035

>  <SCORE.INTRA.DIHEDRAL>
13.2908

>  <SCORE.INTRA.DIHEDRAL.0>
22.4324

>  <SCORE.INTRA.POLAR>
-0.864875

>  <SCORE.INTRA.POLAR.0>
-1.83749

>  <SCORE.INTRA.REPUL>
0.00209394

>  <SCORE.INTRA.REPUL.0>
0

>  <SCORE.INTRA.SOLV>
0.952354

>  <SCORE.INTRA.SOLV.lig_0>
-160.638

>  <SCORE.INTRA.VDW>
5.67886

>  <SCORE.INTRA.VDW.0>
-7.61953

>  <SCORE.INTRA.norm>
0.235008

>  <SCORE.RESTR>
5.96509

>  <SCORE.RESTR.CAVITY>
5.96509

>  <SCORE.RESTR.norm>
0.142026

>  <SCORE.SYSTEM>
0

>  <SCORE.SYSTEM.CONST>
0

>  <SCORE.SYSTEM.DIHEDRAL>
0

>  <SCORE.SYSTEM.SOLV>
0

>  <SCORE.SYSTEM.norm>
0

>  <SCORE.heavy>
42

>  <SCORE.norm>
-0.884156

>  <RMSD>
8.197

$$$$
1NEM.B
 OpenBabel11021811403D
libRbt.so/2013.1/901 2013/11/27
 42 45  0  0  0  0  0  0  0  0999 V2000
   -6.6800   -0.7532    3.5971 O   0  0  0  0  0  0  0  0  0  0  0  0
   -5.8229   -1.0247    2.4864 C   0  0  0  0  0  0  0  0  0  0  0  0
   -4.9145   -2.2323    2.7129 C   0  0  1  0  0  0  0  0  0  0  0  0
   -3.9731   -2.3604    1.6514 O   0  0  0  0  0  0  0  0  0  0  0  0
   -4.0328   -2.1401    3.9482 C   0  0  1  0  0  0  0  0  0  0  0  0
   -4.8787   -2.3126    5.0875 O   0  0  0  0  0  0  0  0  0  0  0  0
   -3.0734   -3.2744    3.6399 C   0  0  1  0  0  0  0  0  0  0  0  0
   -3.7024   -4.5564    3.7398 O   0  0  0  0  0  0  0  0  0  0  0  0
   -2.7785   -2.9436    2.1722 C   0  0  2  0  0  0  0  0  0  0  0  0
   -4.3577   -3.0817    6.1337 C   0  0  2  0  0  0  0  0  0  0  0  0
   -5.3197   -4.2376    6.4397 C   0  0  2  0  0  0  0  0  0  0  0  0
   -6.6894   -3.7117    6.6799 N   0  3  0  0  0  0  0  0  0  0  0  0
   -4.8159   -5.0671    7.6253 C   0  0  1  0  0  0  0  0  0  0  0  0
   -3.6636   -5.8035    7.2377 O   0  0  0  0  0  0  0  0  0  0  0  0
   -4.4757   -4.1723    8.8212 C   0  0  2  0  0  0  0  0  0  0  0  0
   -5.6600   -3.6037    9.3653 O   0  0  0  0  0  0  0  0  0  0  0  0
   -3.5222   -3.0658    8.3794 C   0  0  1  0  0  0  0  0  0  0  0  0
   -4.1173   -2.3126    7.3049 O   0  0  0  0  0  0  0  0  0  0  0  0
   -3.1727   -2.0957    9.4942 C   0  0  0  0  0  0  0  0  0  0  0  0
   -2.1324   -2.6406   10.3947 N   0  3  0  0  0  0  0  0  0  0  0  0
   -0.8809    3.9493    0.5107 C   0  0  0  0  0  0  0  0  0  0  0  0
   -2.1129    0.4553    0.5394 C   0  0  2  0  0  0  0  0  0  0  0  0
   -3.3854    0.5853   -0.2942 C   0  0  2  0  0  0  0  0  0  0  0  0
   -3.8013   -0.7422   -0.8063 N   0  3  0  0  0  0  0  0  0  0  0  0
   -3.1503    1.5274   -1.4674 C   0  0  1  0  0  0  0  0  0  0  0  0
   -4.3603    1.7006   -2.1888 O   0  0  0  0  0  0  0  0  0  0  0  0
   -2.6502    2.8740   -0.9491 C   0  0  2  0  0  0  0  0  0  0  0  0
   -2.3623    3.7364   -2.0422 O   0  0  0  0  0  0  0  0  0  0  0  0
    0.4670    3.7736    1.0984 N   0  3  0  0  0  0  0  0  0  0  0  0
   -1.3887    2.6617   -0.1144 C   0  0  2  0  0  0  0  0  0  0  0  0
   -1.6547    1.7375    0.9602 O   0  0  0  0  0  0  0  0  0  0  0  0
    1.6226   -3.2090    1.0697 C   0  0  2  0  0  0  0  0  0  0  0  0
    2.6644   -3.9019    1.8622 N   0  3  0  0  0  0  0  0  0  0  0  0
    2.1625   -1.8832    0.5454 C   0  0  0  0  0  0  0  0  0  0  0  0
    1.1009   -1.1583   -0.2699 C   0  0  2  0  0  0  0  0  0  0  0  0
    1.6774    0.0931   -0.7406 N   0  3  0  0  0  0  0  0  0  0  0  0
   -0.1294   -0.8993    0.5966 C   0  0  1  0  0  0  0  0  0  0  0  0
   -1.1398   -0.2384   -0.1900 O   0  0  0  0  0  0  0  0  0  0  0  0
   -0.6929   -2.2156    1.1495 C   0  0  2  0  0  0  0  0  0  0  0  0
   -1.7852   -1.9287    2.0436 O   0  0  0  0  0  0  0  0  0  0  0  0
    0.3689   -2.9991    1.9172 C   0  0  1  0  0  0  0  0  0  0  0  0
   -0.1590   -4.2614    2.3025 O   0  0  0  0  0  0  0  0  0  0  0  0
  1  2  1  0  0  0  0
  3  2  1  6  0  0  0
  3  5  1  0  0  0  0
  3  4  1  0  0  0  0
  4  9  1  0  0  0  0
  5  7  1  0  0  0  0
  5  6  1  1  0  0  0
  7  9  1  0  0  0  0
  7  8  1  6  0  0  0
  9 40  1  1  0  0  0
 10  6  1  6  0  0  0
 10 11  1  0  0  0  0
 10 18  1  0  0  0  0
 11 13  1  0  0  0  0
 11 12  1  1  0  0  0
 13 15  1  0  0  0  0
 13 14  1  6  0  0  0
 15 17  1  0  0  0  0
 15 16  1  6  0  0  0
 17 19  1  1  0  0  0
 17 18  1  0  0  0  0
 19 20  1  0  0  0  0
 21 29  1  0  0  0  0
 22 23  1  0  0  0  0
 22 31  1  0  0  0  0
 22 38  1  6  0  0  0
 23 25  1  0  0  0  0
 23 24  1  6  0  0  0
 25 27  1  0  0  0  0
 25 26  1  1  0  0  0
 27 30  1  0  0  0  0
 27 28  1  6  0  0  0
 30 21  1  1  0  0  0
 30 31  1  0  0  0  0
 32 34  1  0  0  0  0
 32 41  1  0  0  0  0
 32 33  1  1  0  0  0
 34 35  1  0  0  0  0
 35 37  1  0  0  0  0
 35 36  1  1  0  0  0
 37 39  1  0  0  0  0
 37 38  1  6  0  0  0
 39 41  1  0  0  0  0
 39 40  1  1  0  0  0
 41 42  1  6  0  0  0
M  CHG  6  12   1  20   1  24   1  29   1  33   1  36   1
M  END
>  <CHROM.1>
59.63088790,-172.93414679,140.28278458,-124.11812295,-172.43238283,-115.63771189
40.35680949,-59.08215687,163.66968244,79.78771975,-58.56754857,-169.35285652
-177.72382940,-156.01606268,168.62914740,70.28916879,55.18966100,-147.09891252
-57.07996920,-159.33687037,152.72438344,63.65646566,-2.56711491,-1.46728207
2.93519789,1.93825164,-0.38856017,2.25048950

>  <Name>
1NEM.B

>  <RI>
0

>  <Rbt.Current_Directory>
/home/itssahil/PROJECTS/Mol_Feturizer/New_Systems/rnas/1nem

>  <Rbt.Executable>
rbdock ($Id: //depot/dev/client3/rdock/2013.1/src/exe/rbdock.cxx#4 $)

>  <Rbt.Library>
libRbt.so (2013.1, Build901 2013/11/27)

>  <Rbt.Parameter_File>
/export/apps/rDock/src/rDock_2013.1_src/data/scripts/dock_solv.prm

>  <Rbt.Receptor>
prm/pocket_docking_7.prm

>  <SCORE>
-43.8361

>  <SCORE.INTER>
-48.1793

>  <SCORE.INTER.CONST>
1

>  <SCORE.INTER.POLAR>
-6.56353

>  <SCORE.INTER.ROT>
9

>  <SCORE.INTER.SOLV>
30.196

>  <SCORE.INTER.VDW>
-29.9064

>  <SCORE.INTER.norm>
-1.14713

>  <SCORE.INTRA>
3.98169

>  <SCORE.INTRA.DIHEDRAL>
12.1745

>  <SCORE.INTRA.DIHEDRAL.0>
22.4324

>  <SCORE.INTRA.POLAR>
-0.457157

>  <SCORE.INTRA.POLAR.0>
-1.83749

>  <SCORE.INTRA.REPUL>
0

>  <SCORE.INTRA.REPUL.0>
0

>  <SCORE.INTRA.SOLV>
-4.2581

>  <SCORE.INTRA.SOLV.lig_0>
-160.638

>  <SCORE.INTRA.VDW>
1.57783

>  <SCORE.INTRA.VDW.0>
-7.61953

>  <SCORE.INTRA.norm>
0.094802

>  <SCORE.RESTR>
0.36152

>  <SCORE.RESTR.CAVITY>
0.36152

>  <SCORE.RESTR.norm>
0.00860763

>  <SCORE.SYSTEM>
0

>  <SCORE.SYSTEM.CONST>
0

>  <SCORE.SYSTEM.DIHEDRAL>
0

>  <SCORE.SYSTEM.SOLV>
0

>  <SCORE.SYSTEM.norm>
0

>  <SCORE.heavy>
42

>  <SCORE.norm>
-1.04372

>  <RMSD>
8.210

$$$$
1NEM.B
 OpenBabel11021811403D
libRbt.so/2013.1/901 2013/11/27
 42 45  0  0  0  0  0  0  0  0999 V2000
   -5.4416    0.8939   -0.7480 O   0  0  0  0  0  0  0  0  0  0  0  0
   -4.5835    0.8434    0.3936 C   0  0  0  0  0  0  0  0  0  0  0  0
   -3.4556   -0.1773    0.2496 C   0  0  1  0  0  0  0  0  0  0  0  0
   -2.4464    0.3083   -0.6310 O   0  0  0  0  0  0  0  0  0  0  0  0
   -2.6891   -0.4609    1.5316 C   0  0  1  0  0  0  0  0  0  0  0  0
   -3.5462   -1.2314    2.3772 O   0  0  0  0  0  0  0  0  0  0  0  0
   -1.4949   -1.1849    0.9387 C   0  0  1  0  0  0  0  0  0  0  0  0
   -1.8434   -2.4778    0.4327 O   0  0  0  0  0  0  0  0  0  0  0  0
   -1.1890   -0.2289   -0.2202 C   0  0  2  0  0  0  0  0  0  0  0  0
   -3.9422   -2.4793    1.8842 C   0  0  2  0  0  0  0  0  0  0  0  0
   -5.1364   -2.2938    0.9382 C   0  0  2  0  0  0  0  0  0  0  0  0
   -6.2126   -1.5268    1.6192 N   0  3  0  0  0  0  0  0  0  0  0  0
   -5.6422   -3.6466    0.4267 C   0  0  1  0  0  0  0  0  0  0  0  0
   -4.6959   -4.1991   -0.4787 O   0  0  0  0  0  0  0  0  0  0  0  0
   -5.8767   -4.6226    1.5838 C   0  0  2  0  0  0  0  0  0  0  0  0
   -6.9794   -4.1962    2.3739 O   0  0  0  0  0  0  0  0  0  0  0  0
   -4.6204   -4.7078    2.4460 C   0  0  1  0  0  0  0  0  0  0  0  0
   -4.2686   -3.3942    2.9222 O   0  0  0  0  0  0  0  0  0  0  0  0
   -4.7822   -5.6158    3.6524 C   0  0  0  0  0  0  0  0  0  0  0  0
   -5.7067   -5.0422    4.6554 N   0  3  0  0  0  0  0  0  0  0  0  0
    0.1210    4.2528    1.5976 C   0  0  0  0  0  0  0  0  0  0  0  0
    2.9686    1.9253    1.1495 C   0  0  2  0  0  0  0  0  0  0  0  0
    3.5889    1.9476    2.5444 C   0  0  2  0  0  0  0  0  0  0  0  0
    4.4514    0.7581    2.7416 N   0  3  0  0  0  0  0  0  0  0  0  0
    2.4959    1.9593    3.6047 C   0  0  1  0  0  0  0  0  0  0  0  0
    3.0834    2.0584    4.8929 O   0  0  0  0  0  0  0  0  0  0  0  0
    1.5607    3.1416    3.3614 C   0  0  2  0  0  0  0  0  0  0  0  0
    0.4977    3.1200    4.3054 O   0  0  0  0  0  0  0  0  0  0  0  0
   -0.6814    4.0025    0.3784 N   0  3  0  0  0  0  0  0  0  0  0  0
    0.9936    3.0594    1.9454 C   0  0  2  0  0  0  0  0  0  0  0  0
    2.0669    3.0163    0.9831 O   0  0  0  0  0  0  0  0  0  0  0  0
    1.2768    1.4726   -3.1064 C   0  0  2  0  0  0  0  0  0  0  0  0
    0.8044    1.2572   -4.4934 N   0  3  0  0  0  0  0  0  0  0  0  0
    2.4943    0.5981   -2.8288 C   0  0  0  0  0  0  0  0  0  0  0  0
    2.9898    0.8075   -1.4048 C   0  0  2  0  0  0  0  0  0  0  0  0
    4.1489   -0.0508   -1.2052 N   0  3  0  0  0  0  0  0  0  0  0  0
    1.8798    0.4624   -0.4148 C   0  0  1  0  0  0  0  0  0  0  0  0
    2.3473    0.6902    0.9291 O   0  0  0  0  0  0  0  0  0  0  0  0
    0.6333    1.3200   -0.6737 C   0  0  2  0  0  0  0  0  0  0  0  0
   -0.4268    0.8985    0.2056 O   0  0  0  0  0  0  0  0  0  0  0  0
    0.1505    1.1828   -2.1155 C   0  0  1  0  0  0  0  0  0  0  0  0
   -0.9245    2.0843   -2.3437 O   0  0  0  0  0  0  0  0  0  0  0  0
  1  2  1  0  0  0  0
  3  2  1  1  0  0  0
  3  5  1  0  0  0  0
  3  4  1  0  0  0  0
  4  9  1  0  0  0  0
  5  7  1  0  0  0  0
  5  6  1  1  0  0  0
  7  9  1  0  0  0  0
  7  8  1  6  0  0  0
  9 40  1  1  0  0  0
 10  6  1  1  0  0  0
 10 11  1  0  0  0  0
 10 18  1  0  0  0  0
 11 13  1  0  0  0  0
 11 12  1  1  0  0  0
 13 15  1  0  0  0  0
 13 14  1  6  0  0  0
 15 17  1  0  0  0  0
 15 16  1  1  0  0  0
 17 19  1  1  0  0  0
 17 18  1  0  0  0  0
 19 20  1  0  0  0  0
 21 29  1  0  0  0  0
 22 23  1  0  0  0  0
 22 31  1  0  0  0  0
 22 38  1  1  0  0  0
 23 25  1  0  0  0  0
 23 24  1  1  0  0  0
 25 27  1  0  0  0  0
 25 26  1  1  0  0  0
 27 30  1  0  0  0  0
 27 28  1  1  0  0  0
 30 21  1  6  0  0  0
 30 31  1  0  0  0  0
 32 34  1  0  0  0  0
 32 41  1  0  0  0  0
 32 33  1  6  0  0  0
 34 35  1  0  0  0  0
 35 37  1  0  0  0  0
 35 36  1  1  0  0  0
 37 39  1  0  0  0  0
 37 38  1  1  0  0  0
 39 41  1  0  0  0  0
 39 40  1  1  0  0  0
 41 42  1  6  0  0  0
M  CHG  6  12   1  20   1  24   1  29   1  33   1  36   1
M  END
>  <CHROM.1>
-66.84090197,75.27074630,61.79092143,-82.60581771,-168.50416071,-106.62192613
41.59349897,-74.07310728,71.45456727,-69.37675796,170.53850114,-165.75622753
30.85512202,-171.78394168,63.38391672,60.52988847,176.59225020,56.56614359
37.25476183,48.56598189,-82.95380003,172.75840974,-1.17595000,-0.13351816
0.87521915,2.91007043,0.59414812,1.73741860

>  <Name>
1NEM.B

>  <RI>
0

>  <Rbt.Current_Directory>
/home/itssahil/PROJECTS/Mol_Feturizer/New_Systems/rnas/1nem

>  <Rbt.Executable>
rbdock ($Id: //depot/dev/client3/rdock/2013.1/src/exe/rbdock.cxx#4 $)

>  <Rbt.Library>
libRbt.so (2013.1, Build901 2013/11/27)

>  <Rbt.Parameter_File>
/export/apps/rDock/src/rDock_2013.1_src/data/scripts/dock_solv.prm

>  <Rbt.Receptor>
prm/pocket_docking_5.prm

>  <SCORE>
-31.2268

>  <SCORE.INTER>
-34.2544

>  <SCORE.INTER.CONST>
1

>  <SCORE.INTER.POLAR>
-4.74891

>  <SCORE.INTER.ROT>
9

>  <SCORE.INTER.SOLV>
26.0117

>  <SCORE.INTER.VDW>
-25.2772

>  <SCORE.INTER.norm>
-0.815582

>  <SCORE.INTRA>
3.02763

>  <SCORE.INTRA.DIHEDRAL>
-1.36604

>  <SCORE.INTRA.DIHEDRAL.0>
22.4324

>  <SCORE.INTRA.POLAR>
-1.51881

>  <SCORE.INTRA.POLAR.0>
-1.83749

>  <SCORE.INTRA.REPUL>
0

>  <SCORE.INTRA.REPUL.0>
0

>  <SCORE.INTRA.SOLV>
3.23595

>  <SCORE.INTRA.SOLV.lig_0>
-160.638

>  <SCORE.INTRA.VDW>
7.25664

>  <SCORE.INTRA.VDW.0>
-7.61953

>  <SCORE.INTRA.norm>
0.0720863

>  <SCORE.RESTR>
0

>  <SCORE.RESTR.CAVITY>
0

>  <SCORE.RESTR.norm>
0

>  <SCORE.SYSTEM>
0

>  <SCORE.SYSTEM.CONST>
0

>  <SCORE.SYSTEM.DIHEDRAL>
0

>  <SCORE.SYSTEM.SOLV>
0

>  <SCORE.SYSTEM.norm>
0

>  <SCORE.heavy>
42

>  <SCORE.norm>
-0.743496

>  <RMSD>
8.230

$$$$
1NEM.B
 OpenBabel11021811403D
libRbt.so/2013.1/901 2013/11/27
 42 45  0  0  0  0  0  0  0  0999 V2000
   -0.2670    0.8270   -2.7137 O   0  0  0  0  0  0  0  0  0  0  0  0
   -0.5177    0.3075   -1.4062 C   0  0  0  0  0  0  0  0  0  0  0  0
    0.7465   -0.1920   -0.7083 C   0  0  1  0  0  0  0  0  0  0  0  0
    1.6422    0.8867   -0.4563 O   0  0  0  0  0  0  0  0  0  0  0  0
    0.5171   -0.7817    0.6742 C   0  0  1  0  0  0  0  0  0  0  0  0
   -0.1231   -2.0471    0.4953 O   0  0  0  0  0  0  0  0  0  0  0  0
    1.9541   -0.8131    1.1600 C   0  0  1  0  0  0  0  0  0  0  0  0
    2.7354   -1.7963    0.4730 O   0  0  0  0  0  0  0  0  0  0  0  0
    2.3809    0.5954    0.7303 C   0  0  2  0  0  0  0  0  0  0  0  0
   -1.3213   -2.2379    1.1917 C   0  0  2  0  0  0  0  0  0  0  0  0
   -1.0290   -2.9625    2.5127 C   0  0  2  0  0  0  0  0  0  0  0  0
   -0.2588   -4.2072    2.2525 N   0  3  0  0  0  0  0  0  0  0  0  0
   -2.3261   -3.2487    3.2764 C   0  0  1  0  0  0  0  0  0  0  0  0
   -2.8634   -2.0320    3.7780 O   0  0  0  0  0  0  0  0  0  0  0  0
   -3.3584   -3.9336    2.3755 C   0  0  2  0  0  0  0  0  0  0  0  0
   -2.9332   -5.2508    2.0498 O   0  0  0  0  0  0  0  0  0  0  0  0
   -3.5484   -3.1175    1.1000 C   0  0  1  0  0  0  0  0  0  0  0  0
   -2.2817   -2.9597    0.4317 O   0  0  0  0  0  0  0  0  0  0  0  0
   -4.5190   -3.7538    0.1207 C   0  0  0  0  0  0  0  0  0  0  0  0
   -4.9199   -2.8135   -0.9494 N   0  3  0  0  0  0  0  0  0  0  0  0
    7.4165   -0.0380    4.0962 C   0  0  0  0  0  0  0  0  0  0  0  0
    3.8659    1.0033    3.9068 C   0  0  2  0  0  0  0  0  0  0  0  0
    3.4258    0.8124    5.3563 C   0  0  2  0  0  0  0  0  0  0  0  0
    2.1932    1.5909    5.6251 N   0  3  0  0  0  0  0  0  0  0  0  0
    4.5272    1.2689    6.3036 C   0  0  1  0  0  0  0  0  0  0  0  0
    4.1375    1.0145    7.6445 O   0  0  0  0  0  0  0  0  0  0  0  0
    5.8199    0.5225    5.9816 C   0  0  2  0  0  0  0  0  0  0  0  0
    6.8708    0.9928    6.8159 O   0  0  0  0  0  0  0  0  0  0  0  0
    7.4510   -1.3750    4.7321 N   0  3  0  0  0  0  0  0  0  0  0  0
    6.1862    0.7474    4.5159 C   0  0  2  0  0  0  0  0  0  0  0  0
    5.0994    0.3321    3.6638 O   0  0  0  0  0  0  0  0  0  0  0  0
    3.5827    4.5465   -0.0165 C   0  0  2  0  0  0  0  0  0  0  0  0
    3.7007    4.9038   -1.4489 N   0  3  0  0  0  0  0  0  0  0  0  0
    4.9689    4.3596    0.5898 C   0  0  0  0  0  0  0  0  0  0  0  0
    4.8630    3.9895    2.0626 C   0  0  2  0  0  0  0  0  0  0  0  0
    6.2144    3.8275    2.5799 N   0  3  0  0  0  0  0  0  0  0  0  0
    4.0629    2.6980    2.2152 C   0  0  1  0  0  0  0  0  0  0  0  0
    3.9432    2.3700    3.6132 O   0  0  0  0  0  0  0  0  0  0  0  0
    2.6627    2.8495    1.6048 C   0  0  2  0  0  0  0  0  0  0  0  0
    1.9740    1.5862    1.6715 O   0  0  0  0  0  0  0  0  0  0  0  0
    2.7346    3.2859    0.1437 C   0  0  1  0  0  0  0  0  0  0  0  0
    1.4220    3.5334   -0.3426 O   0  0  0  0  0  0  0  0  0  0  0  0
  1  2  1  0  0  0  0
  3  2  1  1  0  0  0
  3  5  1  0  0  0  0
  3  4  1  0  0  0  0
  4  9  1  0  0  0  0
  5  7  1  0  0  0  0
  5  6  1  6  0  0  0
  7  9  1  0  0  0  0
  7  8  1  6  0  0  0
  9 40  1  1  0  0  0
 10  6  1  6  0  0  0
 10 11  1  0  0  0  0
 10 18  1  0  0  0  0
 11 13  1  0  0  0  0
 11 12  1  6  0  0  0
 13 15  1  0  0  0  0
 13 14  1  6  0  0  0
 15 17  1  0  0  0  0
 15 16  1  6  0  0  0
 17 19  1  6  0  0  0
 17 18  1  0  0  0  0
 19 20  1  0  0  0  0
 21 29  1  0  0  0  0
 22 23  1  0  0  0  0
 22 31  1  0  0  0  0
 22 38  1  1  0  0  0
 23 25  1  0  0  0  0
 23 24  1  1  0  0  0
 25 27  1  0  0  0  0
 25 26  1  1  0  0  0
 27 30  1  0  0  0  0
 27 28  1  1  0  0  0
 30 21  1  6  0  0  0
 30 31  1  0  0  0  0
 32 34  1  0  0  0  0
 32 41  1  0  0  0  0
 32 33  1  6  0  0  0
 34 35  1  0  0  0  0
 35 37  1  0  0  0  0
 35 36  1  6  0  0  0
 37 39  1  0  0  0  0
 37 38  1  1  0  0  0
 39 41  1  0  0  0  0
 39 40  1  6  0  0  0
 41 42  1  1  0  0  0
M  CHG  6  12   1  20   1  24   1  29   1  33   1  36   1
M  END
>  <CHROM.1>
161.61775857,65.11804510,-126.00057280,-95.36498787,59.38079060,-84.38574040
-62.38121089,-175.59251534,59.44639217,166.99526231,79.20195182,37.66639455
22.76942472,-167.10349103,68.17560769,56.02746123,71.53161093,-48.34267730
56.02982400,-149.36013334,-75.42610741,-61.13389051,1.82118418,0.10583193
2.08755448,3.06311839,0.62563593,2.24463104

>  <Name>
1NEM.B

>  <RI>
0

>  <Rbt.Current_Directory>
/home/itssahil/PROJECTS/Mol_Feturizer/New_Systems/rnas/1nem

>  <Rbt.Executable>
rbdock ($Id: //depot/dev/client3/rdock/2013.1/src/exe/rbdock.cxx#4 $)

>  <Rbt.Library>
libRbt.so (2013.1, Build901 2013/11/27)

>  <Rbt.Parameter_File>
/export/apps/rDock/src/rDock_2013.1_src/data/scripts/dock_solv.prm

>  <Rbt.Receptor>
prm/pocket_docking_7.prm

>  <SCORE>
-38.7087

>  <SCORE.INTER>
-47.6832

>  <SCORE.INTER.CONST>
1

>  <SCORE.INTER.POLAR>
-6.91495

>  <SCORE.INTER.ROT>
9

>  <SCORE.INTER.SOLV>
36.3126

>  <SCORE.INTER.VDW>
-30.4431

>  <SCORE.INTER.norm>
-1.13531

>  <SCORE.INTRA>
8.97447

>  <SCORE.INTRA.DIHEDRAL>
6.09048

>  <SCORE.INTRA.DIHEDRAL.0>
22.4324

>  <SCORE.INTRA.POLAR>
1.51749

>  <SCORE.INTRA.POLAR.0>
-1.83749

>  <SCORE.INTRA.REPUL>
0

>  <SCORE.INTRA.REPUL.0>
0

>  <SCORE.INTRA.SOLV>
-5.94484

>  <SCORE.INTRA.SOLV.lig_0>
-160.638

>  <SCORE.INTRA.VDW>
3.74219

>  <SCORE.INTRA.VDW.0>
-7.61953

>  <SCORE.INTRA.norm>
0.213678

>  <SCORE.RESTR>
0

>  <SCORE.RESTR.CAVITY>
0

>  <SCORE.RESTR.norm>
0

>  <SCORE.SYSTEM>
0

>  <SCORE.SYSTEM.CONST>
0

>  <SCORE.SYSTEM.DIHEDRAL>
0

>  <SCORE.SYSTEM.SOLV>
0

>  <SCORE.SYSTEM.norm>
0

>  <SCORE.heavy>
42

>  <SCORE.norm>
-0.921635

>  <RMSD>
8.230

$$$$
1NEM.B
 OpenBabel11021811403D
libRbt.so/2013.1/901 2013/11/27
 42 45  0  0  0  0  0  0  0  0999 V2000
   -0.0290   -5.6014    1.6244 O   0  0  0  0  0  0  0  0  0  0  0  0
   -0.6780   -4.7698    0.6604 C   0  0  0  0  0  0  0  0  0  0  0  0
   -2.2018   -4.8703    0.7127 C   0  0  1  0  0  0  0  0  0  0  0  0
   -2.6073   -5.9283    1.5763 O   0  0  0  0  0  0  0  0  0  0  0  0
   -2.8978   -3.6548    1.3041 C   0  0  1  0  0  0  0  0  0  0  0  0
   -2.8022   -2.6012    0.3429 O   0  0  0  0  0  0  0  0  0  0  0  0
   -4.2761   -4.2518    1.5186 C   0  0  1  0  0  0  0  0  0  0  0  0
   -4.9584   -4.4935    0.2836 O   0  0  0  0  0  0  0  0  0  0  0  0
   -3.8619   -5.5803    2.1622 C   0  0  2  0  0  0  0  0  0  0  0  0
   -3.8991   -1.7366    0.2618 C   0  0  2  0  0  0  0  0  0  0  0  0
   -3.4353   -0.3023    0.5499 C   0  0  2  0  0  0  0  0  0  0  0  0
   -2.7019   -0.2529    1.8421 N   0  3  0  0  0  0  0  0  0  0  0  0
   -4.6212    0.6677    0.5347 C   0  0  1  0  0  0  0  0  0  0  0  0
   -5.0923    0.8254   -0.7972 O   0  0  0  0  0  0  0  0  0  0  0  0
   -5.7600    0.1628    1.4261 C   0  0  2  0  0  0  0  0  0  0  0  0
   -5.3769    0.2162    2.7945 O   0  0  0  0  0  0  0  0  0  0  0  0
   -6.1166   -1.2701    1.0408 C   0  0  1  0  0  0  0  0  0  0  0  0
   -4.9481   -2.1064    1.1471 O   0  0  0  0  0  0  0  0  0  0  0  0
   -7.2045   -1.8719    1.9128 C   0  0  0  0  0  0  0  0  0  0  0  0
   -7.3832   -1.1168    3.1728 N   0  3  0  0  0  0  0  0  0  0  0  0
   -7.5382   -7.8611    5.6204 C   0  0  0  0  0  0  0  0  0  0  0  0
   -6.4915   -5.9674    2.6128 C   0  0  2  0  0  0  0  0  0  0  0  0
   -7.7576   -6.0423    1.7628 C   0  0  2  0  0  0  0  0  0  0  0  0
   -7.7444   -4.9810    0.7280 N   0  3  0  0  0  0  0  0  0  0  0  0
   -8.9901   -5.8747    2.6414 C   0  0  1  0  0  0  0  0  0  0  0  0
  -10.1607   -6.0237    1.8526 O   0  0  0  0  0  0  0  0  0  0  0  0
   -8.9701   -6.9199    3.7545 C   0  0  2  0  0  0  0  0  0  0  0  0
  -10.0815   -6.7263    4.6199 O   0  0  0  0  0  0  0  0  0  0  0  0
   -7.4799   -9.2186    5.0317 N   0  3  0  0  0  0  0  0  0  0  0  0
   -7.6712   -6.7937    4.5483 C   0  0  2  0  0  0  0  0  0  0  0  0
   -6.5370   -6.9250    3.6674 O   0  0  0  0  0  0  0  0  0  0  0  0
   -4.1842   -2.9916    6.3606 C   0  0  2  0  0  0  0  0  0  0  0  0
   -3.5402   -2.8593    7.6877 N   0  3  0  0  0  0  0  0  0  0  0  0
   -5.6718   -3.2786    6.5297 C   0  0  0  0  0  0  0  0  0  0  0  0
   -6.3469   -3.4193    5.1725 C   0  0  2  0  0  0  0  0  0  0  0  0
   -7.7590   -3.6896    5.4028 N   0  3  0  0  0  0  0  0  0  0  0  0
   -5.6962   -4.5550    4.3863 C   0  0  1  0  0  0  0  0  0  0  0  0
   -6.3218   -4.6632    3.0928 O   0  0  0  0  0  0  0  0  0  0  0  0
   -4.1930   -4.3014    4.2067 C   0  0  2  0  0  0  0  0  0  0  0  0
   -3.5923   -5.4368    3.5550 O   0  0  0  0  0  0  0  0  0  0  0  0
   -3.4980   -4.0894    5.5493 C   0  0  1  0  0  0  0  0  0  0  0  0
   -2.1388   -3.7362    5.3293 O   0  0  0  0  0  0  0  0  0  0  0  0
  1  2  1  0  0  0  0
  3  2  1  1  0  0  0
  3  5  1  0  0  0  0
  3  4  1  0  0  0  0
  4  9  1  0  0  0  0
  5  7  1  0  0  0  0
  5  6  1  6  0  0  0
  7  9  1  0  0  0  0
  7  8  1  6  0  0  0
  9 40  1  1  0  0  0
 10  6  1  1  0  0  0
 10 11  1  0  0  0  0
 10 18  1  0  0  0  0
 11 13  1  0  0  0  0
 11 12  1  1  0  0  0
 13 15  1  0  0  0  0
 13 14  1  6  0  0  0
 15 17  1  0  0  0  0
 15 16  1  1  0  0  0
 17 19  1  1  0  0  0
 17 18  1  0  0  0  0
 19 20  1  0  0  0  0
 21 29  1  0  0  0  0
 22 23  1  0  0  0  0
 22 31  1  0  0  0  0
 22 38  1  1  0  0  0
 23 25  1  0  0  0  0
 23 24  1  6  0  0  0
 25 27  1  0  0  0  0
 25 26  1  6  0  0  0
 27 30  1  0  0  0  0
 27 28  1  1  0  0  0
 30 21  1  1  0  0  0
 30 31  1  0  0  0  0
 32 34  1  0  0  0  0
 32 41  1  0  0  0  0
 32 33  1  1  0  0  0
 34 35  1  0  0  0  0
 35 37  1  0  0  0  0
 35 36  1  1  0  0  0
 37 39  1  0  0  0  0
 37 38  1  6  0  0  0
 39 41  1  0  0  0  0
 39 40  1  1  0  0  0
 41 42  1  6  0  0  0
M  CHG  6  12   1  20   1  24   1  29   1  33   1  36   1
M  END
>  <CHROM.1>
63.29941606,-8.98025471,144.70962590,121.07966720,-63.61100250,136.63115343
-47.15684036,-132.19099219,67.40796616,-17.47647922,-46.72456246,63.03430569
-0.20049971,147.70823307,160.66892142,49.23312446,-68.61305169,20.56392619
63.13991318,-142.40592841,73.94416237,168.43953127,-5.32430201,-3.92519523
2.82338082,-0.93126946,-0.01075116,2.59696593

>  <Name>
1NEM.B

>  <RI>
0

>  <Rbt.Current_Directory>
/home/itssahil/PROJECTS/Mol_Feturizer/New_Systems/rnas/1nem

>  <Rbt.Executable>
rbdock ($Id: //depot/dev/client3/rdock/2013.1/src/exe/rbdock.cxx#4 $)

>  <Rbt.Library>
libRbt.so (2013.1, Build901 2013/11/27)

>  <Rbt.Parameter_File>
/export/apps/rDock/src/rDock_2013.1_src/data/scripts/dock_solv.prm

>  <Rbt.Receptor>
prm/blind_docking_100.prm

>  <SCORE>
36.0386

>  <SCORE.INTER>
-8.31343

>  <SCORE.INTER.CONST>
1

>  <SCORE.INTER.POLAR>
-3.83758

>  <SCORE.INTER.ROT>
9

>  <SCORE.INTER.SOLV>
40.5272

>  <SCORE.INTER.VDW>
-15.8594

>  <SCORE.INTER.norm>
-0.197939

>  <SCORE.INTRA>
41.6404

>  <SCORE.INTRA.DIHEDRAL>
31.0267

>  <SCORE.INTRA.DIHEDRAL.0>
22.4324

>  <SCORE.INTRA.POLAR>
0.0466169

>  <SCORE.INTRA.POLAR.0>
-1.83749

>  <SCORE.INTRA.REPUL>
0.641779

>  <SCORE.INTRA.REPUL.0>
0

>  <SCORE.INTRA.SOLV>
10.9492

>  <SCORE.INTRA.SOLV.lig_0>
-160.638

>  <SCORE.INTRA.VDW>
17.2851

>  <SCORE.INTRA.VDW.0>
-7.61953

>  <SCORE.INTRA.norm>
0.991439

>  <SCORE.RESTR>
2.71161

>  <SCORE.RESTR.CAVITY>
2.71161

>  <SCORE.RESTR.norm>
0.0645621

>  <SCORE.SYSTEM>
0

>  <SCORE.SYSTEM.CONST>
0

>  <SCORE.SYSTEM.DIHEDRAL>
0

>  <SCORE.SYSTEM.SOLV>
0

>  <SCORE.SYSTEM.norm>
0

>  <SCORE.heavy>
42

>  <SCORE.norm>
0.858062

>  <RMSD>
8.235

$$$$
1NEM.B
 OpenBabel11021811403D
libRbt.so/2013.1/901 2013/11/27
 42 45  0  0  0  0  0  0  0  0999 V2000
    2.8169    0.7086   -2.8397 O   0  0  0  0  0  0  0  0  0  0  0  0
    1.8181    0.2201   -1.9420 C   0  0  0  0  0  0  0  0  0  0  0  0
    2.3921   -0.2484   -0.6057 C   0  0  1  0  0  0  0  0  0  0  0  0
    3.3080    0.7116   -0.0868 O   0  0  0  0  0  0  0  0  0  0  0  0
    1.3690   -0.3891    0.5100 C   0  0  1  0  0  0  0  0  0  0  0  0
    0.5788   -1.5440    0.2186 O   0  0  0  0  0  0  0  0  0  0  0  0
    2.3174   -0.4982    1.6892 C   0  0  1  0  0  0  0  0  0  0  0  0
    3.0314   -1.7389    1.6954 O   0  0  0  0  0  0  0  0  0  0  0  0
    3.2652    0.6550    1.3392 C   0  0  2  0  0  0  0  0  0  0  0  0
   -0.6202   -1.6683    0.9286 C   0  0  2  0  0  0  0  0  0  0  0  0
   -0.8038   -3.1296    1.3600 C   0  0  2  0  0  0  0  0  0  0  0  0
   -0.6857   -4.0283    0.1816 N   0  3  0  0  0  0  0  0  0  0  0  0
   -2.1396   -3.3204    2.0857 C   0  0  1  0  0  0  0  0  0  0  0  0
   -2.0845   -2.6937    3.3604 O   0  0  0  0  0  0  0  0  0  0  0  0
   -3.2985   -2.7331    1.2741 C   0  0  2  0  0  0  0  0  0  0  0  0
   -3.5131   -3.4981    0.0948 O   0  0  0  0  0  0  0  0  0  0  0  0
   -2.9856   -1.2855    0.9061 C   0  0  1  0  0  0  0  0  0  0  0  0
   -1.7439   -1.2276    0.1774 O   0  0  0  0  0  0  0  0  0  0  0  0
   -4.0612   -0.6388    0.0512 C   0  0  0  0  0  0  0  0  0  0  0  0
   -3.5193    0.4566   -0.7832 N   0  3  0  0  0  0  0  0  0  0  0  0
    5.8543   -1.1036    4.3158 C   0  0  0  0  0  0  0  0  0  0  0  0
    3.1982    1.4704    4.5329 C   0  0  2  0  0  0  0  0  0  0  0  0
    2.8362    1.3952    6.0142 C   0  0  2  0  0  0  0  0  0  0  0  0
    2.1354    2.6320    6.4346 N   0  3  0  0  0  0  0  0  0  0  0  0
    4.0945    1.2184    6.8536 C   0  0  1  0  0  0  0  0  0  0  0  0
    3.7387    1.0721    8.2198 O   0  0  0  0  0  0  0  0  0  0  0  0
    4.8591   -0.0137    6.3749 C   0  0  2  0  0  0  0  0  0  0  0  0
    6.0703   -0.1464    7.1077 O   0  0  0  0  0  0  0  0  0  0  0  0
    7.3289   -0.9719    4.3518 N   0  3  0  0  0  0  0  0  0  0  0  0
    5.1706    0.1269    4.8862 C   0  0  2  0  0  0  0  0  0  0  0  0
    3.9520    0.3261    4.1412 O   0  0  0  0  0  0  0  0  0  0  0  0
    5.5872    4.1445    0.6764 C   0  0  2  0  0  0  0  0  0  0  0  0
    6.3621    4.1956   -0.5847 N   0  3  0  0  0  0  0  0  0  0  0  0
    6.5116    3.8151    1.8430 C   0  0  0  0  0  0  0  0  0  0  0  0
    5.7277    3.7570    3.1466 C   0  0  2  0  0  0  0  0  0  0  0  0
    6.6640    3.4414    4.2163 N   0  3  0  0  0  0  0  0  0  0  0  0
    4.6363    2.6939    3.0471 C   0  0  1  0  0  0  0  0  0  0  0  0
    3.8812    2.6648    4.2740 O   0  0  0  0  0  0  0  0  0  0  0  0
    3.6922    2.9910    1.8738 C   0  0  2  0  0  0  0  0  0  0  0  0
    2.7405    1.9177    1.7436 O   0  0  0  0  0  0  0  0  0  0  0  0
    4.4583    3.1217    0.5597 C   0  0  1  0  0  0  0  0  0  0  0  0
    3.5652    3.5181   -0.4726 O   0  0  0  0  0  0  0  0  0  0  0  0
  1  2  1  0  0  0  0
  3  2  1  6  0  0  0
  3  5  1  0  0  0  0
  3  4  1  0  0  0  0
  4  9  1  0  0  0  0
  5  7  1  0  0  0  0
  5  6  1  6  0  0  0
  7  9  1  0  0  0  0
  7  8  1  6  0  0  0
  9 40  1  1  0  0  0
 10  6  1  6  0  0  0
 10 11  1  0  0  0  0
 10 18  1  0  0  0  0
 11 13  1  0  0  0  0
 11 12  1  6  0  0  0
 13 15  1  0  0  0  0
 13 14  1  1  0  0  0
 15 17  1  0  0  0  0
 15 16  1  6  0  0  0
 17 19  1  6  0  0  0
 17 18  1  0  0  0  0
 19 20  1  0  0  0  0
 21 29  1  0  0  0  0
 22 23  1  0  0  0  0
 22 31  1  0  0  0  0
 22 38  1  1  0  0  0
 23 25  1  0  0  0  0
 23 24  1  1  0  0  0
 25 27  1  0  0  0  0
 25 26  1  1  0  0  0
 27 30  1  0  0  0  0
 27 28  1  1  0  0  0
 30 21  1  6  0  0  0
 30 31  1  0  0  0  0
 32 34  1  0  0  0  0
 32 41  1  0  0  0  0
 32 33  1  6  0  0  0
 34 35  1  0  0  0  0
 35 37  1  0  0  0  0
 35 36  1  1  0  0  0
 37 39  1  0  0  0  0
 37 38  1  1  0  0  0
 39 41  1  0  0  0  0
 39 40  1  6  0  0  0
 41 42  1  6  0  0  0
M  CHG  6  12   1  20   1  24   1  29   1  33   1  36   1
M  END
>  <CHROM.1>
70.50276518,46.79624881,-164.69296834,-138.31288836,179.59011275,-85.11494048
75.27945878,62.86618823,-179.63078220,-153.96917113,-10.66378460,-93.12641208
-174.64287498,161.58243439,-19.83806203,-67.68112201,167.92994345,52.44651131
50.08050136,-157.67159289,-67.23337118,174.87544109,2.35266156,0.38121860
2.20887681,-2.88178914,0.59442409,1.88741270

>  <Name>
1NEM.B

>  <RI>
0

>  <Rbt.Current_Directory>
/home/itssahil/PROJECTS/Mol_Feturizer/New_Systems/rnas/1nem

>  <Rbt.Executable>
rbdock ($Id: //depot/dev/client3/rdock/2013.1/src/exe/rbdock.cxx#4 $)

>  <Rbt.Library>
libRbt.so (2013.1, Build901 2013/11/27)

>  <Rbt.Parameter_File>
/export/apps/rDock/src/rDock_2013.1_src/data/scripts/dock_solv.prm

>  <Rbt.Receptor>
prm/pocket_docking_4.prm

>  <SCORE>
-31.9344

>  <SCORE.INTER>
-41.0587

>  <SCORE.INTER.CONST>
1

>  <SCORE.INTER.POLAR>
-6.52157

>  <SCORE.INTER.ROT>
9

>  <SCORE.INTER.SOLV>
34.2543

>  <SCORE.INTER.VDW>
-26.652

>  <SCORE.INTER.norm>
-0.977589

>  <SCORE.INTRA>
8.30607

>  <SCORE.INTRA.DIHEDRAL>
6.2136

>  <SCORE.INTRA.DIHEDRAL.0>
22.4324

>  <SCORE.INTRA.POLAR>
1.18149

>  <SCORE.INTRA.POLAR.0>
-1.83749

>  <SCORE.INTRA.REPUL>
0.00503163

>  <SCORE.INTRA.REPUL.0>
0

>  <SCORE.INTRA.SOLV>
-6.23169

>  <SCORE.INTRA.SOLV.lig_0>
-160.638

>  <SCORE.INTRA.VDW>
4.27288

>  <SCORE.INTRA.VDW.0>
-7.61953

>  <SCORE.INTRA.norm>
0.197763

>  <SCORE.RESTR>
0.818237

>  <SCORE.RESTR.CAVITY>
0.818237

>  <SCORE.RESTR.norm>
0.0194818

>  <SCORE.SYSTEM>
0

>  <SCORE.SYSTEM.CONST>
0

>  <SCORE.SYSTEM.DIHEDRAL>
0

>  <SCORE.SYSTEM.SOLV>
0

>  <SCORE.SYSTEM.norm>
0

>  <SCORE.heavy>
42

>  <SCORE.norm>
-0.760344

>  <RMSD>
8.239

$$$$
1NEM.B
 OpenBabel11021811403D
libRbt.so/2013.1/901 2013/11/27
 42 45  0  0  0  0  0  0  0  0999 V2000
   -0.2100   -4.1328    3.1065 O   0  0  0  0  0  0  0  0  0  0  0  0
   -1.2285   -3.1515    2.9018 C   0  0  0  0  0  0  0  0  0  0  0  0
   -2.4076   -3.6748    2.0829 C   0  0  1  0  0  0  0  0  0  0  0  0
   -3.2584   -4.4866    2.8870 O   0  0  0  0  0  0  0  0  0  0  0  0
   -3.3466   -2.5980    1.5631 C   0  0  1  0  0  0  0  0  0  0  0  0
   -2.6646   -1.9112    0.5112 O   0  0  0  0  0  0  0  0  0  0  0  0
   -4.5122   -3.4779    1.1522 C   0  0  1  0  0  0  0  0  0  0  0  0
   -4.2078   -4.2767    0.0040 O   0  0  0  0  0  0  0  0  0  0  0  0
   -4.5957   -4.3609    2.4029 C   0  0  2  0  0  0  0  0  0  0  0  0
   -2.7968   -0.5186    0.4943 C   0  0  2  0  0  0  0  0  0  0  0  0
   -4.2844   -0.1504    0.5778 C   0  0  2  0  0  0  0  0  0  0  0  0
   -5.0457   -0.8580   -0.4852 N   0  3  0  0  0  0  0  0  0  0  0  0
   -4.4760    1.3675    0.4964 C   0  0  1  0  0  0  0  0  0  0  0  0
   -4.0061    1.9732    1.6934 O   0  0  0  0  0  0  0  0  0  0  0  0
   -3.7287    1.9554   -0.7046 C   0  0  2  0  0  0  0  0  0  0  0  0
   -4.3370    1.5346   -1.9191 O   0  0  0  0  0  0  0  0  0  0  0  0
   -2.2700    1.5081   -0.6705 C   0  0  1  0  0  0  0  0  0  0  0  0
   -2.2040    0.0689   -0.6566 O   0  0  0  0  0  0  0  0  0  0  0  0
   -1.4639    2.0027   -1.8586 C   0  0  0  0  0  0  0  0  0  0  0  0
   -1.4796    3.4789   -1.9607 N   0  3  0  0  0  0  0  0  0  0  0  0
   -7.9410   -4.3234    0.6138 C   0  0  0  0  0  0  0  0  0  0  0  0
   -7.3120   -5.9109    3.9018 C   0  0  2  0  0  0  0  0  0  0  0  0
   -8.3784   -7.0035    3.9097 C   0  0  2  0  0  0  0  0  0  0  0  0
   -8.0324   -8.0512    4.8997 N   0  3  0  0  0  0  0  0  0  0  0  0
   -8.4942   -7.6337    2.5282 C   0  0  1  0  0  0  0  0  0  0  0  0
   -9.5408   -8.5925    2.5285 O   0  0  0  0  0  0  0  0  0  0  0  0
   -8.7774   -6.5473    1.4931 C   0  0  2  0  0  0  0  0  0  0  0  0
   -8.8183   -7.1180    0.1915 O   0  0  0  0  0  0  0  0  0  0  0  0
   -8.3490   -3.1063    1.3521 N   0  3  0  0  0  0  0  0  0  0  0  0
   -7.6807   -5.4859    1.5558 C   0  0  2  0  0  0  0  0  0  0  0  0
   -7.5886   -4.9462    2.8899 O   0  0  0  0  0  0  0  0  0  0  0  0
   -4.0862   -4.4854    6.9393 C   0  0  2  0  0  0  0  0  0  0  0  0
   -3.0138   -3.8644    7.7503 N   0  3  0  0  0  0  0  0  0  0  0  0
   -3.7681   -5.9559    6.6932 C   0  0  0  0  0  0  0  0  0  0  0  0
   -4.8617   -6.6071    5.8581 C   0  0  2  0  0  0  0  0  0  0  0  0
   -4.5003   -8.0038    5.6612 N   0  3  0  0  0  0  0  0  0  0  0  0
   -4.9903   -5.8839    4.5196 C   0  0  1  0  0  0  0  0  0  0  0  0
   -6.0460   -6.4882    3.7471 O   0  0  0  0  0  0  0  0  0  0  0  0
   -5.3012   -4.3959    4.7323 C   0  0  2  0  0  0  0  0  0  0  0  0
   -5.3125   -3.7241    3.4583 O   0  0  0  0  0  0  0  0  0  0  0  0
   -4.2561   -3.7287    5.6229 C   0  0  1  0  0  0  0  0  0  0  0  0
   -4.6488   -2.3897    5.8938 O   0  0  0  0  0  0  0  0  0  0  0  0
  1  2  1  0  0  0  0
  3  2  1  1  0  0  0
  3  5  1  0  0  0  0
  3  4  1  0  0  0  0
  4  9  1  0  0  0  0
  5  7  1  0  0  0  0
  5  6  1  6  0  0  0
  7  9  1  0  0  0  0
  7  8  1  6  0  0  0
  9 40  1  1  0  0  0
 10  6  1  6  0  0  0
 10 11  1  0  0  0  0
 10 18  1  0  0  0  0
 11 13  1  0  0  0  0
 11 12  1  6  0  0  0
 13 15  1  0  0  0  0
 13 14  1  1  0  0  0
 15 17  1  0  0  0  0
 15 16  1  6  0  0  0
 17 19  1  6  0  0  0
 17 18  1  0  0  0  0
 19 20  1  0  0  0  0
 21 29  1  0  0  0  0
 22 23  1  0  0  0  0
 22 31  1  0  0  0  0
 22 38  1  6  0  0  0
 23 25  1  0  0  0  0
 23 24  1  1  0  0  0
 25 27  1  0  0  0  0
 25 26  1  1  0  0  0
 27 30  1  0  0  0  0
 27 28  1  6  0  0  0
 30 21  1  6  0  0  0
 30 31  1  0  0  0  0
 32 34  1  0  0  0  0
 32 41  1  0  0  0  0
 32 33  1  6  0  0  0
 34 35  1  0  0  0  0
 35 37  1  0  0  0  0
 35 36  1  6  0  0  0
 37 39  1  0  0  0  0
 37 38  1  6  0  0  0
 39 41  1  0  0  0  0
 39 40  1  6  0  0  0
 41 42  1  1  0  0  0
M  CHG  6  12   1  20   1  24   1  29   1  33   1  36   1
M  END
>  <CHROM.1>
54.90927862,77.59481940,-137.97376766,-50.98861677,75.43148364,-57.68835442
42.65565618,55.24364761,-168.85043179,58.03049311,-64.42467284,107.13115240
15.99550126,-141.38218592,40.61869657,-59.44206282,146.43496790,-58.74189299
58.57962380,92.10563875,-22.12785919,66.55130323,-4.85837921,-3.42204188
2.32368416,-1.05291785,0.61248950,2.28947170

>  <Name>
1NEM.B

>  <RI>
0

>  <Rbt.Current_Directory>
/home/itssahil/PROJECTS/Mol_Feturizer/New_Systems/rnas/1nem

>  <Rbt.Executable>
rbdock ($Id: //depot/dev/client3/rdock/2013.1/src/exe/rbdock.cxx#4 $)

>  <Rbt.Library>
libRbt.so (2013.1, Build901 2013/11/27)

>  <Rbt.Parameter_File>
/export/apps/rDock/src/rDock_2013.1_src/data/scripts/dock_solv.prm

>  <Rbt.Receptor>
prm/blind_docking_100.prm

>  <SCORE>
-28.5506

>  <SCORE.INTER>
-53.5727

>  <SCORE.INTER.CONST>
1

>  <SCORE.INTER.POLAR>
-8.28195

>  <SCORE.INTER.ROT>
9

>  <SCORE.INTER.SOLV>
37.5039

>  <SCORE.INTER.VDW>
-30.21

>  <SCORE.INTER.norm>
-1.27554

>  <SCORE.INTRA>
19.2605

>  <SCORE.INTRA.DIHEDRAL>
14.9832

>  <SCORE.INTRA.DIHEDRAL.0>
22.4324

>  <SCORE.INTRA.POLAR>
0.656817

>  <SCORE.INTRA.POLAR.0>
-1.83749

>  <SCORE.INTRA.REPUL>
0.0561183

>  <SCORE.INTRA.REPUL.0>
0

>  <SCORE.INTRA.SOLV>
0.241789

>  <SCORE.INTRA.SOLV.lig_0>
-160.638

>  <SCORE.INTRA.VDW>
9.13422

>  <SCORE.INTRA.VDW.0>
-7.61953

>  <SCORE.INTRA.norm>
0.458583

>  <SCORE.RESTR>
5.76165

>  <SCORE.RESTR.CAVITY>
5.76165

>  <SCORE.RESTR.norm>
0.137182

>  <SCORE.SYSTEM>
0

>  <SCORE.SYSTEM.CONST>
0

>  <SCORE.SYSTEM.DIHEDRAL>
0

>  <SCORE.SYSTEM.SOLV>
0

>  <SCORE.SYSTEM.norm>
0

>  <SCORE.heavy>
42

>  <SCORE.norm>
-0.679775

>  <RMSD>
8.246

$$$$
1NEM.B
 OpenBabel11021811403D
libRbt.so/2013.1/901 2013/11/27
 42 45  0  0  0  0  0  0  0  0999 V2000
   -5.5264   -2.7045   -0.9912 O   0  0  0  0  0  0  0  0  0  0  0  0
   -5.4180   -3.6798    0.0476 C   0  0  0  0  0  0  0  0  0  0  0  0
   -3.9707   -4.0190    0.4012 C   0  0  1  0  0  0  0  0  0  0  0  0
   -3.1288   -2.8842    0.2200 O   0  0  0  0  0  0  0  0  0  0  0  0
   -3.7437   -4.3893    1.8582 C   0  0  1  0  0  0  0  0  0  0  0  0
   -4.3058   -5.6882    2.0589 O   0  0  0  0  0  0  0  0  0  0  0  0
   -2.2299   -4.2945    1.8939 C   0  0  1  0  0  0  0  0  0  0  0  0
   -1.6048   -5.3471    1.1520 O   0  0  0  0  0  0  0  0  0  0  0  0
   -2.0583   -2.9583    1.1619 C   0  0  2  0  0  0  0  0  0  0  0  0
   -4.8151   -5.9512    3.3352 C   0  0  2  0  0  0  0  0  0  0  0  0
   -6.2793   -6.3950    3.2142 C   0  0  2  0  0  0  0  0  0  0  0  0
   -7.0529   -5.3946    2.4326 N   0  3  0  0  0  0  0  0  0  0  0  0
   -6.8938   -6.6304    4.5978 C   0  0  1  0  0  0  0  0  0  0  0  0
   -6.3306   -7.7995    5.1780 O   0  0  0  0  0  0  0  0  0  0  0  0
   -6.6534   -5.4318    5.5207 C   0  0  2  0  0  0  0  0  0  0  0  0
   -7.4004   -4.3071    5.0744 O   0  0  0  0  0  0  0  0  0  0  0  0
   -5.1658   -5.0926    5.5446 C   0  0  1  0  0  0  0  0  0  0  0  0
   -4.7060   -4.8314    4.2043 O   0  0  0  0  0  0  0  0  0  0  0  0
   -4.8419   -3.8777    6.3962 C   0  0  0  0  0  0  0  0  0  0  0  0
   -3.6673   -3.1394    5.8812 N   0  3  0  0  0  0  0  0  0  0  0  0
    3.8959    1.3695    1.6289 C   0  0  0  0  0  0  0  0  0  0  0  0
    1.2540   -0.8600    0.2959 C   0  0  2  0  0  0  0  0  0  0  0  0
    1.8098   -2.2316    0.6712 C   0  0  2  0  0  0  0  0  0  0  0  0
    0.7279   -3.2450    0.6572 N   0  3  0  0  0  0  0  0  0  0  0  0
    2.4366   -2.1823    2.0581 C   0  0  1  0  0  0  0  0  0  0  0  0
    3.0175   -3.4409    2.3631 O   0  0  0  0  0  0  0  0  0  0  0  0
    3.5014   -1.0885    2.0990 C   0  0  2  0  0  0  0  0  0  0  0  0
    4.0431   -0.9893    3.4098 O   0  0  0  0  0  0  0  0  0  0  0  0
    4.9819    1.0597    0.6709 N   0  3  0  0  0  0  0  0  0  0  0  0
    2.8761    0.2462    1.6978 C   0  0  2  0  0  0  0  0  0  0  0  0
    2.2675    0.1370    0.3950 O   0  0  0  0  0  0  0  0  0  0  0  0
   -3.6455    0.9541   -0.0727 C   0  0  2  0  0  0  0  0  0  0  0  0
   -4.9389    1.0873   -0.7817 N   0  3  0  0  0  0  0  0  0  0  0  0
   -2.4955    1.0082   -1.0720 C   0  0  0  0  0  0  0  0  0  0  0  0
   -1.1587    0.8701   -0.3570 C   0  0  2  0  0  0  0  0  0  0  0  0
   -0.1070    0.9309   -1.3622 N   0  3  0  0  0  0  0  0  0  0  0  0
   -1.1118   -0.4547    0.4008 C   0  0  1  0  0  0  0  0  0  0  0  0
    0.1448   -0.5649    1.0974 O   0  0  0  0  0  0  0  0  0  0  0  0
   -2.2646   -0.5456    1.4102 C   0  0  2  0  0  0  0  0  0  0  0  0
   -2.2533   -1.8451    2.0314 O   0  0  0  0  0  0  0  0  0  0  0  0
   -3.6176   -0.3440    0.7325 C   0  0  1  0  0  0  0  0  0  0  0  0
   -4.6416   -0.3120    1.7179 O   0  0  0  0  0  0  0  0  0  0  0  0
  1  2  1  0  0  0  0
  3  2  1  1  0  0  0
  3  5  1  0  0  0  0
  3  4  1  0  0  0  0
  4  9  1  0  0  0  0
  5  7  1  0  0  0  0
  5  6  1  6  0  0  0
  7  9  1  0  0  0  0
  7  8  1  6  0  0  0
  9 40  1  1  0  0  0
 10  6  1  6  0  0  0
 10 11  1  0  0  0  0
 10 18  1  0  0  0  0
 11 13  1  0  0  0  0
 11 12  1  1  0  0  0
 13 15  1  0  0  0  0
 13 14  1  1  0  0  0
 15 17  1  0  0  0  0
 15 16  1  6  0  0  0
 17 19  1  1  0  0  0
 17 18  1  0  0  0  0
 19 20  1  0  0  0  0
 21 29  1  0  0  0  0
 22 23  1  0  0  0  0
 22 31  1  0  0  0  0
 22 38  1  1  0  0  0
 23 25  1  0  0  0  0
 23 24  1  1  0  0  0
 25 27  1  0  0  0  0
 25 26  1  6  0  0  0
 27 30  1  0  0  0  0
 27 28  1  1  0  0  0
 30 21  1  6  0  0  0
 30 31  1  0  0  0  0
 32 34  1  0  0  0  0
 32 41  1  0  0  0  0
 32 33  1  6  0  0  0
 34 35  1  0  0  0  0
 35 37  1  0  0  0  0
 35 36  1  6  0  0  0
 37 39  1  0  0  0  0
 37 38  1  1  0  0  0
 39 41  1  0  0  0  0
 39 40  1  6  0  0  0
 41 42  1  1  0  0  0
M  CHG  6  12   1  20   1  24   1  29   1  33   1  36   1
M  END
>  <CHROM.1>
-158.79562136,32.03035440,-149.01788199,124.62273663,71.97619181,-58.55393698
-62.43320609,-178.02846460,59.43102555,-149.16495891,42.55343774,58.11929314
-55.83328893,-115.05571680,148.44905014,-59.95099371,-56.03623466,68.25395829
50.39863461,-75.00618155,-44.46053432,-172.39290451,-2.17134459,-2.50876800
1.87470033,2.53531060,0.16893301,2.38550485

>  <Name>
1NEM.B

>  <RI>
0

>  <Rbt.Current_Directory>
/home/itssahil/PROJECTS/Mol_Feturizer/New_Systems/rnas/1nem

>  <Rbt.Executable>
rbdock ($Id: //depot/dev/client3/rdock/2013.1/src/exe/rbdock.cxx#4 $)

>  <Rbt.Library>
libRbt.so (2013.1, Build901 2013/11/27)

>  <Rbt.Parameter_File>
/export/apps/rDock/src/rDock_2013.1_src/data/scripts/dock_solv.prm

>  <Rbt.Receptor>
prm/pocket_docking_4.prm

>  <SCORE>
-30.5473

>  <SCORE.INTER>
-45.7557

>  <SCORE.INTER.CONST>
1

>  <SCORE.INTER.POLAR>
-7.64148

>  <SCORE.INTER.ROT>
9

>  <SCORE.INTER.SOLV>
34.9299

>  <SCORE.INTER.VDW>
-26.2755

>  <SCORE.INTER.norm>
-1.08942

>  <SCORE.INTRA>
14.5857

>  <SCORE.INTRA.DIHEDRAL>
9.38223

>  <SCORE.INTRA.DIHEDRAL.0>
22.4324

>  <SCORE.INTRA.POLAR>
0.235157

>  <SCORE.INTRA.POLAR.0>
-1.83749

>  <SCORE.INTRA.REPUL>
0

>  <SCORE.INTRA.REPUL.0>
0

>  <SCORE.INTRA.SOLV>
4.73241

>  <SCORE.INTRA.SOLV.lig_0>
-160.638

>  <SCORE.INTRA.VDW>
6.72889

>  <SCORE.INTRA.VDW.0>
-7.61953

>  <SCORE.INTRA.norm>
0.34728

>  <SCORE.RESTR>
0.622687

>  <SCORE.RESTR.CAVITY>
0.622687

>  <SCORE.RESTR.norm>
0.0148259

>  <SCORE.SYSTEM>
0

>  <SCORE.SYSTEM.CONST>
0

>  <SCORE.SYSTEM.DIHEDRAL>
0

>  <SCORE.SYSTEM.SOLV>
0

>  <SCORE.SYSTEM.norm>
0

>  <SCORE.heavy>
42

>  <SCORE.norm>
-0.727317

>  <RMSD>
8.252

$$$$
1NEM.B
 OpenBabel11021811403D
libRbt.so/2013.1/901 2013/11/27
 42 45  0  0  0  0  0  0  0  0999 V2000
   -4.0923    2.5688    0.1846 O   0  0  0  0  0  0  0  0  0  0  0  0
   -3.8258    1.7635   -0.9654 C   0  0  0  0  0  0  0  0  0  0  0  0
   -2.3759    1.2868   -1.0391 C   0  0  1  0  0  0  0  0  0  0  0  0
   -1.4855    2.3951   -1.1304 O   0  0  0  0  0  0  0  0  0  0  0  0
   -1.8865    0.5505    0.1979 C   0  0  1  0  0  0  0  0  0  0  0  0
   -2.5164   -0.7327    0.2053 O   0  0  0  0  0  0  0  0  0  0  0  0
   -0.3966    0.5712   -0.0878 C   0  0  1  0  0  0  0  0  0  0  0  0
   -0.0439   -0.2839   -1.1803 O   0  0  0  0  0  0  0  0  0  0  0  0
   -0.2542    2.0410   -0.5001 C   0  0  2  0  0  0  0  0  0  0  0  0
   -3.7854   -0.7953    0.7909 C   0  0  2  0  0  0  0  0  0  0  0  0
   -3.6371   -0.8219    2.3182 C   0  0  2  0  0  0  0  0  0  0  0  0
   -2.7137   -1.9147    2.7224 N   0  3  0  0  0  0  0  0  0  0  0  0
   -5.0043   -0.9562    2.9966 C   0  0  1  0  0  0  0  0  0  0  0  0
   -5.7349    0.2533    2.8424 O   0  0  0  0  0  0  0  0  0  0  0  0
   -5.8046   -2.1192    2.4022 C   0  0  2  0  0  0  0  0  0  0  0  0
   -5.2021   -3.3604    2.7467 O   0  0  0  0  0  0  0  0  0  0  0  0
   -5.8688   -1.9752    0.8843 C   0  0  1  0  0  0  0  0  0  0  0  0
   -4.5338   -1.9188    0.3452 O   0  0  0  0  0  0  0  0  0  0  0  0
   -6.6008   -3.1190    0.2045 C   0  0  0  0  0  0  0  0  0  0  0  0
   -5.6653   -4.0732   -0.4312 N   0  3  0  0  0  0  0  0  0  0  0  0
    4.1871    0.0203   -0.5791 C   0  0  0  0  0  0  0  0  0  0  0  0
    2.1643    2.0396    1.7784 C   0  0  2  0  0  0  0  0  0  0  0  0
    2.7576    1.6097    3.1179 C   0  0  2  0  0  0  0  0  0  0  0  0
    2.4361    2.6078    4.1657 N   0  3  0  0  0  0  0  0  0  0  0  0
    4.2696    1.4699    3.0015 C   0  0  1  0  0  0  0  0  0  0  0  0
    4.7998    0.9955    4.2296 O   0  0  0  0  0  0  0  0  0  0  0  0
    4.6075    0.4982    1.8730 C   0  0  2  0  0  0  0  0  0  0  0  0
    6.0178    0.4151    1.7122 O   0  0  0  0  0  0  0  0  0  0  0  0
    3.5107   -1.2751   -0.3396 N   0  3  0  0  0  0  0  0  0  0  0  0
    3.9688    0.9848    0.5737 C   0  0  2  0  0  0  0  0  0  0  0  0
    2.5448    1.1335    0.7464 O   0  0  0  0  0  0  0  0  0  0  0  0
    0.7144    6.0835   -1.1970 C   0  0  2  0  0  0  0  0  0  0  0  0
    0.1786    6.6629   -2.4501 N   0  3  0  0  0  0  0  0  0  0  0  0
    2.2027    5.7921   -1.3524 C   0  0  0  0  0  0  0  0  0  0  0  0
    2.7671    5.1935   -0.0715 C   0  0  2  0  0  0  0  0  0  0  0  0
    4.1852    4.9411   -0.2843 N   0  3  0  0  0  0  0  0  0  0  0  0
    2.0282    3.9002    0.2644 C   0  0  1  0  0  0  0  0  0  0  0  0
    2.5489    3.3550    1.4924 O   0  0  0  0  0  0  0  0  0  0  0  0
    0.5227    4.1573    0.4180 C   0  0  2  0  0  0  0  0  0  0  0  0
   -0.1559    2.9047    0.6302 O   0  0  0  0  0  0  0  0  0  0  0  0
   -0.0607    4.8198   -0.8275 C   0  0  1  0  0  0  0  0  0  0  0  0
   -1.4232    5.1513   -0.5944 O   0  0  0  0  0  0  0  0  0  0  0  0
  1  2  1  0  0  0  0
  3  2  1  1  0  0  0
  3  5  1  0  0  0  0
  3  4  1  0  0  0  0
  4  9  1  0  0  0  0
  5  7  1  0  0  0  0
  5  6  1  6  0  0  0
  7  9  1  0  0  0  0
  7  8  1  6  0  0  0
  9 40  1  1  0  0  0
 10  6  1  6  0  0  0
 10 11  1  0  0  0  0
 10 18  1  0  0  0  0
 11 13  1  0  0  0  0
 11 12  1  6  0  0  0
 13 15  1  0  0  0  0
 13 14  1  6  0  0  0
 15 17  1  0  0  0  0
 15 16  1  6  0  0  0
 17 19  1  6  0  0  0
 17 18  1  0  0  0  0
 19 20  1  0  0  0  0
 21 29  1  0  0  0  0
 22 23  1  0  0  0  0
 22 31  1  0  0  0  0
 22 38  1  6  0  0  0
 23 25  1  0  0  0  0
 23 24  1  1  0  0  0
 25 27  1  0  0  0  0
 25 26  1  1  0  0  0
 27 30  1  0  0  0  0
 27 28  1  6  0  0  0
 30 21  1  6  0  0  0
 30 31  1  0  0  0  0
 32 34  1  0  0  0  0
 32 41  1  0  0  0  0
 32 33  1  6  0  0  0
 34 35  1  0  0  0  0
 35 37  1  0  0  0  0
 35 36  1  6  0  0  0
 37 39  1  0  0  0  0
 37 38  1  1  0  0  0
 39 41  1  0  0  0  0
 39 40  1  6  0  0  0
 41 42  1  1  0  0  0
M  CHG  6  12   1  20   1  24   1  29   1  33   1  36   1
M  END
>  <CHROM.1>
-63.44057582,-61.65232529,-85.91115971,-78.58570587,-59.53908410,-90.72455388
64.30417793,57.47509086,62.91965536,-103.05524550,-134.96470915,64.79255884
45.60034122,-178.57239905,-171.64241802,55.26318342,-177.76158266,179.91112860
165.09839218,-167.32085030,-72.12871885,63.33331606,-0.39664794,1.22502808
0.71678295,2.65172318,0.20812210,2.68131775

>  <Name>
1NEM.B

>  <RI>
0

>  <Rbt.Current_Directory>
/home/itssahil/PROJECTS/Mol_Feturizer/New_Systems/rnas/1nem

>  <Rbt.Executable>
rbdock ($Id: //depot/dev/client3/rdock/2013.1/src/exe/rbdock.cxx#4 $)

>  <Rbt.Library>
libRbt.so (2013.1, Build901 2013/11/27)

>  <Rbt.Parameter_File>
/export/apps/rDock/src/rDock_2013.1_src/data/scripts/dock_solv.prm

>  <Rbt.Receptor>
prm/pocket_docking_5.prm

>  <SCORE>
-32.4873

>  <SCORE.INTER>
-37.3044

>  <SCORE.INTER.CONST>
1

>  <SCORE.INTER.POLAR>
-4.37245

>  <SCORE.INTER.ROT>
9

>  <SCORE.INTER.SOLV>
35.0385

>  <SCORE.INTER.VDW>
-31.5743

>  <SCORE.INTER.norm>
-0.888201

>  <SCORE.INTRA>
4.26435

>  <SCORE.INTRA.DIHEDRAL>
-3.16062

>  <SCORE.INTRA.DIHEDRAL.0>
22.4324

>  <SCORE.INTRA.POLAR>
1.1814

>  <SCORE.INTRA.POLAR.0>
-1.83749

>  <SCORE.INTRA.REPUL>
0

>  <SCORE.INTRA.REPUL.0>
0

>  <SCORE.INTRA.SOLV>
-3.01466

>  <SCORE.INTRA.SOLV.lig_0>
-160.638

>  <SCORE.INTRA.VDW>
3.33522

>  <SCORE.INTRA.VDW.0>
-7.61953

>  <SCORE.INTRA.norm>
0.101532

>  <SCORE.RESTR>
0.552762

>  <SCORE.RESTR.CAVITY>
0.552762

>  <SCORE.RESTR.norm>
0.013161

>  <SCORE.SYSTEM>
0

>  <SCORE.SYSTEM.CONST>
0

>  <SCORE.SYSTEM.DIHEDRAL>
0

>  <SCORE.SYSTEM.SOLV>
0

>  <SCORE.SYSTEM.norm>
0

>  <SCORE.heavy>
42

>  <SCORE.norm>
-0.773507

>  <RMSD>
8.258

$$$$
1NEM.B
 OpenBabel11021811403D
libRbt.so/2013.1/901 2013/11/27
 42 45  0  0  0  0  0  0  0  0999 V2000
   11.0825    4.6905    0.4889 O   0  0  0  0  0  0  0  0  0  0  0  0
   10.3174    3.5095    0.2404 C   0  0  0  0  0  0  0  0  0  0  0  0
    8.8130    3.7274    0.3961 C   0  0  1  0  0  0  0  0  0  0  0  0
    8.0985    2.5280    0.1124 O   0  0  0  0  0  0  0  0  0  0  0  0
    8.3646    4.0719    1.8074 C   0  0  1  0  0  0  0  0  0  0  0  0
    8.7868    5.4116    2.0720 O   0  0  0  0  0  0  0  0  0  0  0  0
    6.8724    3.8530    1.6421 C   0  0  1  0  0  0  0  0  0  0  0  0
    6.2676    4.8538    0.8165 O   0  0  0  0  0  0  0  0  0  0  0  0
    6.9097    2.5102    0.9030 C   0  0  2  0  0  0  0  0  0  0  0  0
    8.2995    5.9928    3.2477 C   0  0  2  0  0  0  0  0  0  0  0  0
    8.9637    7.3617    3.4485 C   0  0  2  0  0  0  0  0  0  0  0  0
   10.4429    7.2243    3.3924 N   0  3  0  0  0  0  0  0  0  0  0  0
    8.5042    8.0033    4.7618 C   0  0  1  0  0  0  0  0  0  0  0  0
    7.1454    8.4047    4.6475 O   0  0  0  0  0  0  0  0  0  0  0  0
    8.6557    7.0304    5.9352 C   0  0  2  0  0  0  0  0  0  0  0  0
   10.0314    6.7965    6.2085 O   0  0  0  0  0  0  0  0  0  0  0  0
    7.9596    5.7135    5.6032 C   0  0  1  0  0  0  0  0  0  0  0  0
    8.5072    5.1683    4.3871 O   0  0  0  0  0  0  0  0  0  0  0  0
    8.1061    4.6669    6.6936 C   0  0  0  0  0  0  0  0  0  0  0  0
    7.0846    4.8256    7.7524 N   0  3  0  0  0  0  0  0  0  0  0  0
    2.6212   -2.0674   -0.4347 C   0  0  0  0  0  0  0  0  0  0  0  0
    4.5502    1.0472    0.1177 C   0  0  2  0  0  0  0  0  0  0  0  0
    3.8584    1.9982   -0.8559 C   0  0  2  0  0  0  0  0  0  0  0  0
    4.1429    3.4058   -0.4880 N   0  3  0  0  0  0  0  0  0  0  0  0
    2.3535    1.7661   -0.8361 C   0  0  1  0  0  0  0  0  0  0  0  0
    1.7303    2.6008   -1.8003 O   0  0  0  0  0  0  0  0  0  0  0  0
    2.0586    0.2993   -1.1419 C   0  0  2  0  0  0  0  0  0  0  0  0
    0.6598    0.0592   -1.0572 O   0  0  0  0  0  0  0  0  0  0  0  0
    1.4036   -2.6108    0.2097 N   0  3  0  0  0  0  0  0  0  0  0  0
    2.7950   -0.5877   -0.1398 C   0  0  2  0  0  0  0  0  0  0  0  0
    4.2088   -0.3055   -0.1731 O   0  0  0  0  0  0  0  0  0  0  0  0
    5.8694    0.3781    5.2144 C   0  0  2  0  0  0  0  0  0  0  0  0
    6.5314   -0.4019    6.2852 N   0  3  0  0  0  0  0  0  0  0  0  0
    4.6141   -0.3466    4.7419 C   0  0  0  0  0  0  0  0  0  0  0  0
    3.9239    0.4432    3.6387 C   0  0  2  0  0  0  0  0  0  0  0  0
    2.7377   -0.2983    3.2347 N   0  3  0  0  0  0  0  0  0  0  0  0
    4.8776    0.6286    2.4608 C   0  0  1  0  0  0  0  0  0  0  0  0
    4.2267    1.4009    1.4331 O   0  0  0  0  0  0  0  0  0  0  0  0
    6.1587    1.3478    2.9055 C   0  0  2  0  0  0  0  0  0  0  0  0
    7.0778    1.4133    1.7984 O   0  0  0  0  0  0  0  0  0  0  0  0
    6.8397    0.6142    4.0581 C   0  0  1  0  0  0  0  0  0  0  0  0
    7.9472    1.3775    4.5179 O   0  0  0  0  0  0  0  0  0  0  0  0
  1  2  1  0  0  0  0
  3  2  1  1  0  0  0
  3  5  1  0  0  0  0
  3  4  1  0  0  0  0
  4  9  1  0  0  0  0
  5  7  1  0  0  0  0
  5  6  1  6  0  0  0
  7  9  1  0  0  0  0
  7  8  1  6  0  0  0
  9 40  1  1  0  0  0
 10  6  1  6  0  0  0
 10 11  1  0  0  0  0
 10 18  1  0  0  0  0
 11 13  1  0  0  0  0
 11 12  1  1  0  0  0
 13 15  1  0  0  0  0
 13 14  1  6  0  0  0
 15 17  1  0  0  0  0
 15 16  1  6  0  0  0
 17 19  1  1  0  0  0
 17 18  1  0  0  0  0
 19 20  1  0  0  0  0
 21 29  1  0  0  0  0
 22 23  1  0  0  0  0
 22 31  1  0  0  0  0
 22 38  1  1  0  0  0
 23 25  1  0  0  0  0
 23 24  1  1  0  0  0
 25 27  1  0  0  0  0
 25 26  1  6  0  0  0
 27 30  1  0  0  0  0
 27 28  1  1  0  0  0
 30 21  1  6  0  0  0
 30 31  1  0  0  0  0
 32 34  1  0  0  0  0
 32 41  1  0  0  0  0
 32 33  1  1  0  0  0
 34 35  1  0  0  0  0
 35 37  1  0  0  0  0
 35 36  1  6  0  0  0
 37 39  1  0  0  0  0
 37 38  1  6  0  0  0
 39 41  1  0  0  0  0
 39 40  1  6  0  0  0
 41 42  1  1  0  0  0
M  CHG  6  12   1  20   1  24   1  29   1  33   1  36   1
M  END
>  <CHROM.1>
-57.96138923,178.86857678,170.83391626,174.07452887,-58.92692798,166.65724470
41.82941458,69.17178581,67.36907306,84.57425637,168.03090281,-87.42972286
-167.98614071,-176.56079493,56.45594184,-178.80866464,165.82322673,161.91141830
81.63464755,-144.76062253,85.50662175,-177.93928708,6.19466475,2.83397692
2.34701262,-0.21929381,-0.85970542,-1.25610089

>  <Name>
1NEM.B

>  <RI>
0

>  <Rbt.Current_Directory>
/home/itssahil/PROJECTS/Mol_Feturizer/New_Systems/rnas/1nem

>  <Rbt.Executable>
rbdock ($Id: //depot/dev/client3/rdock/2013.1/src/exe/rbdock.cxx#4 $)

>  <Rbt.Library>
libRbt.so (2013.1, Build901 2013/11/27)

>  <Rbt.Parameter_File>
/export/apps/rDock/src/rDock_2013.1_src/data/scripts/dock_solv.prm

>  <Rbt.Receptor>
prm/pocket_docking_8.prm

>  <SCORE>
-26.7288

>  <SCORE.INTER>
-28.5838

>  <SCORE.INTER.CONST>
1

>  <SCORE.INTER.POLAR>
-5.05783

>  <SCORE.INTER.ROT>
9

>  <SCORE.INTER.SOLV>
16.9226

>  <SCORE.INTER.VDW>
-17.4373

>  <SCORE.INTER.norm>
-0.680566

>  <SCORE.INTRA>
1.85491

>  <SCORE.INTRA.DIHEDRAL>
-3.60018

>  <SCORE.INTRA.DIHEDRAL.0>
22.4324

>  <SCORE.INTRA.POLAR>
0.528667

>  <SCORE.INTRA.POLAR.0>
-1.83749

>  <SCORE.INTRA.REPUL>
0

>  <SCORE.INTRA.REPUL.0>
0

>  <SCORE.INTRA.SOLV>
-0.486851

>  <SCORE.INTRA.SOLV.lig_0>
-160.638

>  <SCORE.INTRA.VDW>
2.10095

>  <SCORE.INTRA.VDW.0>
-7.61953

>  <SCORE.INTRA.norm>
0.0441645

>  <SCORE.RESTR>
0

>  <SCORE.RESTR.CAVITY>
0

>  <SCORE.RESTR.norm>
0

>  <SCORE.SYSTEM>
0

>  <SCORE.SYSTEM.CONST>
0

>  <SCORE.SYSTEM.DIHEDRAL>
0

>  <SCORE.SYSTEM.SOLV>
0

>  <SCORE.SYSTEM.norm>
0

>  <SCORE.heavy>
42

>  <SCORE.norm>
-0.636401

>  <RMSD>
8.261

$$$$
1NEM.B
 OpenBabel11021811403D
libRbt.so/2013.1/901 2013/11/27
 42 45  0  0  0  0  0  0  0  0999 V2000
   -5.7295   -2.2096    0.1258 O   0  0  0  0  0  0  0  0  0  0  0  0
   -4.9669   -3.0428   -0.7496 C   0  0  0  0  0  0  0  0  0  0  0  0
   -3.7087   -3.6080   -0.0922 C   0  0  1  0  0  0  0  0  0  0  0  0
   -2.6808   -2.6229   -0.0421 O   0  0  0  0  0  0  0  0  0  0  0  0
   -3.8784   -4.0057    1.3654 C   0  0  1  0  0  0  0  0  0  0  0  0
   -4.6674   -5.1974    1.3915 O   0  0  0  0  0  0  0  0  0  0  0  0
   -2.4163   -4.1539    1.7426 C   0  0  1  0  0  0  0  0  0  0  0  0
   -1.8119   -5.2951    1.1249 O   0  0  0  0  0  0  0  0  0  0  0  0
   -1.8766   -2.8645    1.1127 C   0  0  2  0  0  0  0  0  0  0  0  0
   -5.2396   -5.5334    2.6231 C   0  0  2  0  0  0  0  0  0  0  0  0
   -6.7328   -5.1795    2.6007 C   0  0  2  0  0  0  0  0  0  0  0  0
   -6.9148   -3.7595    2.1998 N   0  3  0  0  0  0  0  0  0  0  0  0
   -7.3832   -5.4727    3.9566 C   0  0  1  0  0  0  0  0  0  0  0  0
   -7.4674   -6.8782    4.1520 O   0  0  0  0  0  0  0  0  0  0  0  0
   -6.5841   -4.8418    5.1010 C   0  0  2  0  0  0  0  0  0  0  0  0
   -6.6817   -3.4241    5.0487 O   0  0  0  0  0  0  0  0  0  0  0  0
   -5.1219   -5.2671    5.0016 C   0  0  1  0  0  0  0  0  0  0  0  0
   -4.5937   -4.8914    3.7148 O   0  0  0  0  0  0  0  0  0  0  0  0
   -4.2421   -4.6420    6.0699 C   0  0  0  0  0  0  0  0  0  0  0  0
   -2.9140   -4.2622    5.5392 N   0  3  0  0  0  0  0  0  0  0  0  0
    3.9311    0.4237   -1.0811 C   0  0  0  0  0  0  0  0  0  0  0  0
    1.0897   -1.4712    0.3551 C   0  0  2  0  0  0  0  0  0  0  0  0
    1.7714   -2.1862    1.5192 C   0  0  2  0  0  0  0  0  0  0  0  0
    0.7622   -2.6333    2.5087 N   0  3  0  0  0  0  0  0  0  0  0  0
    2.7649   -1.2532    2.1986 C   0  0  1  0  0  0  0  0  0  0  0  0
    3.4473   -1.9526    3.2281 O   0  0  0  0  0  0  0  0  0  0  0  0
    3.7630   -0.7311    1.1675 C   0  0  2  0  0  0  0  0  0  0  0  0
    4.6516    0.1945    1.7800 O   0  0  0  0  0  0  0  0  0  0  0  0
    3.1783    0.7345   -2.3179 N   0  3  0  0  0  0  0  0  0  0  0  0
    3.0083   -0.0452    0.0303 C   0  0  2  0  0  0  0  0  0  0  0  0
    2.0581   -0.9580   -0.5558 O   0  0  0  0  0  0  0  0  0  0  0  0
   -3.6152    0.9958   -0.1505 C   0  0  2  0  0  0  0  0  0  0  0  0
   -4.9476    1.1012   -0.7884 N   0  3  0  0  0  0  0  0  0  0  0  0
   -2.5241    1.0257   -1.2148 C   0  0  0  0  0  0  0  0  0  0  0  0
   -1.1480    0.9158   -0.5732 C   0  0  2  0  0  0  0  0  0  0  0  0
   -0.1554    0.9517   -1.6379 N   0  3  0  0  0  0  0  0  0  0  0  0
   -1.0492   -0.3853    0.2197 C   0  0  1  0  0  0  0  0  0  0  0  0
    0.2455   -0.4682    0.8466 O   0  0  0  0  0  0  0  0  0  0  0  0
   -2.1423   -0.4517    1.2953 C   0  0  2  0  0  0  0  0  0  0  0  0
   -2.0871   -1.7319    1.9531 O   0  0  0  0  0  0  0  0  0  0  0  0
   -3.5329   -0.2774    0.6900 C   0  0  1  0  0  0  0  0  0  0  0  0
   -4.4996   -0.2209    1.7307 O   0  0  0  0  0  0  0  0  0  0  0  0
  1  2  1  0  0  0  0
  3  2  1  1  0  0  0
  3  5  1  0  0  0  0
  3  4  1  0  0  0  0
  4  9  1  0  0  0  0
  5  7  1  0  0  0  0
  5  6  1  6  0  0  0
  7  9  1  0  0  0  0
  7  8  1  6  0  0  0
  9 40  1  1  0  0  0
 10  6  1  6  0  0  0
 10 11  1  0  0  0  0
 10 18  1  0  0  0  0
 11 13  1  0  0  0  0
 11 12  1  1  0  0  0
 13 15  1  0  0  0  0
 13 14  1  1  0  0  0
 15 17  1  0  0  0  0
 15 16  1  6  0  0  0
 17 19  1  1  0  0  0
 17 18  1  0  0  0  0
 19 20  1  0  0  0  0
 21 29  1  0  0  0  0
 22 23  1  0  0  0  0
 22 31  1  0  0  0  0
 22 38  1  1  0  0  0
 23 25  1  0  0  0  0
 23 24  1  1  0  0  0
 25 27  1  0  0  0  0
 25 26  1  1  0  0  0
 27 30  1  0  0  0  0
 27 28  1  1  0  0  0
 30 21  1  6  0  0  0
 30 31  1  0  0  0  0
 32 34  1  0  0  0  0
 32 41  1  0  0  0  0
 32 33  1  6  0  0  0
 34 35  1  0  0  0  0
 35 37  1  0  0  0  0
 35 36  1  6  0  0  0
 37 39  1  0  0  0  0
 37 38  1  1  0  0  0
 39 41  1  0  0  0  0
 39 40  1  6  0  0  0
 41 42  1  1  0  0  0
M  CHG  6  12   1  20   1  24   1  29   1  33   1  36   1
M  END
>  <CHROM.1>
175.48910176,-78.05652599,-163.48072450,103.57659702,69.35288220,-40.76438840
-50.81096840,-173.85413712,47.57279983,-141.21670720,-81.36963025,164.15135710
89.78686229,-136.34230419,-52.72733666,75.69856532,171.74032782,66.56494953
-176.24659131,-112.36395292,-41.85861398,-59.68532705,-2.15936614,-2.26532521
1.50626392,2.55375581,0.12657232,2.32501714

>  <Name>
1NEM.B

>  <RI>
0

>  <Rbt.Current_Directory>
/home/itssahil/PROJECTS/Mol_Feturizer/New_Systems/rnas/1nem

>  <Rbt.Executable>
rbdock ($Id: //depot/dev/client3/rdock/2013.1/src/exe/rbdock.cxx#4 $)

>  <Rbt.Library>
libRbt.so (2013.1, Build901 2013/11/27)

>  <Rbt.Parameter_File>
/export/apps/rDock/src/rDock_2013.1_src/data/scripts/dock_solv.prm

>  <Rbt.Receptor>
prm/pocket_docking_3.prm

>  <SCORE>
-40.826

>  <SCORE.INTER>
-61.666

>  <SCORE.INTER.CONST>
1

>  <SCORE.INTER.POLAR>
-10.0308

>  <SCORE.INTER.ROT>
9

>  <SCORE.INTER.SOLV>
39.1828

>  <SCORE.INTER.VDW>
-30.3357

>  <SCORE.INTER.norm>
-1.46824

>  <SCORE.INTRA>
17.8061

>  <SCORE.INTRA.DIHEDRAL>
13.4136

>  <SCORE.INTRA.DIHEDRAL.0>
22.4324

>  <SCORE.INTRA.POLAR>
0.491733

>  <SCORE.INTRA.POLAR.0>
-1.83749

>  <SCORE.INTRA.REPUL>
0.00741583

>  <SCORE.INTRA.REPUL.0>
0

>  <SCORE.INTRA.SOLV>
10.5386

>  <SCORE.INTRA.SOLV.lig_0>
-160.638

>  <SCORE.INTRA.VDW>
4.12105

>  <SCORE.INTRA.VDW.0>
-7.61953

>  <SCORE.INTRA.norm>
0.423955

>  <SCORE.RESTR>
3.03384

>  <SCORE.RESTR.CAVITY>
3.03384

>  <SCORE.RESTR.norm>
0.0722342

>  <SCORE.SYSTEM>
0

>  <SCORE.SYSTEM.CONST>
0

>  <SCORE.SYSTEM.DIHEDRAL>
0

>  <SCORE.SYSTEM.SOLV>
0

>  <SCORE.SYSTEM.norm>
0

>  <SCORE.heavy>
42

>  <SCORE.norm>
-0.972049

>  <RMSD>
8.283

$$$$
1NEM.B
 OpenBabel11021811403D
libRbt.so/2013.1/901 2013/11/27
 42 45  0  0  0  0  0  0  0  0999 V2000
   -2.6266   -0.9559    0.6947 O   0  0  0  0  0  0  0  0  0  0  0  0
   -2.5596   -2.3827    0.6517 C   0  0  0  0  0  0  0  0  0  0  0  0
   -1.2462   -2.9368    1.2020 C   0  0  1  0  0  0  0  0  0  0  0  0
   -0.1333   -2.3576    0.5271 O   0  0  0  0  0  0  0  0  0  0  0  0
   -0.9784   -2.6029    2.6608 C   0  0  1  0  0  0  0  0  0  0  0  0
   -1.8719   -3.3934    3.4484 O   0  0  0  0  0  0  0  0  0  0  0  0
    0.4906   -2.9770    2.7240 C   0  0  1  0  0  0  0  0  0  0  0  0
    0.6924   -4.3913    2.6341 O   0  0  0  0  0  0  0  0  0  0  0  0
    0.9654   -2.2927    1.4367 C   0  0  2  0  0  0  0  0  0  0  0  0
   -2.9205   -2.7071    4.0701 C   0  0  2  0  0  0  0  0  0  0  0  0
   -3.7409   -3.6928    4.9132 C   0  0  2  0  0  0  0  0  0  0  0  0
   -4.1650   -4.8480    4.0789 N   0  3  0  0  0  0  0  0  0  0  0  0
   -4.9397   -2.9912    5.5598 C   0  0  1  0  0  0  0  0  0  0  0  0
   -4.4854   -2.1138    6.5817 O   0  0  0  0  0  0  0  0  0  0  0  0
   -5.7426   -2.2000    4.5226 C   0  0  2  0  0  0  0  0  0  0  0  0
   -6.3943   -3.0862    3.6216 O   0  0  0  0  0  0  0  0  0  0  0  0
   -4.8103   -1.2682    3.7536 C   0  0  1  0  0  0  0  0  0  0  0  0
   -3.7574   -2.0352    3.1378 O   0  0  0  0  0  0  0  0  0  0  0  0
   -5.5158   -0.4809    2.6634 C   0  0  0  0  0  0  0  0  0  0  0  0
   -6.0141   -1.3596    1.5819 N   0  3  0  0  0  0  0  0  0  0  0  0
    1.6975    5.5229   -0.5670 C   0  0  0  0  0  0  0  0  0  0  0  0
    1.0628    1.9644    0.2460 C   0  0  2  0  0  0  0  0  0  0  0  0
    0.4528    1.4680   -1.0626 C   0  0  2  0  0  0  0  0  0  0  0  0
    0.5423   -0.0095   -1.1426 N   0  3  0  0  0  0  0  0  0  0  0  0
    1.1840    2.0824   -2.2487 C   0  0  1  0  0  0  0  0  0  0  0  0
    0.5592    1.6749   -3.4562 O   0  0  0  0  0  0  0  0  0  0  0  0
    1.1587    3.6048   -2.1318 C   0  0  2  0  0  0  0  0  0  0  0  0
    1.8987    4.1844   -3.1986 O   0  0  0  0  0  0  0  0  0  0  0  0
    2.0800    5.8807    0.8181 N   0  3  0  0  0  0  0  0  0  0  0  0
    1.7684    4.0231   -0.7952 C   0  0  2  0  0  0  0  0  0  0  0  0
    1.0637    3.3888    0.2915 O   0  0  0  0  0  0  0  0  0  0  0  0
    4.4135   -0.5073    3.5645 C   0  0  2  0  0  0  0  0  0  0  0  0
    4.7853   -0.9419    4.9306 N   0  3  0  0  0  0  0  0  0  0  0  0
    4.4933    1.0116    3.4612 C   0  0  0  0  0  0  0  0  0  0  0  0
    4.1113    1.4733    2.0618 C   0  0  2  0  0  0  0  0  0  0  0  0
    4.2089    2.9257    2.0293 N   0  3  0  0  0  0  0  0  0  0  0  0
    2.6918    1.0154    1.7355 C   0  0  1  0  0  0  0  0  0  0  0  0
    2.3484    1.4317    0.3994 O   0  0  0  0  0  0  0  0  0  0  0  0
    2.5746   -0.5115    1.8402 C   0  0  2  0  0  0  0  0  0  0  0  0
    1.2037   -0.9002    1.6297 O   0  0  0  0  0  0  0  0  0  0  0  0
    3.0152   -1.0126    3.2133 C   0  0  1  0  0  0  0  0  0  0  0  0
    3.0089   -2.4340    3.2240 O   0  0  0  0  0  0  0  0  0  0  0  0
  1  2  1  0  0  0  0
  3  2  1  6  0  0  0
  3  5  1  0  0  0  0
  3  4  1  0  0  0  0
  4  9  1  0  0  0  0
  5  7  1  0  0  0  0
  5  6  1  1  0  0  0
  7  9  1  0  0  0  0
  7  8  1  6  0  0  0
  9 40  1  1  0  0  0
 10  6  1  6  0  0  0
 10 11  1  0  0  0  0
 10 18  1  0  0  0  0
 11 13  1  0  0  0  0
 11 12  1  6  0  0  0
 13 15  1  0  0  0  0
 13 14  1  1  0  0  0
 15 17  1  0  0  0  0
 15 16  1  6  0  0  0
 17 19  1  6  0  0  0
 17 18  1  0  0  0  0
 19 20  1  0  0  0  0
 21 29  1  0  0  0  0
 22 23  1  0  0  0  0
 22 31  1  0  0  0  0
 22 38  1  6  0  0  0
 23 25  1  0  0  0  0
 23 24  1  6  0  0  0
 25 27  1  0  0  0  0
 25 26  1  6  0  0  0
 27 30  1  0  0  0  0
 27 28  1  6  0  0  0
 30 21  1  1  0  0  0
 30 31  1  0  0  0  0
 32 34  1  0  0  0  0
 32 41  1  0  0  0  0
 32 33  1  1  0  0  0
 34 35  1  0  0  0  0
 35 37  1  0  0  0  0
 35 36  1  1  0  0  0
 37 39  1  0  0  0  0
 37 38  1  6  0  0  0
 39 41  1  0  0  0  0
 39 40  1  1  0  0  0
 41 42  1  6  0  0  0
M  CHG  6  12   1  20   1  24   1  29   1  33   1  36   1
M  END
>  <CHROM.1>
60.64078114,-55.01921015,-108.43046787,-177.73296665,-148.76978167,-146.58910111
-171.72496225,-58.07925389,88.87429171,-65.96324085,-72.51050693,170.36933137
-169.34534662,-139.99548420,42.29753132,-174.76089658,64.93363853,48.49455981
-58.25024806,-136.73118234,168.24848124,70.25629639,-0.24216437,-0.38145574
1.78056114,2.35887834,0.16660261,2.37113426

>  <Name>
1NEM.B

>  <RI>
0

>  <Rbt.Current_Directory>
/home/itssahil/PROJECTS/Mol_Feturizer/New_Systems/rnas/1nem

>  <Rbt.Executable>
rbdock ($Id: //depot/dev/client3/rdock/2013.1/src/exe/rbdock.cxx#4 $)

>  <Rbt.Library>
libRbt.so (2013.1, Build901 2013/11/27)

>  <Rbt.Parameter_File>
/export/apps/rDock/src/rDock_2013.1_src/data/scripts/dock_solv.prm

>  <Rbt.Receptor>
prm/pocket_docking_5.prm

>  <SCORE>
-39.1091

>  <SCORE.INTER>
-45.6261

>  <SCORE.INTER.CONST>
1

>  <SCORE.INTER.POLAR>
-5.05679

>  <SCORE.INTER.ROT>
9

>  <SCORE.INTER.SOLV>
31.0268

>  <SCORE.INTER.VDW>
-33.5037

>  <SCORE.INTER.norm>
-1.08634

>  <SCORE.INTRA>
6.02651

>  <SCORE.INTRA.DIHEDRAL>
10.5717

>  <SCORE.INTRA.DIHEDRAL.0>
22.4324

>  <SCORE.INTRA.POLAR>
-0.995382

>  <SCORE.INTRA.POLAR.0>
-1.83749

>  <SCORE.INTRA.REPUL>
0

>  <SCORE.INTRA.REPUL.0>
0

>  <SCORE.INTRA.SOLV>
5.81555

>  <SCORE.INTRA.SOLV.lig_0>
-160.638

>  <SCORE.INTRA.VDW>
1.21718

>  <SCORE.INTRA.VDW.0>
-7.61953

>  <SCORE.INTRA.norm>
0.143488

>  <SCORE.RESTR>
0.490431

>  <SCORE.RESTR.CAVITY>
0.490431

>  <SCORE.RESTR.norm>
0.0116769

>  <SCORE.SYSTEM>
0

>  <SCORE.SYSTEM.CONST>
0

>  <SCORE.SYSTEM.DIHEDRAL>
0

>  <SCORE.SYSTEM.SOLV>
0

>  <SCORE.SYSTEM.norm>
0

>  <SCORE.heavy>
42

>  <SCORE.norm>
-0.93117

>  <RMSD>
8.293

$$$$
1NEM.B
 OpenBabel11021811403D
libRbt.so/2013.1/901 2013/11/27
 42 45  0  0  0  0  0  0  0  0999 V2000
    3.5663   -1.2490   -1.6630 O   0  0  0  0  0  0  0  0  0  0  0  0
    2.4554   -1.0508   -0.7862 C   0  0  0  0  0  0  0  0  0  0  0  0
    2.7467   -1.4723    0.6533 C   0  0  1  0  0  0  0  0  0  0  0  0
    3.5314   -0.4863    1.3177 O   0  0  0  0  0  0  0  0  0  0  0  0
    1.5178   -1.5921    1.5403 C   0  0  1  0  0  0  0  0  0  0  0  0
    0.8107   -2.7648    1.1303 O   0  0  0  0  0  0  0  0  0  0  0  0
    2.2055   -1.6546    2.8912 C   0  0  1  0  0  0  0  0  0  0  0  0
    2.9104   -2.8857    3.0824 O   0  0  0  0  0  0  0  0  0  0  0  0
    3.1982   -0.5008    2.7059 C   0  0  2  0  0  0  0  0  0  0  0  0
   -0.4706   -2.9335    1.6662 C   0  0  2  0  0  0  0  0  0  0  0  0
   -0.6015   -4.3562    2.2265 C   0  0  2  0  0  0  0  0  0  0  0  0
   -0.2293   -5.3508    1.1860 N   0  3  0  0  0  0  0  0  0  0  0  0
   -2.0145   -4.6024    2.7652 C   0  0  1  0  0  0  0  0  0  0  0  0
   -2.2093   -3.8512    3.9561 O   0  0  0  0  0  0  0  0  0  0  0  0
   -3.0758   -4.2119    1.7320 C   0  0  2  0  0  0  0  0  0  0  0  0
   -3.0418   -5.1061    0.6268 O   0  0  0  0  0  0  0  0  0  0  0  0
   -2.8264   -2.7841    1.2544 C   0  0  1  0  0  0  0  0  0  0  0  0
   -1.4949   -2.6788    0.7139 O   0  0  0  0  0  0  0  0  0  0  0  0
   -3.8038   -2.3310    0.1842 C   0  0  0  0  0  0  0  0  0  0  0  0
   -5.0802   -1.8594    0.7658 N   0  3  0  0  0  0  0  0  0  0  0  0
    5.9168   -0.3814    8.2064 C   0  0  0  0  0  0  0  0  0  0  0  0
    3.6554    0.7272    5.4890 C   0  0  2  0  0  0  0  0  0  0  0  0
    2.4077    1.1086    6.2820 C   0  0  2  0  0  0  0  0  0  0  0  0
    1.5419    2.0034    5.4774 N   0  3  0  0  0  0  0  0  0  0  0  0
    2.8016    1.8146    7.5725 C   0  0  1  0  0  0  0  0  0  0  0  0
    1.6384    2.0943    8.3363 O   0  0  0  0  0  0  0  0  0  0  0  0
    3.7534    0.9266    8.3709 C   0  0  2  0  0  0  0  0  0  0  0  0
    4.1804    1.6069    9.5440 O   0  0  0  0  0  0  0  0  0  0  0  0
    7.0985   -0.6810    7.3658 N   0  3  0  0  0  0  0  0  0  0  0  0
    4.9649    0.5751    7.5095 C   0  0  2  0  0  0  0  0  0  0  0  0
    4.5370   -0.0586    6.2868 O   0  0  0  0  0  0  0  0  0  0  0  0
    4.7944    3.0878    0.9608 C   0  0  2  0  0  0  0  0  0  0  0  0
    5.1969    3.0615   -0.4642 N   0  3  0  0  0  0  0  0  0  0  0  0
    6.0254    2.9680    1.8522 C   0  0  0  0  0  0  0  0  0  0  0  0
    5.6264    2.9913    3.3210 C   0  0  2  0  0  0  0  0  0  0  0  0
    6.8414    2.8755    4.1151 N   0  3  0  0  0  0  0  0  0  0  0  0
    4.6710    1.8374    3.6160 C   0  0  1  0  0  0  0  0  0  0  0  0
    4.2761    1.8833    5.0010 O   0  0  0  0  0  0  0  0  0  0  0  0
    3.4230    1.9228    2.7264 C   0  0  2  0  0  0  0  0  0  0  0  0
    2.5945    0.7669    2.9545 O   0  0  0  0  0  0  0  0  0  0  0  0
    3.7942    1.9688    1.2462 C   0  0  1  0  0  0  0  0  0  0  0  0
    2.6215    2.1724    0.4692 O   0  0  0  0  0  0  0  0  0  0  0  0
  1  2  1  0  0  0  0
  3  2  1  6  0  0  0
  3  5  1  0  0  0  0
  3  4  1  0  0  0  0
  4  9  1  0  0  0  0
  5  7  1  0  0  0  0
  5  6  1  6  0  0  0
  7  9  1  0  0  0  0
  7  8  1  6  0  0  0
  9 40  1  6  0  0  0
 10  6  1  6  0  0  0
 10 11  1  0  0  0  0
 10 18  1  0  0  0  0
 11 13  1  0  0  0  0
 11 12  1  6  0  0  0
 13 15  1  0  0  0  0
 13 14  1  1  0  0  0
 15 17  1  0  0  0  0
 15 16  1  6  0  0  0
 17 19  1  6  0  0  0
 17 18  1  0  0  0  0
 19 20  1  0  0  0  0
 21 29  1  0  0  0  0
 22 23  1  0  0  0  0
 22 31  1  0  0  0  0
 22 38  1  1  0  0  0
 23 25  1  0  0  0  0
 23 24  1  6  0  0  0
 25 27  1  0  0  0  0
 25 26  1  1  0  0  0
 27 30  1  0  0  0  0
 27 28  1  1  0  0  0
 30 21  1  1  0  0  0
 30 31  1  0  0  0  0
 32 34  1  0  0  0  0
 32 41  1  0  0  0  0
 32 33  1  6  0  0  0
 34 35  1  0  0  0  0
 35 37  1  0  0  0  0
 35 36  1  1  0  0  0
 37 39  1  0  0  0  0
 37 38  1  1  0  0  0
 39 41  1  0  0  0  0
 39 40  1  6  0  0  0
 41 42  1  6  0  0  0
M  CHG  6  12   1  20   1  24   1  29   1  33   1  36   1
M  END
>  <CHROM.1>
76.63800287,77.62410302,-169.42258332,-130.70008307,-176.43669636,-61.66229621
-70.72598473,-44.88038718,-98.28309718,82.37689955,70.54745532,-178.61220024
36.43571636,-133.60046545,-70.82393456,-169.19043444,-176.33407488,67.26484238
70.96858205,-165.90555152,-58.73544981,-51.35398059,2.14923273,-0.44997047
3.18915329,-2.65973102,0.65663542,1.59986388

>  <Name>
1NEM.B

>  <RI>
0

>  <Rbt.Current_Directory>
/home/itssahil/PROJECTS/Mol_Feturizer/New_Systems/rnas/1nem

>  <Rbt.Executable>
rbdock ($Id: //depot/dev/client3/rdock/2013.1/src/exe/rbdock.cxx#4 $)

>  <Rbt.Library>
libRbt.so (2013.1, Build901 2013/11/27)

>  <Rbt.Parameter_File>
/export/apps/rDock/src/rDock_2013.1_src/data/scripts/dock_solv.prm

>  <Rbt.Receptor>
prm/pocket_docking_4.prm

>  <SCORE>
-45.206

>  <SCORE.INTER>
-54.749

>  <SCORE.INTER.CONST>
1

>  <SCORE.INTER.POLAR>
-6.60741

>  <SCORE.INTER.ROT>
9

>  <SCORE.INTER.SOLV>
33.2867

>  <SCORE.INTER.VDW>
-35.1702

>  <SCORE.INTER.norm>
-1.30355

>  <SCORE.INTRA>
8.98976

>  <SCORE.INTRA.DIHEDRAL>
6.48504

>  <SCORE.INTRA.DIHEDRAL.0>
22.4324

>  <SCORE.INTRA.POLAR>
0.903189

>  <SCORE.INTRA.POLAR.0>
-1.83749

>  <SCORE.INTRA.REPUL>
0

>  <SCORE.INTRA.REPUL.0>
0

>  <SCORE.INTRA.SOLV>
-7.59135

>  <SCORE.INTRA.SOLV.lig_0>
-160.638

>  <SCORE.INTRA.VDW>
6.47207

>  <SCORE.INTRA.VDW.0>
-7.61953

>  <SCORE.INTRA.norm>
0.214042

>  <SCORE.RESTR>
0.553271

>  <SCORE.RESTR.CAVITY>
0.553271

>  <SCORE.RESTR.norm>
0.0131731

>  <SCORE.SYSTEM>
0

>  <SCORE.SYSTEM.CONST>
0

>  <SCORE.SYSTEM.DIHEDRAL>
0

>  <SCORE.SYSTEM.SOLV>
0

>  <SCORE.SYSTEM.norm>
0

>  <SCORE.heavy>
42

>  <SCORE.norm>
-1.07633

>  <RMSD>
8.294

$$$$
1NEM.B
 OpenBabel11021811403D
libRbt.so/2013.1/901 2013/11/27
 42 45  0  0  0  0  0  0  0  0999 V2000
   -2.5428   -3.2591    4.4312 O   0  0  0  0  0  0  0  0  0  0  0  0
   -3.7204   -2.7838    5.0865 C   0  0  0  0  0  0  0  0  0  0  0  0
   -4.6562   -2.0168    4.1533 C   0  0  1  0  0  0  0  0  0  0  0  0
   -3.9875   -0.8985    3.5774 O   0  0  0  0  0  0  0  0  0  0  0  0
   -5.1253   -2.8025    2.9392 C   0  0  1  0  0  0  0  0  0  0  0  0
   -6.0625   -3.7781    3.4008 O   0  0  0  0  0  0  0  0  0  0  0  0
   -5.6894   -1.6574    2.1192 C   0  0  1  0  0  0  0  0  0  0  0  0
   -6.8890   -1.1238    2.6897 O   0  0  0  0  0  0  0  0  0  0  0  0
   -4.5374   -0.6588    2.2818 C   0  0  2  0  0  0  0  0  0  0  0  0
   -5.5214   -4.9669    3.9020 C   0  0  2  0  0  0  0  0  0  0  0  0
   -6.4862   -6.1244    3.6109 C   0  0  2  0  0  0  0  0  0  0  0  0
   -7.8437   -5.7979    4.1216 N   0  3  0  0  0  0  0  0  0  0  0  0
   -5.9590   -7.4357    4.2024 C   0  0  1  0  0  0  0  0  0  0  0  0
   -4.8248   -7.8708    3.4644 O   0  0  0  0  0  0  0  0  0  0  0  0
   -5.5781   -7.2637    5.6761 C   0  0  2  0  0  0  0  0  0  0  0  0
   -6.7418   -7.0526    6.4657 O   0  0  0  0  0  0  0  0  0  0  0  0
   -4.6259   -6.0806    5.8254 C   0  0  1  0  0  0  0  0  0  0  0  0
   -5.2421   -4.8916    5.2939 O   0  0  0  0  0  0  0  0  0  0  0  0
   -4.2371   -5.8026    7.2668 C   0  0  0  0  0  0  0  0  0  0  0  0
   -3.1727   -6.7164    7.7378 N   0  3  0  0  0  0  0  0  0  0  0  0
    3.5207   -0.1375    1.4753 C   0  0  0  0  0  0  0  0  0  0  0  0
    0.3740   -1.7674    0.3940 C   0  0  2  0  0  0  0  0  0  0  0  0
    0.4981   -3.1278    1.0759 C   0  0  2  0  0  0  0  0  0  0  0  0
   -0.8314   -3.7765    1.1725 N   0  3  0  0  0  0  0  0  0  0  0  0
    1.0816   -2.9632    2.4729 C   0  0  1  0  0  0  0  0  0  0  0  0
    1.2641   -4.2397    3.0660 O   0  0  0  0  0  0  0  0  0  0  0  0
    2.4175   -2.2287    2.3853 C   0  0  2  0  0  0  0  0  0  0  0  0
    2.9357   -2.0098    3.6911 O   0  0  0  0  0  0  0  0  0  0  0  0
    4.3984   -0.2388    2.6637 N   0  3  0  0  0  0  0  0  0  0  0  0
    2.2167   -0.8890    1.6797 C   0  0  2  0  0  0  0  0  0  0  0  0
    1.6314   -1.0968    0.3782 O   0  0  0  0  0  0  0  0  0  0  0  0
   -2.8313    2.2520   -0.5541 C   0  0  2  0  0  0  0  0  0  0  0  0
   -3.7104    3.0420   -1.4465 N   0  3  0  0  0  0  0  0  0  0  0  0
   -1.6226    1.7426   -1.3310 C   0  0  0  0  0  0  0  0  0  0  0  0
   -0.7104    0.9263   -0.4261 C   0  0  2  0  0  0  0  0  0  0  0  0
    0.4197    0.4727   -1.2243 N   0  3  0  0  0  0  0  0  0  0  0  0
   -1.4805   -0.2593    0.1508 C   0  0  1  0  0  0  0  0  0  0  0  0
   -0.6186   -1.0105    1.0279 O   0  0  0  0  0  0  0  0  0  0  0  0
   -2.7118    0.2194    0.9324 C   0  0  2  0  0  0  0  0  0  0  0  0
   -3.4708   -0.9227    1.3730 O   0  0  0  0  0  0  0  0  0  0  0  0
   -3.6143    1.0977    0.0694 C   0  0  1  0  0  0  0  0  0  0  0  0
   -4.6713    1.6178    0.8650 O   0  0  0  0  0  0  0  0  0  0  0  0
  1  2  1  0  0  0  0
  3  2  1  1  0  0  0
  3  5  1  0  0  0  0
  3  4  1  0  0  0  0
  4  9  1  0  0  0  0
  5  7  1  0  0  0  0
  5  6  1  1  0  0  0
  7  9  1  0  0  0  0
  7  8  1  1  0  0  0
  9 40  1  6  0  0  0
 10  6  1  1  0  0  0
 10 11  1  0  0  0  0
 10 18  1  0  0  0  0
 11 13  1  0  0  0  0
 11 12  1  1  0  0  0
 13 15  1  0  0  0  0
 13 14  1  6  0  0  0
 15 17  1  0  0  0  0
 15 16  1  1  0  0  0
 17 19  1  1  0  0  0
 17 18  1  0  0  0  0
 19 20  1  0  0  0  0
 21 29  1  0  0  0  0
 22 23  1  0  0  0  0
 22 31  1  0  0  0  0
 22 38  1  1  0  0  0
 23 25  1  0  0  0  0
 23 24  1  1  0  0  0
 25 27  1  0  0  0  0
 25 26  1  6  0  0  0
 27 30  1  0  0  0  0
 27 28  1  1  0  0  0
 30 21  1  6  0  0  0
 30 31  1  0  0  0  0
 32 34  1  0  0  0  0
 32 41  1  0  0  0  0
 32 33  1  6  0  0  0
 34 35  1  0  0  0  0
 35 37  1  0  0  0  0
 35 36  1  6  0  0  0
 37 39  1  0  0  0  0
 37 38  1  1  0  0  0
 39 41  1  0  0  0  0
 39 40  1  6  0  0  0
 41 42  1  1  0  0  0
M  CHG  6  12   1  20   1  24   1  29   1  33   1  36   1
M  END
>  <CHROM.1>
55.71896486,-58.52060208,-83.45265798,-148.22656893,59.74416678,-96.16572580
44.79111801,-170.26457087,68.07606037,80.13628606,-57.64958486,-40.90852740
82.92312411,-138.84455620,177.67157458,60.61762912,62.09466890,-113.88609670
-74.94069097,-72.76985661,170.98691634,131.56671449,-2.58783856,-2.46016256
2.60475234,-2.24474191,0.01647796,-0.64188153

>  <Name>
1NEM.B

>  <RI>
0

>  <Rbt.Current_Directory>
/home/itssahil/PROJECTS/Mol_Feturizer/New_Systems/rnas/1nem

>  <Rbt.Executable>
rbdock ($Id: //depot/dev/client3/rdock/2013.1/src/exe/rbdock.cxx#4 $)

>  <Rbt.Library>
libRbt.so (2013.1, Build901 2013/11/27)

>  <Rbt.Parameter_File>
/export/apps/rDock/src/rDock_2013.1_src/data/scripts/dock_solv.prm

>  <Rbt.Receptor>
prm/pocket_docking_6.prm

>  <SCORE>
-41.5912

>  <SCORE.INTER>
-54.6235

>  <SCORE.INTER.CONST>
1

>  <SCORE.INTER.POLAR>
-6.91614

>  <SCORE.INTER.ROT>
9

>  <SCORE.INTER.SOLV>
35.9783

>  <SCORE.INTER.VDW>
-34.9546

>  <SCORE.INTER.norm>
-1.30056

>  <SCORE.INTRA>
13.0323

>  <SCORE.INTRA.DIHEDRAL>
11.6468

>  <SCORE.INTRA.DIHEDRAL.0>
22.4324

>  <SCORE.INTRA.POLAR>
0.0388799

>  <SCORE.INTRA.POLAR.0>
-1.83749

>  <SCORE.INTRA.REPUL>
0

>  <SCORE.INTRA.REPUL.0>
0

>  <SCORE.INTRA.SOLV>
-1.10155

>  <SCORE.INTRA.SOLV.lig_0>
-160.638

>  <SCORE.INTRA.VDW>
7.62749

>  <SCORE.INTRA.VDW.0>
-7.61953

>  <SCORE.INTRA.norm>
0.310294

>  <SCORE.RESTR>
0

>  <SCORE.RESTR.CAVITY>
0

>  <SCORE.RESTR.norm>
0

>  <SCORE.SYSTEM>
0

>  <SCORE.SYSTEM.CONST>
0

>  <SCORE.SYSTEM.DIHEDRAL>
0

>  <SCORE.SYSTEM.SOLV>
0

>  <SCORE.SYSTEM.norm>
0

>  <SCORE.heavy>
42

>  <SCORE.norm>
-0.990266

>  <RMSD>
8.295

$$$$
1NEM.B
 OpenBabel11021811403D
libRbt.so/2013.1/901 2013/11/27
 42 45  0  0  0  0  0  0  0  0999 V2000
   -1.3712   -1.8901    1.4475 O   0  0  0  0  0  0  0  0  0  0  0  0
   -2.5942   -1.3669    1.9696 C   0  0  0  0  0  0  0  0  0  0  0  0
   -3.1954   -0.2667    1.0963 C   0  0  1  0  0  0  0  0  0  0  0  0
   -2.3348    0.8677    1.0520 O   0  0  0  0  0  0  0  0  0  0  0  0
   -3.3560   -0.6368   -0.3695 C   0  0  1  0  0  0  0  0  0  0  0  0
   -4.4354   -1.5699   -0.4562 O   0  0  0  0  0  0  0  0  0  0  0  0
   -3.6108    0.7470   -0.9371 C   0  0  1  0  0  0  0  0  0  0  0  0
   -4.8899    1.2618   -0.5522 O   0  0  0  0  0  0  0  0  0  0  0  0
   -2.4949    1.5096   -0.2132 C   0  0  2  0  0  0  0  0  0  0  0  0
   -4.5178   -2.5173    0.5699 C   0  0  2  0  0  0  0  0  0  0  0  0
   -5.2547   -3.7603    0.0531 C   0  0  2  0  0  0  0  0  0  0  0  0
   -6.5627   -3.3700   -0.5361 N   0  3  0  0  0  0  0  0  0  0  0  0
   -5.4232   -4.7975    1.1682 C   0  0  1  0  0  0  0  0  0  0  0  0
   -4.1613   -5.3728    1.4800 O   0  0  0  0  0  0  0  0  0  0  0  0
   -6.0239   -4.1636    2.4266 C   0  0  2  0  0  0  0  0  0  0  0  0
   -7.3752   -3.7871    2.1932 O   0  0  0  0  0  0  0  0  0  0  0  0
   -5.2042   -2.9401    2.8265 C   0  0  1  0  0  0  0  0  0  0  0  0
   -5.1604   -2.0059    1.7304 O   0  0  0  0  0  0  0  0  0  0  0  0
   -5.7624   -2.2149    4.0383 C   0  0  0  0  0  0  0  0  0  0  0  0
   -4.7442   -1.3596    4.6877 N   0  3  0  0  0  0  0  0  0  0  0  0
    5.7968    0.8132   -1.5334 C   0  0  0  0  0  0  0  0  0  0  0  0
    2.1275    0.3222   -1.6828 C   0  0  2  0  0  0  0  0  0  0  0  0
    1.9393   -0.7999   -0.6648 C   0  0  2  0  0  0  0  0  0  0  0  0
    0.5281   -0.8521   -0.2137 N   0  3  0  0  0  0  0  0  0  0  0  0
    2.8453   -0.5744    0.5383 C   0  0  1  0  0  0  0  0  0  0  0  0
    2.7184   -1.6627    1.4404 O   0  0  0  0  0  0  0  0  0  0  0  0
    4.2932   -0.4456    0.0706 C   0  0  2  0  0  0  0  0  0  0  0  0
    5.1370   -0.1659    1.1802 O   0  0  0  0  0  0  0  0  0  0  0  0
    5.8405    1.8097   -2.6279 N   0  3  0  0  0  0  0  0  0  0  0  0
    4.3990    0.6822   -0.9541 C   0  0  2  0  0  0  0  0  0  0  0  0
    3.4985    0.4391   -2.0540 O   0  0  0  0  0  0  0  0  0  0  0  0
   -0.8346    4.6481   -2.6611 C   0  0  2  0  0  0  0  0  0  0  0  0
   -1.7636    5.3974   -3.5380 N   0  3  0  0  0  0  0  0  0  0  0  0
    0.4228    4.2702   -3.4359 C   0  0  0  0  0  0  0  0  0  0  0  0
    1.3866    3.4969   -2.5469 C   0  0  2  0  0  0  0  0  0  0  0  0
    2.5614    3.1690   -3.3422 N   0  3  0  0  0  0  0  0  0  0  0  0
    0.7094    2.2306   -2.0282 C   0  0  1  0  0  0  0  0  0  0  0  0
    1.6182    1.5192   -1.1654 O   0  0  0  0  0  0  0  0  0  0  0  0
   -0.5681    2.5759   -1.2503 C   0  0  2  0  0  0  0  0  0  0  0  0
   -1.2361    1.3591   -0.8660 O   0  0  0  0  0  0  0  0  0  0  0  0
   -1.5281    3.4101   -2.0949 C   0  0  1  0  0  0  0  0  0  0  0  0
   -2.6353    3.8103   -1.2985 O   0  0  0  0  0  0  0  0  0  0  0  0
  1  2  1  0  0  0  0
  3  2  1  1  0  0  0
  3  5  1  0  0  0  0
  3  4  1  0  0  0  0
  4  9  1  0  0  0  0
  5  7  1  0  0  0  0
  5  6  1  1  0  0  0
  7  9  1  0  0  0  0
  7  8  1  1  0  0  0
  9 40  1  6  0  0  0
 10  6  1  6  0  0  0
 10 11  1  0  0  0  0
 10 18  1  0  0  0  0
 11 13  1  0  0  0  0
 11 12  1  1  0  0  0
 13 15  1  0  0  0  0
 13 14  1  1  0  0  0
 15 17  1  0  0  0  0
 15 16  1  6  0  0  0
 17 19  1  1  0  0  0
 17 18  1  0  0  0  0
 19 20  1  0  0  0  0
 21 29  1  0  0  0  0
 22 23  1  0  0  0  0
 22 31  1  0  0  0  0
 22 38  1  1  0  0  0
 23 25  1  0  0  0  0
 23 24  1  1  0  0  0
 25 27  1  0  0  0  0
 25 26  1  1  0  0  0
 27 30  1  0  0  0  0
 27 28  1  1  0  0  0
 30 21  1  6  0  0  0
 30 31  1  0  0  0  0
 32 34  1  0  0  0  0
 32 41  1  0  0  0  0
 32 33  1  6  0  0  0
 34 35  1  0  0  0  0
 35 37  1  0  0  0  0
 35 36  1  6  0  0  0
 37 39  1  0  0  0  0
 37 38  1  1  0  0  0
 39 41  1  0  0  0  0
 39 40  1  6  0  0  0
 41 42  1  1  0  0  0
M  CHG  6  12   1  20   1  24   1  29   1  33   1  36   1
M  END
>  <CHROM.1>
176.17508298,-64.15174232,-38.80913904,-154.75771509,-171.69923861,-121.26868774
103.76432046,176.10039112,-70.43388728,159.92320719,60.24172960,173.74377858
51.37483180,-129.38694767,-27.80021494,160.94252069,-55.81299814,51.20197766
69.52308465,-109.12451397,-175.74962007,-60.52480033,-1.22414058,-0.05400372
-0.15202797,-2.52642876,0.04641524,-0.56428580

>  <Name>
1NEM.B

>  <RI>
0

>  <Rbt.Current_Directory>
/home/itssahil/PROJECTS/Mol_Feturizer/New_Systems/rnas/1nem

>  <Rbt.Executable>
rbdock ($Id: //depot/dev/client3/rdock/2013.1/src/exe/rbdock.cxx#4 $)

>  <Rbt.Library>
libRbt.so (2013.1, Build901 2013/11/27)

>  <Rbt.Parameter_File>
/export/apps/rDock/src/rDock_2013.1_src/data/scripts/dock_solv.prm

>  <Rbt.Receptor>
prm/pocket_docking_4.prm

>  <SCORE>
-21.1425

>  <SCORE.INTER>
-41.4873

>  <SCORE.INTER.CONST>
1

>  <SCORE.INTER.POLAR>
-6.16994

>  <SCORE.INTER.ROT>
9

>  <SCORE.INTER.SOLV>
33.0346

>  <SCORE.INTER.VDW>
-27.7033

>  <SCORE.INTER.norm>
-0.987794

>  <SCORE.INTRA>
20.2533

>  <SCORE.INTRA.DIHEDRAL>
13.2753

>  <SCORE.INTRA.DIHEDRAL.0>
22.4324

>  <SCORE.INTRA.POLAR>
-0.242715

>  <SCORE.INTRA.POLAR.0>
-1.83749

>  <SCORE.INTRA.REPUL>
0.0865984

>  <SCORE.INTRA.REPUL.0>
0

>  <SCORE.INTRA.SOLV>
4.50968

>  <SCORE.INTRA.SOLV.lig_0>
-160.638

>  <SCORE.INTRA.VDW>
11.753

>  <SCORE.INTRA.VDW.0>
-7.61953

>  <SCORE.INTRA.norm>
0.48222

>  <SCORE.RESTR>
0.091594

>  <SCORE.RESTR.CAVITY>
0.091594

>  <SCORE.RESTR.norm>
0.00218081

>  <SCORE.SYSTEM>
0

>  <SCORE.SYSTEM.CONST>
0

>  <SCORE.SYSTEM.DIHEDRAL>
0

>  <SCORE.SYSTEM.SOLV>
0

>  <SCORE.SYSTEM.norm>
0

>  <SCORE.heavy>
42

>  <SCORE.norm>
-0.503393

>  <RMSD>
8.308

$$$$
1NEM.B
 OpenBabel11021811403D
libRbt.so/2013.1/901 2013/11/27
 42 45  0  0  0  0  0  0  0  0999 V2000
   -0.1086    2.4813   -2.2398 O   0  0  0  0  0  0  0  0  0  0  0  0
   -0.9611    2.9824   -1.2082 C   0  0  0  0  0  0  0  0  0  0  0  0
   -0.2363    3.1837    0.1218 C   0  0  1  0  0  0  0  0  0  0  0  0
    0.3027    1.9520    0.5930 O   0  0  0  0  0  0  0  0  0  0  0  0
    0.9825    4.0897    0.0494 C   0  0  1  0  0  0  0  0  0  0  0  0
    0.5079    5.4271   -0.1215 O   0  0  0  0  0  0  0  0  0  0  0  0
    1.6041    3.7589    1.3933 C   0  0  1  0  0  0  0  0  0  0  0  0
    0.8355    4.2739    2.4856 O   0  0  0  0  0  0  0  0  0  0  0  0
    1.4874    2.2311    1.3393 C   0  0  2  0  0  0  0  0  0  0  0  0
    0.6822    5.9877   -1.3914 C   0  0  2  0  0  0  0  0  0  0  0  0
    2.1825    6.1466   -1.6729 C   0  0  2  0  0  0  0  0  0  0  0  0
    2.8318    6.9008   -0.5684 N   0  3  0  0  0  0  0  0  0  0  0  0
    2.4145    6.8185   -3.0301 C   0  0  1  0  0  0  0  0  0  0  0  0
    2.0632    5.9201   -4.0742 O   0  0  0  0  0  0  0  0  0  0  0  0
    1.5906    8.1034   -3.1589 C   0  0  2  0  0  0  0  0  0  0  0  0
    2.0843    9.0979   -2.2704 O   0  0  0  0  0  0  0  0  0  0  0  0
    0.1262    7.8076   -2.8476 C   0  0  1  0  0  0  0  0  0  0  0  0
    0.0162    7.2361   -1.5296 O   0  0  0  0  0  0  0  0  0  0  0  0
   -0.7581    9.0410   -2.8989 C   0  0  0  0  0  0  0  0  0  0  0  0
   -2.1856    8.6904   -3.0702 N   0  3  0  0  0  0  0  0  0  0  0  0
    1.6384    2.0551    5.8594 C   0  0  0  0  0  0  0  0  0  0  0  0
    4.0543    2.2187    3.0552 C   0  0  2  0  0  0  0  0  0  0  0  0
    5.2797    2.8000    3.7563 C   0  0  2  0  0  0  0  0  0  0  0  0
    6.5017    2.5299    2.9618 N   0  3  0  0  0  0  0  0  0  0  0  0
    5.4326    2.1856    5.1413 C   0  0  1  0  0  0  0  0  0  0  0  0
    6.5280    2.7897    5.8118 O   0  0  0  0  0  0  0  0  0  0  0  0
    4.1474    2.3966    5.9386 C   0  0  2  0  0  0  0  0  0  0  0  0
    4.2565    1.7657    7.2080 O   0  0  0  0  0  0  0  0  0  0  0  0
    1.5361    1.3031    7.1310 N   0  3  0  0  0  0  0  0  0  0  0  0
    2.9679    1.8050    5.1691 C   0  0  2  0  0  0  0  0  0  0  0  0
    2.8878    2.3935    3.8550 O   0  0  0  0  0  0  0  0  0  0  0  0
    1.8560   -2.0536    0.8495 C   0  0  2  0  0  0  0  0  0  0  0  0
    0.6660   -2.8502    0.4721 N   0  3  0  0  0  0  0  0  0  0  0  0
    2.1073   -2.1707    2.3486 C   0  0  0  0  0  0  0  0  0  0  0  0
    3.3274   -1.3544    2.7517 C   0  0  2  0  0  0  0  0  0  0  0  0
    3.5129   -1.5091    4.1876 N   0  3  0  0  0  0  0  0  0  0  0  0
    3.1127    0.1123    2.3852 C   0  0  1  0  0  0  0  0  0  0  0  0
    4.2827    0.8729    2.7441 O   0  0  0  0  0  0  0  0  0  0  0  0
    2.8466    0.2643    0.8812 C   0  0  2  0  0  0  0  0  0  0  0  0
    2.5456    1.6418    0.5869 O   0  0  0  0  0  0  0  0  0  0  0  0
    1.6678   -0.5959    0.4327 C   0  0  1  0  0  0  0  0  0  0  0  0
    1.5364   -0.5208   -0.9807 O   0  0  0  0  0  0  0  0  0  0  0  0
  1  2  1  0  0  0  0
  3  2  1  6  0  0  0
  3  5  1  0  0  0  0
  3  4  1  0  0  0  0
  4  9  1  0  0  0  0
  5  7  1  0  0  0  0
  5  6  1  1  0  0  0
  7  9  1  0  0  0  0
  7  8  1  1  0  0  0
  9 40  1  6  0  0  0
 10  6  1  1  0  0  0
 10 11  1  0  0  0  0
 10 18  1  0  0  0  0
 11 13  1  0  0  0  0
 11 12  1  1  0  0  0
 13 15  1  0  0  0  0
 13 14  1  6  0  0  0
 15 17  1  0  0  0  0
 15 16  1  1  0  0  0
 17 19  1  1  0  0  0
 17 18  1  0  0  0  0
 19 20  1  0  0  0  0
 21 29  1  0  0  0  0
 22 23  1  0  0  0  0
 22 31  1  0  0  0  0
 22 38  1  1  0  0  0
 23 25  1  0  0  0  0
 23 24  1  6  0  0  0
 25 27  1  0  0  0  0
 25 26  1  1  0  0  0
 27 30  1  0  0  0  0
 27 28  1  1  0  0  0
 30 21  1  1  0  0  0
 30 31  1  0  0  0  0
 32 34  1  0  0  0  0
 32 41  1  0  0  0  0
 32 33  1  1  0  0  0
 34 35  1  0  0  0  0
 35 37  1  0  0  0  0
 35 36  1  1  0  0  0
 37 39  1  0  0  0  0
 37 38  1  6  0  0  0
 39 41  1  0  0  0  0
 39 40  1  1  0  0  0
 41 42  1  6  0  0  0
M  CHG  6  12   1  20   1  24   1  29   1  33   1  36   1
M  END
>  <CHROM.1>
74.59280994,-60.14393071,-107.00631241,-65.47585461,-62.75604891,-88.58047833
-179.28977092,174.60354350,-112.22534168,159.92224824,175.90221722,-67.89968717
-170.26613783,165.29049038,-171.68220760,68.15986171,136.76002716,-89.28909821
167.30931353,-151.72749276,-54.28086236,74.12003615,2.09274670,3.06667937
1.16591809,2.18873426,-1.01407961,-0.24580621

>  <Name>
1NEM.B

>  <RI>
0

>  <Rbt.Current_Directory>
/home/itssahil/PROJECTS/Mol_Feturizer/New_Systems/rnas/1nem

>  <Rbt.Executable>
rbdock ($Id: //depot/dev/client3/rdock/2013.1/src/exe/rbdock.cxx#4 $)

>  <Rbt.Library>
libRbt.so (2013.1, Build901 2013/11/27)

>  <Rbt.Parameter_File>
/export/apps/rDock/src/rDock_2013.1_src/data/scripts/dock_solv.prm

>  <Rbt.Receptor>
prm/pocket_docking_8.prm

>  <SCORE>
-38.6431

>  <SCORE.INTER>
-52.1906

>  <SCORE.INTER.CONST>
1

>  <SCORE.INTER.POLAR>
-7.50576

>  <SCORE.INTER.ROT>
9

>  <SCORE.INTER.SOLV>
37.0462

>  <SCORE.INTER.VDW>
-31.7233

>  <SCORE.INTER.norm>
-1.24263

>  <SCORE.INTRA>
13.5475

>  <SCORE.INTRA.DIHEDRAL>
11.5365

>  <SCORE.INTRA.DIHEDRAL.0>
22.4324

>  <SCORE.INTRA.POLAR>
1.76344

>  <SCORE.INTRA.POLAR.0>
-1.83749

>  <SCORE.INTRA.REPUL>
0

>  <SCORE.INTRA.REPUL.0>
0

>  <SCORE.INTRA.SOLV>
-3.67839

>  <SCORE.INTRA.SOLV.lig_0>
-160.638

>  <SCORE.INTRA.VDW>
3.62272

>  <SCORE.INTRA.VDW.0>
-7.61953

>  <SCORE.INTRA.norm>
0.322559

>  <SCORE.RESTR>
0

>  <SCORE.RESTR.CAVITY>
0

>  <SCORE.RESTR.norm>
0

>  <SCORE.SYSTEM>
0

>  <SCORE.SYSTEM.CONST>
0

>  <SCORE.SYSTEM.DIHEDRAL>
0

>  <SCORE.SYSTEM.SOLV>
0

>  <SCORE.SYSTEM.norm>
0

>  <SCORE.heavy>
42

>  <SCORE.norm>
-0.920075

>  <RMSD>
8.324

$$$$
1NEM.B
 OpenBabel11021811403D
libRbt.so/2013.1/901 2013/11/27
 42 45  0  0  0  0  0  0  0  0999 V2000
   -3.7989    1.5529    1.3560 O   0  0  0  0  0  0  0  0  0  0  0  0
   -2.8057    1.2415    0.3769 C   0  0  0  0  0  0  0  0  0  0  0  0
   -2.4223   -0.2376    0.3629 C   0  0  1  0  0  0  0  0  0  0  0  0
   -1.0417   -0.3970    0.0497 O   0  0  0  0  0  0  0  0  0  0  0  0
   -2.5563   -0.9404    1.7044 C   0  0  1  0  0  0  0  0  0  0  0  0
   -3.9531   -1.1007    1.9623 O   0  0  0  0  0  0  0  0  0  0  0  0
   -1.7772   -2.2036    1.3893 C   0  0  1  0  0  0  0  0  0  0  0  0
   -2.4710   -3.0504    0.4669 O   0  0  0  0  0  0  0  0  0  0  0  0
   -0.5591   -1.5678    0.7091 C   0  0  2  0  0  0  0  0  0  0  0  0
   -4.3864   -2.4029    2.2342 C   0  0  2  0  0  0  0  0  0  0  0  0
   -5.9203   -2.4275    2.2760 C   0  0  2  0  0  0  0  0  0  0  0  0
   -6.4216   -1.3973    3.2235 N   0  3  0  0  0  0  0  0  0  0  0  0
   -6.4337   -3.8254    2.6362 C   0  0  1  0  0  0  0  0  0  0  0  0
   -6.2040   -4.7131    1.5500 O   0  0  0  0  0  0  0  0  0  0  0  0
   -5.7418   -4.3616    3.8932 C   0  0  2  0  0  0  0  0  0  0  0  0
   -6.1454   -3.6165    5.0351 O   0  0  0  0  0  0  0  0  0  0  0  0
   -4.2278   -4.2740    3.7227 C   0  0  1  0  0  0  0  0  0  0  0  0
   -3.8484   -2.9114    3.4479 O   0  0  0  0  0  0  0  0  0  0  0  0
   -3.4592   -4.7365    4.9480 C   0  0  0  0  0  0  0  0  0  0  0  0
   -2.5234   -3.6996    5.4369 N   0  3  0  0  0  0  0  0  0  0  0  0
    1.0942    3.9246    2.0506 C   0  0  0  0  0  0  0  0  0  0  0  0
    3.1697    1.2455    3.5477 C   0  0  2  0  0  0  0  0  0  0  0  0
    3.1140    1.6219    5.0263 C   0  0  2  0  0  0  0  0  0  0  0  0
    3.4776    0.4561    5.8667 N   0  3  0  0  0  0  0  0  0  0  0  0
    1.7137    2.0927    5.3956 C   0  0  1  0  0  0  0  0  0  0  0  0
    1.6947    2.5127    6.7512 O   0  0  0  0  0  0  0  0  0  0  0  0
    1.3050    3.2464    4.4824 C   0  0  2  0  0  0  0  0  0  0  0  0
   -0.0277    3.6461    4.7747 O   0  0  0  0  0  0  0  0  0  0  0  0
    1.1070    3.4479    0.6486 N   0  3  0  0  0  0  0  0  0  0  0  0
    1.4009    2.8004    3.0246 C   0  0  2  0  0  0  0  0  0  0  0  0
    2.7341    2.3326    2.7357 O   0  0  0  0  0  0  0  0  0  0  0  0
    3.2484   -0.6796   -0.7669 C   0  0  2  0  0  0  0  0  0  0  0  0
    3.5799   -1.4094   -2.0122 N   0  3  0  0  0  0  0  0  0  0  0  0
    4.3681   -0.8536    0.2529 C   0  0  0  0  0  0  0  0  0  0  0  0
    4.0396   -0.1100    1.5399 C   0  0  2  0  0  0  0  0  0  0  0  0
    5.1438   -0.3139    2.4669 N   0  3  0  0  0  0  0  0  0  0  0  0
    2.7327   -0.6404    2.1246 C   0  0  1  0  0  0  0  0  0  0  0  0
    2.4144    0.0875    3.3268 O   0  0  0  0  0  0  0  0  0  0  0  0
    1.5844   -0.4889    1.1173 C   0  0  2  0  0  0  0  0  0  0  0  0
    0.3931   -1.0917    1.6577 O   0  0  0  0  0  0  0  0  0  0  0  0
    1.9124   -1.1686   -0.2098 C   0  0  1  0  0  0  0  0  0  0  0  0
    0.8803   -0.8981   -1.1491 O   0  0  0  0  0  0  0  0  0  0  0  0
  1  2  1  0  0  0  0
  3  2  1  1  0  0  0
  3  5  1  0  0  0  0
  3  4  1  0  0  0  0
  4  9  1  0  0  0  0
  5  7  1  0  0  0  0
  5  6  1  6  0  0  0
  7  9  1  0  0  0  0
  7  8  1  6  0  0  0
  9 40  1  1  0  0  0
 10  6  1  1  0  0  0
 10 11  1  0  0  0  0
 10 18  1  0  0  0  0
 11 13  1  0  0  0  0
 11 12  1  1  0  0  0
 13 15  1  0  0  0  0
 13 14  1  6  0  0  0
 15 17  1  0  0  0  0
 15 16  1  1  0  0  0
 17 19  1  1  0  0  0
 17 18  1  0  0  0  0
 19 20  1  0  0  0  0
 21 29  1  0  0  0  0
 22 23  1  0  0  0  0
 22 31  1  0  0  0  0
 22 38  1  1  0  0  0
 23 25  1  0  0  0  0
 23 24  1  1  0  0  0
 25 27  1  0  0  0  0
 25 26  1  1  0  0  0
 27 30  1  0  0  0  0
 27 28  1  1  0  0  0
 30 21  1  6  0  0  0
 30 31  1  0  0  0  0
 32 34  1  0  0  0  0
 32 41  1  0  0  0  0
 32 33  1  6  0  0  0
 34 35  1  0  0  0  0
 35 37  1  0  0  0  0
 35 36  1  1  0  0  0
 37 39  1  0  0  0  0
 37 38  1  1  0  0  0
 39 41  1  0  0  0  0
 39 40  1  1  0  0  0
 41 42  1  6  0  0  0
M  CHG  6  12   1  20   1  24   1  29   1  33   1  36   1
M  END
>  <CHROM.1>
76.96753475,-145.59875758,125.52663111,-171.55565488,85.71926370,-66.05397083
173.66835227,62.94178355,-165.39461768,-124.54605901,7.60665091,-176.29812377
-55.08235051,-159.40201753,-2.34959529,56.90246943,51.72110079,-44.81048437
-162.11216415,12.18684772,-153.40643224,-54.36505660,-0.62257765,-0.59208828
2.38588959,2.95593684,-0.46813280,-2.06755028

>  <Name>
1NEM.B

>  <RI>
0

>  <Rbt.Current_Directory>
/home/itssahil/PROJECTS/Mol_Feturizer/New_Systems/rnas/1nem

>  <Rbt.Executable>
rbdock ($Id: //depot/dev/client3/rdock/2013.1/src/exe/rbdock.cxx#4 $)

>  <Rbt.Library>
libRbt.so (2013.1, Build901 2013/11/27)

>  <Rbt.Parameter_File>
/export/apps/rDock/src/rDock_2013.1_src/data/scripts/dock_solv.prm

>  <Rbt.Receptor>
prm/blind_docking_20.prm

>  <SCORE>
14.7191

>  <SCORE.INTER>
-24.7333

>  <SCORE.INTER.CONST>
1

>  <SCORE.INTER.POLAR>
-4.52805

>  <SCORE.INTER.ROT>
9

>  <SCORE.INTER.SOLV>
44.8199

>  <SCORE.INTER.VDW>
-25.9354

>  <SCORE.INTER.norm>
-0.588889

>  <SCORE.INTRA>
32.2459

>  <SCORE.INTRA.DIHEDRAL>
19.1457

>  <SCORE.INTRA.DIHEDRAL.0>
22.4324

>  <SCORE.INTRA.POLAR>
0.791664

>  <SCORE.INTRA.POLAR.0>
-1.83749

>  <SCORE.INTRA.REPUL>
0

>  <SCORE.INTRA.REPUL.0>
0

>  <SCORE.INTRA.SOLV>
-2.15113

>  <SCORE.INTRA.SOLV.lig_0>
-160.638

>  <SCORE.INTRA.VDW>
21.0569

>  <SCORE.INTRA.VDW.0>
-7.61953

>  <SCORE.INTRA.norm>
0.767759

>  <SCORE.RESTR>
7.20657

>  <SCORE.RESTR.CAVITY>
7.20657

>  <SCORE.RESTR.norm>
0.171585

>  <SCORE.SYSTEM>
0

>  <SCORE.SYSTEM.CONST>
0

>  <SCORE.SYSTEM.DIHEDRAL>
0

>  <SCORE.SYSTEM.SOLV>
0

>  <SCORE.SYSTEM.norm>
0

>  <SCORE.heavy>
42

>  <SCORE.norm>
0.350455

>  <RMSD>
8.329

$$$$
1NEM.B
 OpenBabel11021811403D
libRbt.so/2013.1/901 2013/11/27
 42 45  0  0  0  0  0  0  0  0999 V2000
   -8.4434   -3.2422    1.5571 O   0  0  0  0  0  0  0  0  0  0  0  0
   -7.3974   -2.2687    1.5787 C   0  0  0  0  0  0  0  0  0  0  0  0
   -6.1494   -2.7144    0.8181 C   0  0  1  0  0  0  0  0  0  0  0  0
   -5.3773   -1.5877    0.4132 O   0  0  0  0  0  0  0  0  0  0  0  0
   -5.1647   -3.5322    1.6385 C   0  0  1  0  0  0  0  0  0  0  0  0
   -5.7463   -4.8227    1.8374 O   0  0  0  0  0  0  0  0  0  0  0  0
   -3.9681   -3.4656    0.7081 C   0  0  1  0  0  0  0  0  0  0  0  0
   -4.1678   -4.2312   -0.4848 O   0  0  0  0  0  0  0  0  0  0  0  0
   -4.0011   -1.9670    0.3857 C   0  0  2  0  0  0  0  0  0  0  0  0
   -5.2151   -5.5860    2.8826 C   0  0  2  0  0  0  0  0  0  0  0  0
   -6.1855   -6.7258    3.2208 C   0  0  2  0  0  0  0  0  0  0  0  0
   -7.5436   -6.1795    3.4808 N   0  3  0  0  0  0  0  0  0  0  0  0
   -5.6695   -7.5477    4.4064 C   0  0  1  0  0  0  0  0  0  0  0  0
   -4.5342   -8.3034    4.0057 O   0  0  0  0  0  0  0  0  0  0  0  0
   -5.2950   -6.6434    5.5847 C   0  0  2  0  0  0  0  0  0  0  0  0
   -6.4613   -6.0532    6.1446 O   0  0  0  0  0  0  0  0  0  0  0  0
   -4.3362   -5.5545    5.1116 C   0  0  1  0  0  0  0  0  0  0  0  0
   -4.9424   -4.8064    4.0397 O   0  0  0  0  0  0  0  0  0  0  0  0
   -3.9531   -4.5760    6.2078 C   0  0  0  0  0  0  0  0  0  0  0  0
   -2.6117   -3.9927    5.9835 N   0  3  0  0  0  0  0  0  0  0  0  0
    3.4766   -0.5427   -0.2029 C   0  0  0  0  0  0  0  0  0  0  0  0
    0.2177   -2.1050    0.6131 C   0  0  2  0  0  0  0  0  0  0  0  0
    0.6246   -3.0717    1.7226 C   0  0  2  0  0  0  0  0  0  0  0  0
   -0.5618   -3.4692    2.5176 N   0  3  0  0  0  0  0  0  0  0  0  0
    1.6495   -2.4171    2.6392 C   0  0  1  0  0  0  0  0  0  0  0  0
    2.0771   -3.3509    3.6189 O   0  0  0  0  0  0  0  0  0  0  0  0
    2.8418   -1.9390    1.8134 C   0  0  2  0  0  0  0  0  0  0  0  0
    3.7717   -1.2651    2.6516 O   0  0  0  0  0  0  0  0  0  0  0  0
    4.6823   -0.1479    0.5609 N   0  3  0  0  0  0  0  0  0  0  0  0
    2.3555   -0.9920    0.7180 C   0  0  2  0  0  0  0  0  0  0  0  0
    1.3638   -1.6465   -0.0991 O   0  0  0  0  0  0  0  0  0  0  0  0
   -2.9375    2.0051   -0.5436 C   0  0  2  0  0  0  0  0  0  0  0  0
   -3.8472    2.7105   -1.4753 N   0  3  0  0  0  0  0  0  0  0  0  0
   -1.6663    1.5865   -1.2735 C   0  0  0  0  0  0  0  0  0  0  0  0
   -0.7219    0.8576   -0.3279 C   0  0  2  0  0  0  0  0  0  0  0  0
    0.4672    0.4879   -1.0824 N   0  3  0  0  0  0  0  0  0  0  0  0
   -1.4125   -0.3798    0.2409 C   0  0  1  0  0  0  0  0  0  0  0  0
   -0.5225   -1.0480    1.1562 O   0  0  0  0  0  0  0  0  0  0  0  0
   -2.7039    0.0066    0.9751 C   0  0  2  0  0  0  0  0  0  0  0  0
   -3.3825   -1.1881    1.4074 O   0  0  0  0  0  0  0  0  0  0  0  0
   -3.6451    0.7984    0.0708 C   0  0  1  0  0  0  0  0  0  0  0  0
   -4.7666    1.2403    0.8241 O   0  0  0  0  0  0  0  0  0  0  0  0
  1  2  1  0  0  0  0
  3  2  1  1  0  0  0
  3  5  1  0  0  0  0
  3  4  1  0  0  0  0
  4  9  1  0  0  0  0
  5  7  1  0  0  0  0
  5  6  1  6  0  0  0
  7  9  1  0  0  0  0
  7  8  1  6  0  0  0
  9 40  1  1  0  0  0
 10  6  1  6  0  0  0
 10 11  1  0  0  0  0
 10 18  1  0  0  0  0
 11 13  1  0  0  0  0
 11 12  1  1  0  0  0
 13 15  1  0  0  0  0
 13 14  1  6  0  0  0
 15 17  1  0  0  0  0
 15 16  1  6  0  0  0
 17 19  1  1  0  0  0
 17 18  1  0  0  0  0
 19 20  1  0  0  0  0
 21 29  1  0  0  0  0
 22 23  1  0  0  0  0
 22 31  1  0  0  0  0
 22 38  1  1  0  0  0
 23 25  1  0  0  0  0
 23 24  1  1  0  0  0
 25 27  1  0  0  0  0
 25 26  1  1  0  0  0
 27 30  1  0  0  0  0
 27 28  1  1  0  0  0
 30 21  1  6  0  0  0
 30 31  1  0  0  0  0
 32 34  1  0  0  0  0
 32 41  1  0  0  0  0
 32 33  1  6  0  0  0
 34 35  1  0  0  0  0
 35 37  1  0  0  0  0
 35 36  1  6  0  0  0
 37 39  1  0  0  0  0
 37 38  1  1  0  0  0
 39 41  1  0  0  0  0
 39 40  1  6  0  0  0
 41 42  1  1  0  0  0
M  CHG  6  12   1  20   1  24   1  29   1  33   1  36   1
M  END
>  <CHROM.1>
-55.20753870,157.06806553,-161.28396000,163.68163405,130.75047875,-98.29107182
-73.55459176,-174.09099140,-177.47865598,151.68202093,-39.30278325,-45.28576850
-64.41821662,-155.73696678,-154.64068789,66.24883423,-57.13742410,-87.66615490
-122.49933712,-95.72528754,-71.97792960,68.38466048,-2.61332144,-2.56795851
1.82807355,2.43745066,0.09237423,2.47257985

>  <Name>
1NEM.B

>  <RI>
0

>  <Rbt.Current_Directory>
/home/itssahil/PROJECTS/Mol_Feturizer/New_Systems/rnas/1nem

>  <Rbt.Executable>
rbdock ($Id: //depot/dev/client3/rdock/2013.1/src/exe/rbdock.cxx#4 $)

>  <Rbt.Library>
libRbt.so (2013.1, Build901 2013/11/27)

>  <Rbt.Parameter_File>
/export/apps/rDock/src/rDock_2013.1_src/data/scripts/dock_solv.prm

>  <Rbt.Receptor>
prm/blind_docking_60.prm

>  <SCORE>
-16.9246

>  <SCORE.INTER>
-41.3421

>  <SCORE.INTER.CONST>
1

>  <SCORE.INTER.POLAR>
-6.79871

>  <SCORE.INTER.ROT>
9

>  <SCORE.INTER.SOLV>
44.3138

>  <SCORE.INTER.VDW>
-29.2703

>  <SCORE.INTER.norm>
-0.984337

>  <SCORE.INTRA>
14.9549

>  <SCORE.INTRA.DIHEDRAL>
13.666

>  <SCORE.INTRA.DIHEDRAL.0>
22.4324

>  <SCORE.INTRA.POLAR>
-0.183897

>  <SCORE.INTRA.POLAR.0>
-1.83749

>  <SCORE.INTRA.REPUL>
0

>  <SCORE.INTRA.REPUL.0>
0

>  <SCORE.INTRA.SOLV>
1.52913

>  <SCORE.INTRA.SOLV.lig_0>
-160.638

>  <SCORE.INTRA.VDW>
7.98254

>  <SCORE.INTRA.VDW.0>
-7.61953

>  <SCORE.INTRA.norm>
0.356068

>  <SCORE.RESTR>
9.46274

>  <SCORE.RESTR.CAVITY>
9.46274

>  <SCORE.RESTR.norm>
0.225303

>  <SCORE.SYSTEM>
0

>  <SCORE.SYSTEM.CONST>
0

>  <SCORE.SYSTEM.DIHEDRAL>
0

>  <SCORE.SYSTEM.SOLV>
0

>  <SCORE.SYSTEM.norm>
0

>  <SCORE.heavy>
42

>  <SCORE.norm>
-0.402966

>  <RMSD>
8.331

$$$$
1NEM.B
 OpenBabel11021811403D
libRbt.so/2013.1/901 2013/11/27
 42 45  0  0  0  0  0  0  0  0999 V2000
   -4.7260    1.9803    0.0717 O   0  0  0  0  0  0  0  0  0  0  0  0
   -4.4864    1.0414    1.1221 C   0  0  0  0  0  0  0  0  0  0  0  0
   -3.5742   -0.1092    0.6994 C   0  0  1  0  0  0  0  0  0  0  0  0
   -2.4997    0.3692   -0.1045 O   0  0  0  0  0  0  0  0  0  0  0  0
   -2.8632   -0.8093    1.8465 C   0  0  1  0  0  0  0  0  0  0  0  0
   -3.8427   -1.5804    2.5460 O   0  0  0  0  0  0  0  0  0  0  0  0
   -1.8338   -1.5871    1.0481 C   0  0  1  0  0  0  0  0  0  0  0  0
   -2.4263   -2.6469    0.2898 O   0  0  0  0  0  0  0  0  0  0  0  0
   -1.3632   -0.4673    0.1127 C   0  0  2  0  0  0  0  0  0  0  0  0
   -4.2621   -2.7602    1.9220 C   0  0  2  0  0  0  0  0  0  0  0  0
   -5.3415   -2.4270    0.8831 C   0  0  2  0  0  0  0  0  0  0  0  0
   -6.4323   -1.6390    1.5152 N   0  3  0  0  0  0  0  0  0  0  0  0
   -5.8744   -3.7024    0.2222 C   0  0  1  0  0  0  0  0  0  0  0  0
   -4.8770   -4.2521   -0.6285 O   0  0  0  0  0  0  0  0  0  0  0  0
   -6.2830   -4.7401    1.2723 C   0  0  2  0  0  0  0  0  0  0  0  0
   -7.4318   -4.2969    1.9837 O   0  0  0  0  0  0  0  0  0  0  0  0
   -5.1274   -4.9717    2.2418 C   0  0  1  0  0  0  0  0  0  0  0  0
   -4.7463   -3.7223    2.8499 O   0  0  0  0  0  0  0  0  0  0  0  0
   -5.4647   -5.9501    3.3530 C   0  0  0  0  0  0  0  0  0  0  0  0
   -6.4856   -5.4069    4.2763 N   0  3  0  0  0  0  0  0  0  0  0  0
    2.9641    3.1844    1.4034 C   0  0  0  0  0  0  0  0  0  0  0  0
    3.3868   -0.4963    1.4321 C   0  0  2  0  0  0  0  0  0  0  0  0
    3.6378   -0.7519    2.9163 C   0  0  2  0  0  0  0  0  0  0  0  0
    3.3789   -2.1745    3.2430 N   0  3  0  0  0  0  0  0  0  0  0  0
    2.7313    0.1327    3.7617 C   0  0  1  0  0  0  0  0  0  0  0  0
    3.0283   -0.0574    5.1366 O   0  0  0  0  0  0  0  0  0  0  0  0
    2.9409    1.5954    3.3764 C   0  0  2  0  0  0  0  0  0  0  0  0
    2.0486    2.4223    4.1123 O   0  0  0  0  0  0  0  0  0  0  0  0
    3.4282    3.2037   -0.0028 N   0  3  0  0  0  0  0  0  0  0  0  0
    2.6882    1.7690    1.8800 C   0  0  2  0  0  0  0  0  0  0  0  0
    3.5449    0.8867    1.1267 O   0  0  0  0  0  0  0  0  0  0  0  0
    1.4862    1.4640   -2.3426 C   0  0  2  0  0  0  0  0  0  0  0  0
    1.0050    1.9103   -3.6703 N   0  3  0  0  0  0  0  0  0  0  0  0
    2.3229    0.1982   -2.4902 C   0  0  0  0  0  0  0  0  0  0  0  0
    2.8227   -0.2738   -1.1320 C   0  0  2  0  0  0  0  0  0  0  0  0
    3.6122   -1.4792   -1.3416 N   0  3  0  0  0  0  0  0  0  0  0  0
    1.6362   -0.5530   -0.2124 C   0  0  1  0  0  0  0  0  0  0  0  0
    2.1182   -0.9719    1.0793 O   0  0  0  0  0  0  0  0  0  0  0  0
    0.7661    0.7011   -0.0504 C   0  0  2  0  0  0  0  0  0  0  0  0
   -0.3968    0.3765    0.7351 O   0  0  0  0  0  0  0  0  0  0  0  0
    0.3033    1.2384   -1.4023 C   0  0  1  0  0  0  0  0  0  0  0  0
   -0.3915    2.4639   -1.2131 O   0  0  0  0  0  0  0  0  0  0  0  0
  1  2  1  0  0  0  0
  3  2  1  1  0  0  0
  3  5  1  0  0  0  0
  3  4  1  0  0  0  0
  4  9  1  0  0  0  0
  5  7  1  0  0  0  0
  5  6  1  6  0  0  0
  7  9  1  0  0  0  0
  7  8  1  6  0  0  0
  9 40  1  1  0  0  0
 10  6  1  1  0  0  0
 10 11  1  0  0  0  0
 10 18  1  0  0  0  0
 11 13  1  0  0  0  0
 11 12  1  1  0  0  0
 13 15  1  0  0  0  0
 13 14  1  6  0  0  0
 15 17  1  0  0  0  0
 15 16  1  1  0  0  0
 17 19  1  1  0  0  0
 17 18  1  0  0  0  0
 19 20  1  0  0  0  0
 21 29  1  0  0  0  0
 22 23  1  0  0  0  0
 22 31  1  0  0  0  0
 22 38  1  1  0  0  0
 23 25  1  0  0  0  0
 23 24  1  6  0  0  0
 25 27  1  0  0  0  0
 25 26  1  1  0  0  0
 27 30  1  0  0  0  0
 27 28  1  1  0  0  0
 30 21  1  6  0  0  0
 30 31  1  0  0  0  0
 32 34  1  0  0  0  0
 32 41  1  0  0  0  0
 32 33  1  6  0  0  0
 34 35  1  0  0  0  0
 35 37  1  0  0  0  0
 35 36  1  6  0  0  0
 37 39  1  0  0  0  0
 37 38  1  1  0  0  0
 39 41  1  0  0  0  0
 39 40  1  1  0  0  0
 41 42  1  1  0  0  0
M  CHG  6  12   1  20   1  24   1  29   1  33   1  36   1
M  END
>  <CHROM.1>
-57.87639610,41.23206700,75.13423594,-82.39076249,161.32713217,-111.18855799
158.70561596,-62.47725322,72.92734403,-67.29846722,48.57806384,149.35374641
175.84310642,167.59461893,-177.42061804,-175.70667693,169.06334537,-52.57812860
167.04051673,27.08411506,-69.82340165,-60.83014942,-0.99752885,-0.77541798
1.05023260,2.77570138,0.36487222,2.16608176

>  <Name>
1NEM.B

>  <RI>
0

>  <Rbt.Current_Directory>
/home/itssahil/PROJECTS/Mol_Feturizer/New_Systems/rnas/1nem

>  <Rbt.Executable>
rbdock ($Id: //depot/dev/client3/rdock/2013.1/src/exe/rbdock.cxx#4 $)

>  <Rbt.Library>
libRbt.so (2013.1, Build901 2013/11/27)

>  <Rbt.Parameter_File>
/export/apps/rDock/src/rDock_2013.1_src/data/scripts/dock_solv.prm

>  <Rbt.Receptor>
prm/pocket_docking_5.prm

>  <SCORE>
-26.4944

>  <SCORE.INTER>
-40.3892

>  <SCORE.INTER.CONST>
1

>  <SCORE.INTER.POLAR>
-6.45274

>  <SCORE.INTER.ROT>
9

>  <SCORE.INTER.SOLV>
33.1775

>  <SCORE.INTER.VDW>
-26.0762

>  <SCORE.INTER.norm>
-0.961647

>  <SCORE.INTRA>
13.8543

>  <SCORE.INTRA.DIHEDRAL>
2.59907

>  <SCORE.INTRA.DIHEDRAL.0>
22.4324

>  <SCORE.INTRA.POLAR>
0.377161

>  <SCORE.INTRA.POLAR.0>
-1.83749

>  <SCORE.INTRA.REPUL>
0.00545058

>  <SCORE.INTRA.REPUL.0>
0

>  <SCORE.INTRA.SOLV>
1.99618

>  <SCORE.INTRA.SOLV.lig_0>
-160.638

>  <SCORE.INTRA.VDW>
10.247

>  <SCORE.INTRA.VDW.0>
-7.61953

>  <SCORE.INTRA.norm>
0.329863

>  <SCORE.RESTR>
0.0405215

>  <SCORE.RESTR.CAVITY>
0.0405215

>  <SCORE.RESTR.norm>
0.000964797

>  <SCORE.SYSTEM>
0

>  <SCORE.SYSTEM.CONST>
0

>  <SCORE.SYSTEM.DIHEDRAL>
0

>  <SCORE.SYSTEM.SOLV>
0

>  <SCORE.SYSTEM.norm>
0

>  <SCORE.heavy>
42

>  <SCORE.norm>
-0.630819

>  <RMSD>
8.340

$$$$
1NEM.B
 OpenBabel11021811403D
libRbt.so/2013.1/901 2013/11/27
 42 45  0  0  0  0  0  0  0  0999 V2000
    0.4200   -0.8466   -0.1722 O   0  0  0  0  0  0  0  0  0  0  0  0
    1.4418   -1.8349   -0.3176 C   0  0  0  0  0  0  0  0  0  0  0  0
    2.2597   -2.0418    0.9563 C   0  0  1  0  0  0  0  0  0  0  0  0
    3.2789   -1.0526    1.0666 O   0  0  0  0  0  0  0  0  0  0  0  0
    1.4751   -1.8759    2.2480 C   0  0  1  0  0  0  0  0  0  0  0  0
    0.6202   -3.0145    2.3748 O   0  0  0  0  0  0  0  0  0  0  0  0
    2.6358   -1.7897    3.2212 C   0  0  1  0  0  0  0  0  0  0  0  0
    3.3123   -3.0428    3.3678 O   0  0  0  0  0  0  0  0  0  0  0  0
    3.5182   -0.8000    2.4514 C   0  0  2  0  0  0  0  0  0  0  0  0
   -0.7045   -2.7553    2.7424 C   0  0  2  0  0  0  0  0  0  0  0  0
   -1.4093   -4.0804    3.0631 C   0  0  2  0  0  0  0  0  0  0  0  0
   -1.2555   -5.0280    1.9278 N   0  3  0  0  0  0  0  0  0  0  0  0
   -2.8834   -3.8446    3.4079 C   0  0  1  0  0  0  0  0  0  0  0  0
   -2.9814   -3.2028    4.6724 O   0  0  0  0  0  0  0  0  0  0  0  0
   -3.5702   -2.9861    2.3413 C   0  0  2  0  0  0  0  0  0  0  0  0
   -3.6839   -3.7099    1.1226 O   0  0  0  0  0  0  0  0  0  0  0  0
   -2.7667   -1.7086    2.1151 C   0  0  1  0  0  0  0  0  0  0  0  0
   -1.4171   -2.0443    1.7385 O   0  0  0  0  0  0  0  0  0  0  0  0
   -3.3484   -0.8192    1.0304 C   0  0  0  0  0  0  0  0  0  0  0  0
   -2.4259    0.2775    0.6616 N   0  3  0  0  0  0  0  0  0  0  0  0
    5.8146   -0.3567    8.3593 C   0  0  0  0  0  0  0  0  0  0  0  0
    3.6536    0.6614    5.5272 C   0  0  2  0  0  0  0  0  0  0  0  0
    2.4192    1.1704    6.2675 C   0  0  2  0  0  0  0  0  0  0  0  0
    1.6151    2.0467    5.3825 N   0  3  0  0  0  0  0  0  0  0  0  0
    2.8353    1.9511    7.5070 C   0  0  1  0  0  0  0  0  0  0  0  0
    1.6799    2.3520    8.2273 O   0  0  0  0  0  0  0  0  0  0  0  0
    3.7257    1.0764    8.3868 C   0  0  2  0  0  0  0  0  0  0  0  0
    4.1751    1.8207    9.5118 O   0  0  0  0  0  0  0  0  0  0  0  0
    6.3430    0.2807    9.5871 N   0  3  0  0  0  0  0  0  0  0  0  0
    4.9266    0.5939    7.5755 C   0  0  2  0  0  0  0  0  0  0  0  0
    4.4797   -0.1077    6.3974 O   0  0  0  0  0  0  0  0  0  0  0  0
    6.0929    2.2717    1.1288 C   0  0  2  0  0  0  0  0  0  0  0  0
    6.8479    1.9894   -0.1136 N   0  3  0  0  0  0  0  0  0  0  0  0
    7.0103    2.1347    2.3386 C   0  0  0  0  0  0  0  0  0  0  0  0
    6.2465    2.4201    3.6241 C   0  0  2  0  0  0  0  0  0  0  0  0
    7.1750    2.2746    4.7362 N   0  3  0  0  0  0  0  0  0  0  0  0
    5.0784    1.4460    3.7589 C   0  0  1  0  0  0  0  0  0  0  0  0
    4.3442    1.7408    4.9632 O   0  0  0  0  0  0  0  0  0  0  0  0
    4.1389    1.5516    2.5496 C   0  0  2  0  0  0  0  0  0  0  0  0
    3.1090    0.5504    2.6568 O   0  0  0  0  0  0  0  0  0  0  0  0
    4.8901    1.3360    1.2382 C   0  0  1  0  0  0  0  0  0  0  0  0
    4.0111    1.5649    0.1448 O   0  0  0  0  0  0  0  0  0  0  0  0
  1  2  1  0  0  0  0
  3  2  1  6  0  0  0
  3  5  1  0  0  0  0
  3  4  1  0  0  0  0
  4  9  1  0  0  0  0
  5  7  1  0  0  0  0
  5  6  1  1  0  0  0
  7  9  1  0  0  0  0
  7  8  1  6  0  0  0
  9 40  1  1  0  0  0
 10  6  1  6  0  0  0
 10 11  1  0  0  0  0
 10 18  1  0  0  0  0
 11 13  1  0  0  0  0
 11 12  1  6  0  0  0
 13 15  1  0  0  0  0
 13 14  1  1  0  0  0
 15 17  1  0  0  0  0
 15 16  1  6  0  0  0
 17 19  1  6  0  0  0
 17 18  1  0  0  0  0
 19 20  1  0  0  0  0
 21 29  1  0  0  0  0
 22 23  1  0  0  0  0
 22 31  1  0  0  0  0
 22 38  1  1  0  0  0
 23 25  1  0  0  0  0
 23 24  1  6  0  0  0
 25 27  1  0  0  0  0
 25 26  1  1  0  0  0
 27 30  1  0  0  0  0
 27 28  1  1  0  0  0
 30 21  1  1  0  0  0
 30 31  1  0  0  0  0
 32 34  1  0  0  0  0
 32 41  1  0  0  0  0
 32 33  1  6  0  0  0
 34 35  1  0  0  0  0
 35 37  1  0  0  0  0
 35 36  1  1  0  0  0
 37 39  1  0  0  0  0
 37 38  1  1  0  0  0
 39 41  1  0  0  0  0
 39 40  1  1  0  0  0
 41 42  1  6  0  0  0
M  CHG  6  12   1  20   1  24   1  29   1  33   1  36   1
M  END
>  <CHROM.1>
53.95597800,-82.32586620,-134.54542105,-170.46861809,-153.71241258,-93.70395628
-32.01684209,178.00776101,61.67742152,-169.54800557,-69.34812620,-59.46153236
35.46791524,-150.59678463,51.29896986,-45.65805681,56.15795747,177.10639826
172.26613932,-153.45678807,-71.11934605,170.98103382,2.20136860,-0.36290071
3.56908395,-2.66076442,0.50483056,1.51036285

>  <Name>
1NEM.B

>  <RI>
0

>  <Rbt.Current_Directory>
/home/itssahil/PROJECTS/Mol_Feturizer/New_Systems/rnas/1nem

>  <Rbt.Executable>
rbdock ($Id: //depot/dev/client3/rdock/2013.1/src/exe/rbdock.cxx#4 $)

>  <Rbt.Library>
libRbt.so (2013.1, Build901 2013/11/27)

>  <Rbt.Parameter_File>
/export/apps/rDock/src/rDock_2013.1_src/data/scripts/dock_solv.prm

>  <Rbt.Receptor>
prm/pocket_docking_4.prm

>  <SCORE>
-38.0737

>  <SCORE.INTER>
-39.8521

>  <SCORE.INTER.CONST>
1

>  <SCORE.INTER.POLAR>
-4.63561

>  <SCORE.INTER.ROT>
9

>  <SCORE.INTER.SOLV>
28.5795

>  <SCORE.INTER.VDW>
-30.2426

>  <SCORE.INTER.norm>
-0.94886

>  <SCORE.INTRA>
1.06174

>  <SCORE.INTRA.DIHEDRAL>
5.44625

>  <SCORE.INTRA.DIHEDRAL.0>
22.4324

>  <SCORE.INTRA.POLAR>
-0.903347

>  <SCORE.INTRA.POLAR.0>
-1.83749

>  <SCORE.INTRA.REPUL>
0.0125609

>  <SCORE.INTRA.REPUL.0>
0

>  <SCORE.INTRA.SOLV>
-2.06055

>  <SCORE.INTRA.SOLV.lig_0>
-160.638

>  <SCORE.INTRA.VDW>
2.37747

>  <SCORE.INTRA.VDW.0>
-7.61953

>  <SCORE.INTRA.norm>
0.0252796

>  <SCORE.RESTR>
0.716671

>  <SCORE.RESTR.CAVITY>
0.716671

>  <SCORE.RESTR.norm>
0.0170636

>  <SCORE.SYSTEM>
0

>  <SCORE.SYSTEM.CONST>
0

>  <SCORE.SYSTEM.DIHEDRAL>
0

>  <SCORE.SYSTEM.SOLV>
0

>  <SCORE.SYSTEM.norm>
0

>  <SCORE.heavy>
42

>  <SCORE.norm>
-0.906517

>  <RMSD>
8.374

$$$$
1NEM.B
 OpenBabel11021811403D
libRbt.so/2013.1/901 2013/11/27
 42 45  0  0  0  0  0  0  0  0999 V2000
   -0.9648   -0.2953   -0.6335 O   0  0  0  0  0  0  0  0  0  0  0  0
   -1.0666   -1.0654    0.5660 C   0  0  0  0  0  0  0  0  0  0  0  0
    0.1510   -1.9555    0.8107 C   0  0  1  0  0  0  0  0  0  0  0  0
    1.3516   -1.2747    0.4576 O   0  0  0  0  0  0  0  0  0  0  0  0
    0.3808   -2.3301    2.2662 C   0  0  1  0  0  0  0  0  0  0  0  0
   -0.6300   -3.2745    2.6263 O   0  0  0  0  0  0  0  0  0  0  0  0
    1.7963   -2.8643    2.1530 C   0  0  1  0  0  0  0  0  0  0  0  0
    1.8494   -4.1085    1.4470 O   0  0  0  0  0  0  0  0  0  0  0  0
    2.4046   -1.7458    1.2988 C   0  0  2  0  0  0  0  0  0  0  0  0
   -1.9516   -2.8195    2.5647 C   0  0  2  0  0  0  0  0  0  0  0  0
   -2.5561   -2.8281    3.9753 C   0  0  2  0  0  0  0  0  0  0  0  0
   -2.3911   -4.1703    4.5930 N   0  3  0  0  0  0  0  0  0  0  0  0
   -4.0260   -2.3974    3.9414 C   0  0  1  0  0  0  0  0  0  0  0  0
   -4.1104   -1.0093    3.6472 O   0  0  0  0  0  0  0  0  0  0  0  0
   -4.8113   -3.1932    2.8943 C   0  0  2  0  0  0  0  0  0  0  0  0
   -4.9309   -4.5525    3.2944 O   0  0  0  0  0  0  0  0  0  0  0  0
   -4.1013   -3.1079    1.5461 C   0  0  1  0  0  0  0  0  0  0  0  0
   -2.7504   -3.5915    1.6776 O   0  0  0  0  0  0  0  0  0  0  0  0
   -4.7845   -3.9160    0.4570 C   0  0  0  0  0  0  0  0  0  0  0  0
   -5.0680   -3.0974   -0.7428 N   0  3  0  0  0  0  0  0  0  0  0  0
    5.7910   -0.5186    5.7772 C   0  0  0  0  0  0  0  0  0  0  0  0
    2.7800    1.0421    4.2856 C   0  0  2  0  0  0  0  0  0  0  0  0
    2.2423    1.8376    5.4727 C   0  0  2  0  0  0  0  0  0  0  0  0
    1.3183    2.8977    5.0039 N   0  3  0  0  0  0  0  0  0  0  0  0
    3.3922    2.4746    6.2416 C   0  0  1  0  0  0  0  0  0  0  0  0
    2.8861    3.1456    7.3853 O   0  0  0  0  0  0  0  0  0  0  0  0
    4.3857    1.3941    6.6630 C   0  0  2  0  0  0  0  0  0  0  0  0
    5.4968    1.9888    7.3212 O   0  0  0  0  0  0  0  0  0  0  0  0
    6.4228   -1.0939    4.5678 N   0  3  0  0  0  0  0  0  0  0  0  0
    4.8651    0.6336    5.4281 C   0  0  2  0  0  0  0  0  0  0  0  0
    3.7385    0.0803    4.7181 O   0  0  0  0  0  0  0  0  0  0  0  0
    5.1145    0.9870   -0.3994 C   0  0  2  0  0  0  0  0  0  0  0  0
    6.0329    0.3911   -1.3967 N   0  3  0  0  0  0  0  0  0  0  0  0
    5.9057    1.8093    0.6116 C   0  0  0  0  0  0  0  0  0  0  0  0
    4.9740    2.4266    1.6451 C   0  0  2  0  0  0  0  0  0  0  0  0
    5.7875    3.1962    2.5756 N   0  3  0  0  0  0  0  0  0  0  0  0
    4.2076    1.3253    2.3740 C   0  0  1  0  0  0  0  0  0  0  0  0
    3.3078    1.9189    3.3302 O   0  0  0  0  0  0  0  0  0  0  0  0
    3.4066    0.4710    1.3816 C   0  0  2  0  0  0  0  0  0  0  0  0
    2.7811   -0.6184    2.0864 O   0  0  0  0  0  0  0  0  0  0  0  0
    4.3048   -0.1088    0.2918 C   0  0  1  0  0  0  0  0  0  0  0  0
    3.5069   -0.7860   -0.6701 O   0  0  0  0  0  0  0  0  0  0  0  0
  1  2  1  0  0  0  0
  3  2  1  1  0  0  0
  3  5  1  0  0  0  0
  3  4  1  0  0  0  0
  4  9  1  0  0  0  0
  5  7  1  0  0  0  0
  5  6  1  6  0  0  0
  7  9  1  0  0  0  0
  7  8  1  6  0  0  0
  9 40  1  1  0  0  0
 10  6  1  1  0  0  0
 10 11  1  0  0  0  0
 10 18  1  0  0  0  0
 11 13  1  0  0  0  0
 11 12  1  6  0  0  0
 13 15  1  0  0  0  0
 13 14  1  6  0  0  0
 15 17  1  0  0  0  0
 15 16  1  1  0  0  0
 17 19  1  6  0  0  0
 17 18  1  0  0  0  0
 19 20  1  0  0  0  0
 21 29  1  0  0  0  0
 22 23  1  0  0  0  0
 22 31  1  0  0  0  0
 22 38  1  6  0  0  0
 23 25  1  0  0  0  0
 23 24  1  6  0  0  0
 25 27  1  0  0  0  0
 25 26  1  1  0  0  0
 27 30  1  0  0  0  0
 27 28  1  6  0  0  0
 30 21  1  1  0  0  0
 30 31  1  0  0  0  0
 32 34  1  0  0  0  0
 32 41  1  0  0  0  0
 32 33  1  6  0  0  0
 34 35  1  0  0  0  0
 35 37  1  0  0  0  0
 35 36  1  1  0  0  0
 37 39  1  0  0  0  0
 37 38  1  1  0  0  0
 39 41  1  0  0  0  0
 39 40  1  1  0  0  0
 41 42  1  6  0  0  0
M  CHG  6  12   1  20   1  24   1  29   1  33   1  36   1
M  END
>  <CHROM.1>
61.39709089,39.51709733,-62.43253145,-115.76007778,175.84219330,-67.44057827
-43.70222852,66.67658527,177.26870364,126.80862160,-155.72974581,-170.32517352
86.30192493,161.39740058,41.37022805,-170.17208275,63.71777230,-174.46043755
-173.21449246,-165.31489039,-158.70136067,-61.60985173,1.33529671,-0.68791368
2.69415021,-2.82558717,0.44154286,1.28529686

>  <Name>
1NEM.B

>  <RI>
0

>  <Rbt.Current_Directory>
/home/itssahil/PROJECTS/Mol_Feturizer/New_Systems/rnas/1nem

>  <Rbt.Executable>
rbdock ($Id: //depot/dev/client3/rdock/2013.1/src/exe/rbdock.cxx#4 $)

>  <Rbt.Library>
libRbt.so (2013.1, Build901 2013/11/27)

>  <Rbt.Parameter_File>
/export/apps/rDock/src/rDock_2013.1_src/data/scripts/dock_solv.prm

>  <Rbt.Receptor>
prm/pocket_docking_3.prm

>  <SCORE>
-33.5786

>  <SCORE.INTER>
-47.1826

>  <SCORE.INTER.CONST>
1

>  <SCORE.INTER.POLAR>
-6.44345

>  <SCORE.INTER.ROT>
9

>  <SCORE.INTER.SOLV>
44.693

>  <SCORE.INTER.VDW>
-34.4746

>  <SCORE.INTER.norm>
-1.1234

>  <SCORE.INTRA>
12.9129

>  <SCORE.INTRA.DIHEDRAL>
2.47793

>  <SCORE.INTRA.DIHEDRAL.0>
22.4324

>  <SCORE.INTRA.POLAR>
1.79845

>  <SCORE.INTRA.POLAR.0>
-1.83749

>  <SCORE.INTRA.REPUL>
0

>  <SCORE.INTRA.REPUL.0>
0

>  <SCORE.INTRA.SOLV>
-10.011

>  <SCORE.INTRA.SOLV.lig_0>
-160.638

>  <SCORE.INTRA.VDW>
10.5647

>  <SCORE.INTRA.VDW.0>
-7.61953

>  <SCORE.INTRA.norm>
0.30745

>  <SCORE.RESTR>
0.691056

>  <SCORE.RESTR.CAVITY>
0.691056

>  <SCORE.RESTR.norm>
0.0164537

>  <SCORE.SYSTEM>
0

>  <SCORE.SYSTEM.CONST>
0

>  <SCORE.SYSTEM.DIHEDRAL>
0

>  <SCORE.SYSTEM.SOLV>
0

>  <SCORE.SYSTEM.norm>
0

>  <SCORE.heavy>
42

>  <SCORE.norm>
-0.799492

>  <RMSD>
8.378

$$$$
1NEM.B
 OpenBabel11021811403D
libRbt.so/2013.1/901 2013/11/27
 42 45  0  0  0  0  0  0  0  0999 V2000
   -1.9117   -6.1272    0.3910 O   0  0  0  0  0  0  0  0  0  0  0  0
   -0.8399   -5.8817    1.3038 C   0  0  0  0  0  0  0  0  0  0  0  0
   -1.0553   -4.6328    2.1574 C   0  0  1  0  0  0  0  0  0  0  0  0
   -0.3530   -3.5211    1.6095 O   0  0  0  0  0  0  0  0  0  0  0  0
   -2.4931   -4.1414    2.2114 C   0  0  1  0  0  0  0  0  0  0  0  0
   -3.2268   -5.0632    3.0210 O   0  0  0  0  0  0  0  0  0  0  0  0
   -2.2514   -2.7653    2.8028 C   0  0  1  0  0  0  0  0  0  0  0  0
   -1.8401   -2.8303    4.1724 O   0  0  0  0  0  0  0  0  0  0  0  0
   -1.0768   -2.3299    1.9187 C   0  0  2  0  0  0  0  0  0  0  0  0
   -4.6211   -4.9925    2.9297 C   0  0  2  0  0  0  0  0  0  0  0  0
   -5.1102   -3.7178    3.6304 C   0  0  2  0  0  0  0  0  0  0  0  0
   -4.5765   -3.6607    5.0169 N   0  3  0  0  0  0  0  0  0  0  0  0
   -6.6400   -3.6364    3.6090 C   0  0  1  0  0  0  0  0  0  0  0  0
   -7.0859   -3.3746    2.2849 O   0  0  0  0  0  0  0  0  0  0  0  0
   -7.2700   -4.9375    4.1155 C   0  0  2  0  0  0  0  0  0  0  0  0
   -7.0214   -5.0980    5.5064 O   0  0  0  0  0  0  0  0  0  0  0  0
   -6.6938   -6.1212    3.3436 C   0  0  1  0  0  0  0  0  0  0  0  0
   -5.2596   -6.1375    3.4797 O   0  0  0  0  0  0  0  0  0  0  0  0
   -7.2249   -7.4621    3.8191 C   0  0  0  0  0  0  0  0  0  0  0  0
   -6.2996   -8.1169    4.7703 N   0  3  0  0  0  0  0  0  0  0  0  0
    3.9604    1.1814   -1.6781 C   0  0  0  0  0  0  0  0  0  0  0  0
    1.7178   -0.9678    0.3415 C   0  0  2  0  0  0  0  0  0  0  0  0
    2.6502   -1.3797    1.4781 C   0  0  2  0  0  0  0  0  0  0  0  0
    1.8631   -1.8558    2.6406 N   0  3  0  0  0  0  0  0  0  0  0  0
    3.5132   -0.1991    1.9029 C   0  0  1  0  0  0  0  0  0  0  0  0
    4.4282   -0.6145    2.9052 O   0  0  0  0  0  0  0  0  0  0  0  0
    4.2702    0.3423    0.6922 C   0  0  2  0  0  0  0  0  0  0  0  0
    5.0250    1.4877    1.0661 O   0  0  0  0  0  0  0  0  0  0  0  0
    4.5791    2.5159   -1.5065 N   0  3  0  0  0  0  0  0  0  0  0  0
    3.2753    0.7166   -0.4048 C   0  0  2  0  0  0  0  0  0  0  0  0
    2.4610   -0.4236   -0.7459 O   0  0  0  0  0  0  0  0  0  0  0  0
   -2.9639    1.4228   -0.5843 C   0  0  2  0  0  0  0  0  0  0  0  0
   -4.1104    1.6969   -1.4808 N   0  3  0  0  0  0  0  0  0  0  0  0
   -1.6784    1.9598   -1.2034 C   0  0  0  0  0  0  0  0  0  0  0  0
   -0.4901    1.6828   -0.2932 C   0  0  2  0  0  0  0  0  0  0  0  0
    0.7001    2.2192   -0.9380 N   0  3  0  0  0  0  0  0  0  0  0  0
   -0.3541    0.1796   -0.0628 C   0  0  1  0  0  0  0  0  0  0  0  0
    0.7551   -0.0720    0.8219 O   0  0  0  0  0  0  0  0  0  0  0  0
   -1.6378   -0.3954    0.5517 C   0  0  2  0  0  0  0  0  0  0  0  0
   -1.5158   -1.8266    0.6588 O   0  0  0  0  0  0  0  0  0  0  0  0
   -2.8595   -0.0759   -0.3061 C   0  0  1  0  0  0  0  0  0  0  0  0
   -4.0353   -0.5167    0.3600 O   0  0  0  0  0  0  0  0  0  0  0  0
  1  2  1  0  0  0  0
  3  2  1  6  0  0  0
  3  5  1  0  0  0  0
  3  4  1  0  0  0  0
  4  9  1  0  0  0  0
  5  7  1  0  0  0  0
  5  6  1  1  0  0  0
  7  9  1  0  0  0  0
  7  8  1  1  0  0  0
  9 40  1  6  0  0  0
 10  6  1  1  0  0  0
 10 11  1  0  0  0  0
 10 18  1  0  0  0  0
 11 13  1  0  0  0  0
 11 12  1  1  0  0  0
 13 15  1  0  0  0  0
 13 14  1  6  0  0  0
 15 17  1  0  0  0  0
 15 16  1  1  0  0  0
 17 19  1  1  0  0  0
 17 18  1  0  0  0  0
 19 20  1  0  0  0  0
 21 29  1  0  0  0  0
 22 23  1  0  0  0  0
 22 31  1  0  0  0  0
 22 38  1  1  0  0  0
 23 25  1  0  0  0  0
 23 24  1  1  0  0  0
 25 27  1  0  0  0  0
 25 26  1  1  0  0  0
 27 30  1  0  0  0  0
 27 28  1  1  0  0  0
 30 21  1  6  0  0  0
 30 31  1  0  0  0  0
 32 34  1  0  0  0  0
 32 41  1  0  0  0  0
 32 33  1  6  0  0  0
 34 35  1  0  0  0  0
 35 37  1  0  0  0  0
 35 36  1  6  0  0  0
 37 39  1  0  0  0  0
 37 38  1  1  0  0  0
 39 41  1  0  0  0  0
 39 40  1  6  0  0  0
 41 42  1  1  0  0  0
M  CHG  6  12   1  20   1  24   1  29   1  33   1  36   1
M  END
>  <CHROM.1>
-52.87695213,-97.99669802,-164.43931808,-72.17948792,67.89931636,-148.83401568
172.35907458,-55.67454665,172.38849104,-97.20529248,-22.72070540,-71.32563979
179.67230305,-167.36375791,178.83844565,58.81585071,-52.47074004,120.66817164
49.23562406,-125.65285269,95.56031291,55.52873329,-1.50181532,-2.08845941
1.60160245,-2.43123959,-0.03978373,-0.57931973

>  <Name>
1NEM.B

>  <RI>
0

>  <Rbt.Current_Directory>
/home/itssahil/PROJECTS/Mol_Feturizer/New_Systems/rnas/1nem

>  <Rbt.Executable>
rbdock ($Id: //depot/dev/client3/rdock/2013.1/src/exe/rbdock.cxx#4 $)

>  <Rbt.Library>
libRbt.so (2013.1, Build901 2013/11/27)

>  <Rbt.Parameter_File>
/export/apps/rDock/src/rDock_2013.1_src/data/scripts/dock_solv.prm

>  <Rbt.Receptor>
prm/pocket_docking_7.prm

>  <SCORE>
-35.0183

>  <SCORE.INTER>
-41.9118

>  <SCORE.INTER.CONST>
1

>  <SCORE.INTER.POLAR>
-6.38387

>  <SCORE.INTER.ROT>
9

>  <SCORE.INTER.SOLV>
29.7259

>  <SCORE.INTER.VDW>
-26.1703

>  <SCORE.INTER.norm>
-0.997901

>  <SCORE.INTRA>
6.89352

>  <SCORE.INTRA.DIHEDRAL>
11.8624

>  <SCORE.INTRA.DIHEDRAL.0>
22.4324

>  <SCORE.INTRA.POLAR>
-1.64865

>  <SCORE.INTRA.POLAR.0>
-1.83749

>  <SCORE.INTRA.REPUL>
0

>  <SCORE.INTRA.REPUL.0>
0

>  <SCORE.INTRA.SOLV>
6.35696

>  <SCORE.INTRA.SOLV.lig_0>
-160.638

>  <SCORE.INTRA.VDW>
3.38922

>  <SCORE.INTRA.VDW.0>
-7.61953

>  <SCORE.INTRA.norm>
0.164131

>  <SCORE.RESTR>
0

>  <SCORE.RESTR.CAVITY>
0

>  <SCORE.RESTR.norm>
0

>  <SCORE.SYSTEM>
0

>  <SCORE.SYSTEM.CONST>
0

>  <SCORE.SYSTEM.DIHEDRAL>
0

>  <SCORE.SYSTEM.SOLV>
0

>  <SCORE.SYSTEM.norm>
0

>  <SCORE.heavy>
42

>  <SCORE.norm>
-0.83377

>  <RMSD>
8.386

$$$$
1NEM.B
 OpenBabel11021811403D
libRbt.so/2013.1/901 2013/11/27
 42 45  0  0  0  0  0  0  0  0999 V2000
   -2.0350    2.7749    1.1467 O   0  0  0  0  0  0  0  0  0  0  0  0
   -2.7614    2.1905    0.0636 C   0  0  0  0  0  0  0  0  0  0  0  0
   -2.5357    0.6847   -0.0648 C   0  0  1  0  0  0  0  0  0  0  0  0
   -1.1924    0.4080   -0.4502 O   0  0  0  0  0  0  0  0  0  0  0  0
   -2.6908   -0.0930    1.2324 C   0  0  1  0  0  0  0  0  0  0  0  0
   -4.0858   -0.1280    1.5424 O   0  0  0  0  0  0  0  0  0  0  0  0
   -2.0608   -1.4037    0.8000 C   0  0  1  0  0  0  0  0  0  0  0  0
   -2.8743   -2.1089   -0.1435 O   0  0  0  0  0  0  0  0  0  0  0  0
   -0.8099   -0.8491    0.1084 C   0  0  2  0  0  0  0  0  0  0  0  0
   -4.5614   -1.3100    2.1202 C   0  0  2  0  0  0  0  0  0  0  0  0
   -5.9683   -1.0675    2.6836 C   0  0  2  0  0  0  0  0  0  0  0  0
   -5.9575    0.1070    3.5951 N   0  3  0  0  0  0  0  0  0  0  0  0
   -6.4992   -2.3226    3.3838 C   0  0  1  0  0  0  0  0  0  0  0  0
   -6.7917   -3.3218    2.4160 O   0  0  0  0  0  0  0  0  0  0  0  0
   -5.4815   -2.8657    4.3916 C   0  0  2  0  0  0  0  0  0  0  0  0
   -5.3487   -1.9720    5.4898 O   0  0  0  0  0  0  0  0  0  0  0  0
   -4.1307   -3.0533    3.7067 C   0  0  1  0  0  0  0  0  0  0  0  0
   -3.6980   -1.8030    3.1363 O   0  0  0  0  0  0  0  0  0  0  0  0
   -3.0437   -3.5398    4.6489 C   0  0  0  0  0  0  0  0  0  0  0  0
   -3.4321   -3.3828    6.0682 N   0  3  0  0  0  0  0  0  0  0  0  0
    2.9311    1.0772    6.2687 C   0  0  0  0  0  0  0  0  0  0  0  0
    2.1796    1.2321    2.6440 C   0  0  2  0  0  0  0  0  0  0  0  0
    2.9640    2.4761    2.2339 C   0  0  2  0  0  0  0  0  0  0  0  0
    3.1937    2.4784    0.7694 N   0  3  0  0  0  0  0  0  0  0  0  0
    4.3049    2.5122    2.9548 C   0  0  1  0  0  0  0  0  0  0  0  0
    4.9904    3.7106    2.6252 O   0  0  0  0  0  0  0  0  0  0  0  0
    4.0767    2.4352    4.4627 C   0  0  2  0  0  0  0  0  0  0  0  0
    5.3263    2.3986    5.1399 O   0  0  0  0  0  0  0  0  0  0  0  0
    1.8439    2.0124    6.6383 N   0  3  0  0  0  0  0  0  0  0  0  0
    3.2750    1.1776    4.7928 C   0  0  2  0  0  0  0  0  0  0  0  0
    2.0327    1.1750    4.0604 O   0  0  0  0  0  0  0  0  0  0  0  0
    1.6243   -3.9703    1.7263 C   0  0  2  0  0  0  0  0  0  0  0  0
    0.9495   -5.2620    1.9897 N   0  3  0  0  0  0  0  0  0  0  0  0
    2.4762   -3.5731    2.9266 C   0  0  0  0  0  0  0  0  0  0  0  0
    3.1746   -2.2450    2.6707 C   0  0  2  0  0  0  0  0  0  0  0  0
    3.9690   -1.9248    3.8482 N   0  3  0  0  0  0  0  0  0  0  0  0
    2.1367   -1.1579    2.4020 C   0  0  1  0  0  0  0  0  0  0  0  0
    2.8064    0.0893    2.1330 O   0  0  0  0  0  0  0  0  0  0  0  0
    1.2541   -1.5322    1.2031 C   0  0  2  0  0  0  0  0  0  0  0  0
    0.2226   -0.5399    1.0419 O   0  0  0  0  0  0  0  0  0  0  0  0
    0.5910   -2.8930    1.4009 C   0  0  1  0  0  0  0  0  0  0  0  0
   -0.1132   -3.2537    0.2201 O   0  0  0  0  0  0  0  0  0  0  0  0
  1  2  1  0  0  0  0
  3  2  1  1  0  0  0
  3  5  1  0  0  0  0
  3  4  1  0  0  0  0
  4  9  1  0  0  0  0
  5  7  1  0  0  0  0
  5  6  1  6  0  0  0
  7  9  1  0  0  0  0
  7  8  1  6  0  0  0
  9 40  1  1  0  0  0
 10  6  1  1  0  0  0
 10 11  1  0  0  0  0
 10 18  1  0  0  0  0
 11 13  1  0  0  0  0
 11 12  1  1  0  0  0
 13 15  1  0  0  0  0
 13 14  1  6  0  0  0
 15 17  1  0  0  0  0
 15 16  1  1  0  0  0
 17 19  1  1  0  0  0
 17 18  1  0  0  0  0
 19 20  1  0  0  0  0
 21 29  1  0  0  0  0
 22 23  1  0  0  0  0
 22 31  1  0  0  0  0
 22 38  1  1  0  0  0
 23 25  1  0  0  0  0
 23 24  1  6  0  0  0
 25 27  1  0  0  0  0
 25 26  1  1  0  0  0
 27 30  1  0  0  0  0
 27 28  1  1  0  0  0
 30 21  1  1  0  0  0
 30 31  1  0  0  0  0
 32 34  1  0  0  0  0
 32 41  1  0  0  0  0
 32 33  1  1  0  0  0
 34 35  1  0  0  0  0
 35 37  1  0  0  0  0
 35 36  1  1  0  0  0
 37 39  1  0  0  0  0
 37 38  1  6  0  0  0
 39 41  1  0  0  0  0
 39 40  1  1  0  0  0
 41 42  1  6  0  0  0
M  CHG  6  12   1  20   1  24   1  29   1  33   1  36   1
M  END
>  <CHROM.1>
-56.14385618,-67.22461542,143.43264044,166.82786837,144.25627183,-147.13587955
41.13510288,-138.86185811,-71.80520214,-15.10091780,-58.11837381,75.06803420
70.14044006,-177.60417593,102.40416471,54.54919551,71.64182054,-151.60493579
-144.89220239,-142.80212749,-170.26816075,-28.24158866,-0.47457165,-0.61637605
2.64455312,2.79170036,0.15746845,2.89644328

>  <Name>
1NEM.B

>  <RI>
0

>  <Rbt.Current_Directory>
/home/itssahil/PROJECTS/Mol_Feturizer/New_Systems/rnas/1nem

>  <Rbt.Executable>
rbdock ($Id: //depot/dev/client3/rdock/2013.1/src/exe/rbdock.cxx#4 $)

>  <Rbt.Library>
libRbt.so (2013.1, Build901 2013/11/27)

>  <Rbt.Parameter_File>
/export/apps/rDock/src/rDock_2013.1_src/data/scripts/dock_solv.prm

>  <Rbt.Receptor>
prm/blind_docking_80.prm

>  <SCORE>
3.5167

>  <SCORE.INTER>
-36.5684

>  <SCORE.INTER.CONST>
1

>  <SCORE.INTER.POLAR>
-6.72534

>  <SCORE.INTER.ROT>
9

>  <SCORE.INTER.SOLV>
49.1731

>  <SCORE.INTER.VDW>
-27.9522

>  <SCORE.INTER.norm>
-0.870677

>  <SCORE.INTRA>
32.3334

>  <SCORE.INTRA.DIHEDRAL>
21.6595

>  <SCORE.INTRA.DIHEDRAL.0>
22.4324

>  <SCORE.INTRA.POLAR>
1.48817

>  <SCORE.INTRA.POLAR.0>
-1.83749

>  <SCORE.INTRA.REPUL>
0

>  <SCORE.INTRA.REPUL.0>
0

>  <SCORE.INTRA.SOLV>
-0.359475

>  <SCORE.INTRA.SOLV.lig_0>
-160.638

>  <SCORE.INTRA.VDW>
16.6236

>  <SCORE.INTRA.VDW.0>
-7.61953

>  <SCORE.INTRA.norm>
0.769843

>  <SCORE.RESTR>
7.75175

>  <SCORE.RESTR.CAVITY>
7.75175

>  <SCORE.RESTR.norm>
0.184566

>  <SCORE.SYSTEM>
0

>  <SCORE.SYSTEM.CONST>
0

>  <SCORE.SYSTEM.DIHEDRAL>
0

>  <SCORE.SYSTEM.SOLV>
0

>  <SCORE.SYSTEM.norm>
0

>  <SCORE.heavy>
42

>  <SCORE.norm>
0.0837309

>  <RMSD>
8.410

$$$$
1NEM.B
 OpenBabel11021811403D
libRbt.so/2013.1/901 2013/11/27
 42 45  0  0  0  0  0  0  0  0999 V2000
   -2.6094    3.1680   -0.3935 O   0  0  0  0  0  0  0  0  0  0  0  0
   -1.1967    3.3287   -0.2504 C   0  0  0  0  0  0  0  0  0  0  0  0
   -0.4007    2.1514   -0.8117 C   0  0  1  0  0  0  0  0  0  0  0  0
    0.9409    2.1768   -0.3332 O   0  0  0  0  0  0  0  0  0  0  0  0
   -0.8983    0.7830   -0.3744 C   0  0  1  0  0  0  0  0  0  0  0  0
   -2.1265    0.5376   -1.0634 O   0  0  0  0  0  0  0  0  0  0  0  0
    0.2951   -0.0509   -0.8012 C   0  0  1  0  0  0  0  0  0  0  0  0
    0.4069   -0.1453   -2.2252 O   0  0  0  0  0  0  0  0  0  0  0  0
    1.4153    0.8333   -0.2409 C   0  0  2  0  0  0  0  0  0  0  0  0
   -2.8494   -0.5890   -0.6565 C   0  0  2  0  0  0  0  0  0  0  0  0
   -4.0623   -0.1406    0.1701 C   0  0  2  0  0  0  0  0  0  0  0  0
   -3.6241    0.7479    1.2786 N   0  3  0  0  0  0  0  0  0  0  0  0
   -4.8452   -1.3505    0.6902 C   0  0  1  0  0  0  0  0  0  0  0  0
   -5.5090   -1.9908   -0.3914 O   0  0  0  0  0  0  0  0  0  0  0  0
   -3.9182   -2.3503    1.3884 C   0  0  2  0  0  0  0  0  0  0  0  0
   -3.4223   -1.7997    2.6020 O   0  0  0  0  0  0  0  0  0  0  0  0
   -2.7565   -2.7048    0.4644 C   0  0  1  0  0  0  0  0  0  0  0  0
   -2.0545   -1.5051    0.0852 O   0  0  0  0  0  0  0  0  0  0  0  0
   -1.7545   -3.6534    1.0987 C   0  0  0  0  0  0  0  0  0  0  0  0
   -2.1946   -5.0633    1.0077 N   0  3  0  0  0  0  0  0  0  0  0  0
    2.6311    1.3770    6.4422 C   0  0  0  0  0  0  0  0  0  0  0  0
    3.7568    2.1257    2.9927 C   0  0  2  0  0  0  0  0  0  0  0  0
    4.9912    2.9818    3.2655 C   0  0  2  0  0  0  0  0  0  0  0  0
    5.8666    3.0159    2.0696 N   0  3  0  0  0  0  0  0  0  0  0  0
    5.7711    2.4172    4.4454 C   0  0  1  0  0  0  0  0  0  0  0  0
    6.8717    3.2644    4.7377 O   0  0  0  0  0  0  0  0  0  0  0  0
    4.8528    2.3107    5.6608 C   0  0  2  0  0  0  0  0  0  0  0  0
    5.5546    1.7199    6.7471 O   0  0  0  0  0  0  0  0  0  0  0  0
    1.8124    2.6078    6.5294 N   0  3  0  0  0  0  0  0  0  0  0  0
    3.6373    1.4559    5.3072 C   0  0  2  0  0  0  0  0  0  0  0  0
    2.9548    2.0125    4.1653 O   0  0  0  0  0  0  0  0  0  0  0  0
    2.3010   -2.9391    2.2225 C   0  0  2  0  0  0  0  0  0  0  0  0
    1.3792   -4.0676    2.4876 N   0  3  0  0  0  0  0  0  0  0  0  0
    3.0786   -2.5933    3.4873 C   0  0  0  0  0  0  0  0  0  0  0  0
    4.0293   -1.4326    3.2302 C   0  0  2  0  0  0  0  0  0  0  0  0
    4.7392   -1.1544    4.4706 N   0  3  0  0  0  0  0  0  0  0  0  0
    3.2399   -0.2098    2.7685 C   0  0  1  0  0  0  0  0  0  0  0  0
    4.1492    0.8753    2.5002 O   0  0  0  0  0  0  0  0  0  0  0  0
    2.4362   -0.5277    1.4999 C   0  0  2  0  0  0  0  0  0  0  0  0
    1.6246    0.6101    1.1518 O   0  0  0  0  0  0  0  0  0  0  0  0
    1.5204   -1.7316    1.7060 C   0  0  1  0  0  0  0  0  0  0  0  0
    0.8916   -2.0654    0.4756 O   0  0  0  0  0  0  0  0  0  0  0  0
  1  2  1  0  0  0  0
  3  2  1  1  0  0  0
  3  5  1  0  0  0  0
  3  4  1  0  0  0  0
  4  9  1  0  0  0  0
  5  7  1  0  0  0  0
  5  6  1  6  0  0  0
  7  9  1  0  0  0  0
  7  8  1  6  0  0  0
  9 40  1  1  0  0  0
 10  6  1  1  0  0  0
 10 11  1  0  0  0  0
 10 18  1  0  0  0  0
 11 13  1  0  0  0  0
 11 12  1  1  0  0  0
 13 15  1  0  0  0  0
 13 14  1  6  0  0  0
 15 17  1  0  0  0  0
 15 16  1  1  0  0  0
 17 19  1  1  0  0  0
 17 18  1  0  0  0  0
 19 20  1  0  0  0  0
 21 29  1  0  0  0  0
 22 23  1  0  0  0  0
 22 31  1  0  0  0  0
 22 38  1  1  0  0  0
 23 25  1  0  0  0  0
 23 24  1  6  0  0  0
 25 27  1  0  0  0  0
 25 26  1  1  0  0  0
 27 30  1  0  0  0  0
 27 28  1  1  0  0  0
 30 21  1  1  0  0  0
 30 31  1  0  0  0  0
 32 34  1  0  0  0  0
 32 41  1  0  0  0  0
 32 33  1  1  0  0  0
 34 35  1  0  0  0  0
 35 37  1  0  0  0  0
 35 36  1  1  0  0  0
 37 39  1  0  0  0  0
 37 38  1  6  0  0  0
 39 41  1  0  0  0  0
 39 40  1  1  0  0  0
 41 42  1  6  0  0  0
M  CHG  6  12   1  20   1  24   1  29   1  33   1  36   1
M  END
>  <CHROM.1>
-58.43934294,-164.20036502,-171.12110652,105.30627406,68.54768156,-163.73913550
172.28330828,-70.77119686,177.75212988,82.24034275,-131.92824436,77.94507446
31.04339647,152.54614554,60.51958652,-60.20281210,-55.94384329,173.47652579
-51.36570799,-135.82579130,146.43253674,122.31721816,0.87048561,0.05958381
1.90614198,3.00683724,0.58289642,2.79250513

>  <Name>
1NEM.B

>  <RI>
0

>  <Rbt.Current_Directory>
/home/itssahil/PROJECTS/Mol_Feturizer/New_Systems/rnas/1nem

>  <Rbt.Executable>
rbdock ($Id: //depot/dev/client3/rdock/2013.1/src/exe/rbdock.cxx#4 $)

>  <Rbt.Library>
libRbt.so (2013.1, Build901 2013/11/27)

>  <Rbt.Parameter_File>
/export/apps/rDock/src/rDock_2013.1_src/data/scripts/dock_solv.prm

>  <Rbt.Receptor>
prm/pocket_docking_2.prm

>  <SCORE>
-18.607

>  <SCORE.INTER>
-33.2737

>  <SCORE.INTER.CONST>
1

>  <SCORE.INTER.POLAR>
-4.66302

>  <SCORE.INTER.ROT>
9

>  <SCORE.INTER.SOLV>
41.7445

>  <SCORE.INTER.VDW>
-30.1539

>  <SCORE.INTER.norm>
-0.792231

>  <SCORE.INTRA>
11.5186

>  <SCORE.INTRA.DIHEDRAL>
16.6786

>  <SCORE.INTRA.DIHEDRAL.0>
22.4324

>  <SCORE.INTRA.POLAR>
-1.196

>  <SCORE.INTRA.POLAR.0>
-1.83749

>  <SCORE.INTRA.REPUL>
0

>  <SCORE.INTRA.REPUL.0>
0

>  <SCORE.INTRA.SOLV>
2.66601

>  <SCORE.INTRA.SOLV.lig_0>
-160.638

>  <SCORE.INTRA.VDW>
5.91271

>  <SCORE.INTRA.VDW.0>
-7.61953

>  <SCORE.INTRA.norm>
0.274253

>  <SCORE.RESTR>
3.14812

>  <SCORE.RESTR.CAVITY>
3.14812

>  <SCORE.RESTR.norm>
0.0749553

>  <SCORE.SYSTEM>
0

>  <SCORE.SYSTEM.CONST>
0

>  <SCORE.SYSTEM.DIHEDRAL>
0

>  <SCORE.SYSTEM.SOLV>
0

>  <SCORE.SYSTEM.norm>
0

>  <SCORE.heavy>
42

>  <SCORE.norm>
-0.443023

>  <RMSD>
8.416

$$$$
1NEM.B
 OpenBabel11021811403D
libRbt.so/2013.1/901 2013/11/27
 42 45  0  0  0  0  0  0  0  0999 V2000
   -1.4590   -5.3622    2.1480 O   0  0  0  0  0  0  0  0  0  0  0  0
   -1.8234   -5.3341    0.7665 C   0  0  0  0  0  0  0  0  0  0  0  0
   -3.2653   -4.8834    0.5371 C   0  0  1  0  0  0  0  0  0  0  0  0
   -4.1804   -5.8097    1.1152 O   0  0  0  0  0  0  0  0  0  0  0  0
   -3.6335   -3.5692    1.2071 C   0  0  1  0  0  0  0  0  0  0  0  0
   -2.9820   -2.5249    0.4804 O   0  0  0  0  0  0  0  0  0  0  0  0
   -5.1425   -3.6483    1.0713 C   0  0  1  0  0  0  0  0  0  0  0  0
   -5.5718   -3.4947   -0.2856 O   0  0  0  0  0  0  0  0  0  0  0  0
   -5.3465   -5.0973    1.5291 C   0  0  2  0  0  0  0  0  0  0  0  0
   -3.1379   -1.2296    0.9856 C   0  0  2  0  0  0  0  0  0  0  0  0
   -4.6197   -0.8356    0.9194 C   0  0  2  0  0  0  0  0  0  0  0  0
   -5.1380   -1.0288   -0.4606 N   0  3  0  0  0  0  0  0  0  0  0  0
   -4.8235    0.6035    1.4042 C   0  0  1  0  0  0  0  0  0  0  0  0
   -4.6153    0.6683    2.8088 O   0  0  0  0  0  0  0  0  0  0  0  0
   -3.8641    1.5661    0.6976 C   0  0  2  0  0  0  0  0  0  0  0  0
   -4.2084    1.6863   -0.6769 O   0  0  0  0  0  0  0  0  0  0  0  0
   -2.4325    1.0553    0.8330 C   0  0  1  0  0  0  0  0  0  0  0  0
   -2.3398   -0.2777    0.2941 O   0  0  0  0  0  0  0  0  0  0  0  0
   -1.4160    1.9236    0.1127 C   0  0  0  0  0  0  0  0  0  0  0  0
   -1.1437    3.1796    0.8465 N   0  3  0  0  0  0  0  0  0  0  0  0
   -7.7933   -9.6901    4.4235 C   0  0  0  0  0  0  0  0  0  0  0  0
   -7.5449   -6.5833    2.4202 C   0  0  2  0  0  0  0  0  0  0  0  0
   -8.4209   -6.9362    1.2205 C   0  0  2  0  0  0  0  0  0  0  0  0
   -8.8465   -5.7035    0.5156 N   0  3  0  0  0  0  0  0  0  0  0  0
   -9.6524   -7.7060    1.6783 C   0  0  1  0  0  0  0  0  0  0  0  0
  -10.4179   -8.0951    0.5483 O   0  0  0  0  0  0  0  0  0  0  0  0
   -9.2197   -8.9384    2.4695 C   0  0  2  0  0  0  0  0  0  0  0  0
  -10.3642   -9.6252    2.9595 O   0  0  0  0  0  0  0  0  0  0  0  0
   -8.8765  -10.6078    4.8446 N   0  3  0  0  0  0  0  0  0  0  0  0
   -8.3370   -8.5084    3.6395 C   0  0  2  0  0  0  0  0  0  0  0  0
   -7.2059   -7.7553    3.1568 O   0  0  0  0  0  0  0  0  0  0  0  0
   -6.2702   -2.6950    5.6063 C   0  0  2  0  0  0  0  0  0  0  0  0
   -5.4591   -2.0829    6.6837 N   0  3  0  0  0  0  0  0  0  0  0  0
   -7.4241   -3.4881    6.2092 C   0  0  0  0  0  0  0  0  0  0  0  0
   -8.2658   -4.1253    5.1125 C   0  0  2  0  0  0  0  0  0  0  0  0
   -9.3463   -4.8631    5.7514 N   0  3  0  0  0  0  0  0  0  0  0  0
   -7.3972   -5.0543    4.2675 C   0  0  1  0  0  0  0  0  0  0  0  0
   -8.1944   -5.6313    3.2150 O   0  0  0  0  0  0  0  0  0  0  0  0
   -6.2181   -4.2875    3.6527 C   0  0  2  0  0  0  0  0  0  0  0  0
   -5.3634   -5.2100    2.9505 O   0  0  0  0  0  0  0  0  0  0  0  0
   -5.3917   -3.5809    4.7244 C   0  0  1  0  0  0  0  0  0  0  0  0
   -4.3900   -2.7861    4.1036 O   0  0  0  0  0  0  0  0  0  0  0  0
  1  2  1  0  0  0  0
  3  2  1  1  0  0  0
  3  5  1  0  0  0  0
  3  4  1  0  0  0  0
  4  9  1  0  0  0  0
  5  7  1  0  0  0  0
  5  6  1  6  0  0  0
  7  9  1  0  0  0  0
  7  8  1  6  0  0  0
  9 40  1  1  0  0  0
 10  6  1  6  0  0  0
 10 11  1  0  0  0  0
 10 18  1  0  0  0  0
 11 13  1  0  0  0  0
 11 12  1  6  0  0  0
 13 15  1  0  0  0  0
 13 14  1  1  0  0  0
 15 17  1  0  0  0  0
 15 16  1  6  0  0  0
 17 19  1  6  0  0  0
 17 18  1  0  0  0  0
 19 20  1  0  0  0  0
 21 29  1  0  0  0  0
 22 23  1  0  0  0  0
 22 31  1  0  0  0  0
 22 38  1  1  0  0  0
 23 25  1  0  0  0  0
 23 24  1  1  0  0  0
 25 27  1  0  0  0  0
 25 26  1  6  0  0  0
 27 30  1  0  0  0  0
 27 28  1  1  0  0  0
 30 21  1  6  0  0  0
 30 31  1  0  0  0  0
 32 34  1  0  0  0  0
 32 41  1  0  0  0  0
 32 33  1  1  0  0  0
 34 35  1  0  0  0  0
 35 37  1  0  0  0  0
 35 36  1  1  0  0  0
 37 39  1  0  0  0  0
 37 38  1  6  0  0  0
 39 41  1  0  0  0  0
 39 40  1  1  0  0  0
 41 42  1  6  0  0  0
M  CHG  6  12   1  20   1  24   1  29   1  33   1  36   1
M  END
>  <CHROM.1>
63.89548792,-63.82871264,-176.69946521,-63.61825506,-176.72378618,163.57894598
175.38460170,-67.51898478,82.49024333,75.41030932,31.64075231,-52.74349356
60.58459195,-170.78107030,-36.54451399,-71.45274149,-46.64040984,-28.67640936
-174.03847643,-175.48905951,110.85974999,-53.19558380,-5.76538897,-3.95298093
2.28982026,-0.41226418,-0.92356927,-2.35601485

>  <Name>
1NEM.B

>  <RI>
0

>  <Rbt.Current_Directory>
/home/itssahil/PROJECTS/Mol_Feturizer/New_Systems/rnas/1nem

>  <Rbt.Executable>
rbdock ($Id: //depot/dev/client3/rdock/2013.1/src/exe/rbdock.cxx#4 $)

>  <Rbt.Library>
libRbt.so (2013.1, Build901 2013/11/27)

>  <Rbt.Parameter_File>
/export/apps/rDock/src/rDock_2013.1_src/data/scripts/dock_solv.prm

>  <Rbt.Receptor>
prm/blind_docking_20.prm

>  <SCORE>
15.7104

>  <SCORE.INTER>
-7.56608

>  <SCORE.INTER.CONST>
1

>  <SCORE.INTER.POLAR>
-6.35862

>  <SCORE.INTER.ROT>
9

>  <SCORE.INTER.SOLV>
37.0901

>  <SCORE.INTER.VDW>
-5.81204

>  <SCORE.INTER.norm>
-0.180145

>  <SCORE.INTRA>
4.79444

>  <SCORE.INTRA.DIHEDRAL>
-2.557

>  <SCORE.INTRA.DIHEDRAL.0>
22.4324

>  <SCORE.INTRA.POLAR>
0.0447313

>  <SCORE.INTRA.POLAR.0>
-1.83749

>  <SCORE.INTRA.REPUL>
0.0517242

>  <SCORE.INTRA.REPUL.0>
0

>  <SCORE.INTRA.SOLV>
-0.303161

>  <SCORE.INTRA.SOLV.lig_0>
-160.638

>  <SCORE.INTRA.VDW>
5.81382

>  <SCORE.INTRA.VDW.0>
-7.61953

>  <SCORE.INTRA.norm>
0.114153

>  <SCORE.RESTR>
18.482

>  <SCORE.RESTR.CAVITY>
18.482

>  <SCORE.RESTR.norm>
0.440048

>  <SCORE.SYSTEM>
0

>  <SCORE.SYSTEM.CONST>
0

>  <SCORE.SYSTEM.DIHEDRAL>
0

>  <SCORE.SYSTEM.SOLV>
0

>  <SCORE.SYSTEM.norm>
0

>  <SCORE.heavy>
42

>  <SCORE.norm>
0.374057

>  <RMSD>
8.417

$$$$
1NEM.B
 OpenBabel11021811403D
libRbt.so/2013.1/901 2013/11/27
 42 45  0  0  0  0  0  0  0  0999 V2000
   -1.7248   -0.7813   -0.2682 O   0  0  0  0  0  0  0  0  0  0  0  0
   -1.6224   -1.1899    1.0973 C   0  0  0  0  0  0  0  0  0  0  0  0
   -0.4991   -2.1975    1.3378 C   0  0  1  0  0  0  0  0  0  0  0  0
    0.7731   -1.5608    1.2621 O   0  0  0  0  0  0  0  0  0  0  0  0
   -0.4923   -2.8210    2.7244 C   0  0  1  0  0  0  0  0  0  0  0  0
   -1.5918   -3.7324    2.7856 O   0  0  0  0  0  0  0  0  0  0  0  0
    0.8949   -3.4351    2.7014 C   0  0  1  0  0  0  0  0  0  0  0  0
    0.9787   -4.5476    1.8046 O   0  0  0  0  0  0  0  0  0  0  0  0
    1.6737   -2.2413    2.1364 C   0  0  2  0  0  0  0  0  0  0  0  0
   -2.8430   -3.1739    3.0678 C   0  0  2  0  0  0  0  0  0  0  0  0
   -3.0951   -3.2353    4.5805 C   0  0  2  0  0  0  0  0  0  0  0  0
   -2.9125   -4.6264    5.0722 N   0  3  0  0  0  0  0  0  0  0  0  0
   -4.4856   -2.6913    4.9241 C   0  0  1  0  0  0  0  0  0  0  0  0
   -4.5095   -1.2836    4.7288 O   0  0  0  0  0  0  0  0  0  0  0  0
   -5.5656   -3.3485    4.0593 C   0  0  2  0  0  0  0  0  0  0  0  0
   -5.7113   -4.7194    4.4081 O   0  0  0  0  0  0  0  0  0  0  0  0
   -5.1897   -3.2234    2.5856 C   0  0  1  0  0  0  0  0  0  0  0  0
   -3.8962   -3.8177    2.3625 O   0  0  0  0  0  0  0  0  0  0  0  0
   -6.1821   -3.8978    1.6548 C   0  0  0  0  0  0  0  0  0  0  0  0
   -5.5419   -4.9481    0.8321 N   0  3  0  0  0  0  0  0  0  0  0  0
    3.1858   -0.4445   -0.9091 C   0  0  0  0  0  0  0  0  0  0  0  0
    2.7547    2.2231    1.6257 C   0  0  2  0  0  0  0  0  0  0  0  0
    1.6850    3.0880    0.9634 C   0  0  2  0  0  0  0  0  0  0  0  0
    1.0212    3.9463    1.9734 N   0  3  0  0  0  0  0  0  0  0  0  0
    0.6430    2.2074    0.2867 C   0  0  1  0  0  0  0  0  0  0  0  0
   -0.3017    3.0222   -0.3901 O   0  0  0  0  0  0  0  0  0  0  0  0
    1.3313    1.2689   -0.7019 C   0  0  2  0  0  0  0  0  0  0  0  0
    0.3737    0.3960   -1.2872 O   0  0  0  0  0  0  0  0  0  0  0  0
    4.1811    0.3275   -1.6879 N   0  3  0  0  0  0  0  0  0  0  0  0
    2.3950    0.4513    0.0284 C   0  0  2  0  0  0  0  0  0  0  0  0
    3.3354    1.3297    0.6794 O   0  0  0  0  0  0  0  0  0  0  0  0
    5.6569   -0.6758    3.8058 C   0  0  2  0  0  0  0  0  0  0  0  0
    6.6358   -1.4230    4.6283 N   0  3  0  0  0  0  0  0  0  0  0  0
    5.5010    0.7428    4.3419 C   0  0  0  0  0  0  0  0  0  0  0  0
    4.4952    1.5227    3.5067 C   0  0  2  0  0  0  0  0  0  0  0  0
    4.3940    2.8628    4.0671 N   0  3  0  0  0  0  0  0  0  0  0  0
    3.1415    0.8169    3.5351 C   0  0  1  0  0  0  0  0  0  0  0  0
    2.2031    1.5457    2.7198 O   0  0  0  0  0  0  0  0  0  0  0  0
    3.2655   -0.6201    3.0099 C   0  0  2  0  0  0  0  0  0  0  0  0
    1.9975   -1.2893    3.1474 O   0  0  0  0  0  0  0  0  0  0  0  0
    4.3169   -1.4095    3.7857 C   0  0  1  0  0  0  0  0  0  0  0  0
    4.4863   -2.6883    3.1885 O   0  0  0  0  0  0  0  0  0  0  0  0
  1  2  1  0  0  0  0
  3  2  1  1  0  0  0
  3  5  1  0  0  0  0
  3  4  1  0  0  0  0
  4  9  1  0  0  0  0
  5  7  1  0  0  0  0
  5  6  1  6  0  0  0
  7  9  1  0  0  0  0
  7  8  1  6  0  0  0
  9 40  1  1  0  0  0
 10  6  1  1  0  0  0
 10 11  1  0  0  0  0
 10 18  1  0  0  0  0
 11 13  1  0  0  0  0
 11 12  1  6  0  0  0
 13 15  1  0  0  0  0
 13 14  1  6  0  0  0
 15 17  1  0  0  0  0
 15 16  1  1  0  0  0
 17 19  1  6  0  0  0
 17 18  1  0  0  0  0
 19 20  1  0  0  0  0
 21 29  1  0  0  0  0
 22 23  1  0  0  0  0
 22 31  1  0  0  0  0
 22 38  1  1  0  0  0
 23 25  1  0  0  0  0
 23 24  1  1  0  0  0
 25 27  1  0  0  0  0
 25 26  1  6  0  0  0
 27 30  1  0  0  0  0
 27 28  1  1  0  0  0
 30 21  1  6  0  0  0
 30 31  1  0  0  0  0
 32 34  1  0  0  0  0
 32 41  1  0  0  0  0
 32 33  1  1  0  0  0
 34 35  1  0  0  0  0
 35 37  1  0  0  0  0
 35 36  1  1  0  0  0
 37 39  1  0  0  0  0
 37 38  1  6  0  0  0
 39 41  1  0  0  0  0
 39 40  1  1  0  0  0
 41 42  1  6  0  0  0
M  CHG  6  12   1  20   1  24   1  29   1  33   1  36   1
M  END
>  <CHROM.1>
54.10705223,72.91070940,-82.27230398,-93.27154488,69.35992291,-100.69457798
-26.11948649,-75.42511766,175.58096340,-120.91476681,92.77953657,76.32495135
-167.49110319,-172.81138831,53.41661593,56.45649959,57.92219757,-32.66776889
-59.05797751,30.84362778,146.14680672,64.38914912,0.34410747,-1.06555985
2.22057782,2.69536210,0.28174158,2.39903987

>  <Name>
1NEM.B

>  <RI>
0

>  <Rbt.Current_Directory>
/home/itssahil/PROJECTS/Mol_Feturizer/New_Systems/rnas/1nem

>  <Rbt.Executable>
rbdock ($Id: //depot/dev/client3/rdock/2013.1/src/exe/rbdock.cxx#4 $)

>  <Rbt.Library>
libRbt.so (2013.1, Build901 2013/11/27)

>  <Rbt.Parameter_File>
/export/apps/rDock/src/rDock_2013.1_src/data/scripts/dock_solv.prm

>  <Rbt.Receptor>
prm/pocket_docking_4.prm

>  <SCORE>
-10.6155

>  <SCORE.INTER>
-26.26

>  <SCORE.INTER.CONST>
1

>  <SCORE.INTER.POLAR>
-6.61711

>  <SCORE.INTER.ROT>
9

>  <SCORE.INTER.SOLV>
42.3688

>  <SCORE.INTER.VDW>
-19.1725

>  <SCORE.INTER.norm>
-0.625238

>  <SCORE.INTRA>
15.5509

>  <SCORE.INTRA.DIHEDRAL>
13.0051

>  <SCORE.INTRA.DIHEDRAL.0>
22.4324

>  <SCORE.INTRA.POLAR>
1.63546

>  <SCORE.INTRA.POLAR.0>
-1.83749

>  <SCORE.INTRA.REPUL>
0.0539269

>  <SCORE.INTRA.REPUL.0>
0

>  <SCORE.INTRA.SOLV>
-2.80812

>  <SCORE.INTRA.SOLV.lig_0>
-160.638

>  <SCORE.INTRA.VDW>
4.62222

>  <SCORE.INTRA.VDW.0>
-7.61953

>  <SCORE.INTRA.norm>
0.370259

>  <SCORE.RESTR>
0.0935706

>  <SCORE.RESTR.CAVITY>
0.0935706

>  <SCORE.RESTR.norm>
0.00222787

>  <SCORE.SYSTEM>
0

>  <SCORE.SYSTEM.CONST>
0

>  <SCORE.SYSTEM.DIHEDRAL>
0

>  <SCORE.SYSTEM.SOLV>
0

>  <SCORE.SYSTEM.norm>
0

>  <SCORE.heavy>
42

>  <SCORE.norm>
-0.25275

>  <RMSD>
8.423

$$$$
1NEM.B
 OpenBabel11021811403D
libRbt.so/2013.1/901 2013/11/27
 42 45  0  0  0  0  0  0  0  0999 V2000
    0.6332    0.6652   -3.1979 O   0  0  0  0  0  0  0  0  0  0  0  0
    0.2796    0.3107   -1.8595 C   0  0  0  0  0  0  0  0  0  0  0  0
    1.4828   -0.0988   -1.0112 C   0  0  1  0  0  0  0  0  0  0  0  0
    2.3673    1.0027   -0.8271 O   0  0  0  0  0  0  0  0  0  0  0  0
    1.1442   -0.5126    0.4120 C   0  0  1  0  0  0  0  0  0  0  0  0
    0.5072   -1.7903    0.3427 O   0  0  0  0  0  0  0  0  0  0  0  0
    2.5402   -0.4839    1.0057 C   0  0  1  0  0  0  0  0  0  0  0  0
    3.3615   -1.5448    0.5068 O   0  0  0  0  0  0  0  0  0  0  0  0
    3.0117    0.8605    0.4390 C   0  0  2  0  0  0  0  0  0  0  0  0
   -0.6578   -1.9425    1.1022 C   0  0  2  0  0  0  0  0  0  0  0  0
   -0.7757   -3.4023    1.5610 C   0  0  2  0  0  0  0  0  0  0  0  0
   -0.6751   -4.3146    0.3913 N   0  3  0  0  0  0  0  0  0  0  0  0
   -2.0746   -3.6252    2.3425 C   0  0  1  0  0  0  0  0  0  0  0  0
   -1.9894   -2.9777    3.6051 O   0  0  0  0  0  0  0  0  0  0  0  0
   -3.2836   -3.0882    1.5702 C   0  0  2  0  0  0  0  0  0  0  0  0
   -3.5197   -3.8776    0.4112 O   0  0  0  0  0  0  0  0  0  0  0  0
   -3.0335   -1.6370    1.1697 C   0  0  1  0  0  0  0  0  0  0  0  0
   -1.8244   -1.5500    0.3909 O   0  0  0  0  0  0  0  0  0  0  0  0
   -4.1631   -1.0386    0.3499 C   0  0  0  0  0  0  0  0  0  0  0  0
   -5.3481   -0.7338    1.1822 N   0  3  0  0  0  0  0  0  0  0  0  0
    7.8375    2.1329    5.5430 C   0  0  0  0  0  0  0  0  0  0  0  0
    4.7140    1.6944    3.5991 C   0  0  2  0  0  0  0  0  0  0  0  0
    3.7221    1.3551    4.7091 C   0  0  2  0  0  0  0  0  0  0  0  0
    2.3336    1.5885    4.2454 N   0  3  0  0  0  0  0  0  0  0  0  0
    3.9947    2.2136    5.9370 C   0  0  1  0  0  0  0  0  0  0  0  0
    3.1176    1.8350    6.9867 O   0  0  0  0  0  0  0  0  0  0  0  0
    5.4466    2.0330    6.3746 C   0  0  2  0  0  0  0  0  0  0  0  0
    5.7285    2.8836    7.4785 O   0  0  0  0  0  0  0  0  0  0  0  0
    8.3264    3.0834    6.5680 N   0  3  0  0  0  0  0  0  0  0  0  0
    6.3753    2.3745    5.2110 C   0  0  2  0  0  0  0  0  0  0  0  0
    6.0543    1.5603    4.0648 O   0  0  0  0  0  0  0  0  0  0  0  0
    4.1854    4.7198   -0.7562 C   0  0  2  0  0  0  0  0  0  0  0  0
    4.3427    4.9104   -2.2164 N   0  3  0  0  0  0  0  0  0  0  0  0
    5.5546    4.6160   -0.0938 C   0  0  0  0  0  0  0  0  0  0  0  0
    5.4083    4.4174    1.4084 C   0  0  2  0  0  0  0  0  0  0  0  0
    6.7450    4.3278    1.9786 N   0  3  0  0  0  0  0  0  0  0  0  0
    4.6110    3.1453    1.6868 C   0  0  1  0  0  0  0  0  0  0  0  0
    4.4529    2.9798    3.1095 O   0  0  0  0  0  0  0  0  0  0  0  0
    3.2282    3.2134    1.0241 C   0  0  2  0  0  0  0  0  0  0  0  0
    2.5445    1.9603    1.2171 O   0  0  0  0  0  0  0  0  0  0  0  0
    3.3398    3.4788   -0.4751 C   0  0  1  0  0  0  0  0  0  0  0  0
    2.0404    3.6573   -1.0233 O   0  0  0  0  0  0  0  0  0  0  0  0
  1  2  1  0  0  0  0
  3  2  1  6  0  0  0
  3  5  1  0  0  0  0
  3  4  1  0  0  0  0
  4  9  1  0  0  0  0
  5  7  1  0  0  0  0
  5  6  1  6  0  0  0
  7  9  1  0  0  0  0
  7  8  1  6  0  0  0
  9 40  1  1  0  0  0
 10  6  1  6  0  0  0
 10 11  1  0  0  0  0
 10 18  1  0  0  0  0
 11 13  1  0  0  0  0
 11 12  1  6  0  0  0
 13 15  1  0  0  0  0
 13 14  1  1  0  0  0
 15 17  1  0  0  0  0
 15 16  1  6  0  0  0
 17 19  1  6  0  0  0
 17 18  1  0  0  0  0
 19 20  1  0  0  0  0
 21 29  1  0  0  0  0
 22 23  1  0  0  0  0
 22 31  1  0  0  0  0
 22 38  1  1  0  0  0
 23 25  1  0  0  0  0
 23 24  1  6  0  0  0
 25 27  1  0  0  0  0
 25 26  1  1  0  0  0
 27 30  1  0  0  0  0
 27 28  1  1  0  0  0
 30 21  1  1  0  0  0
 30 31  1  0  0  0  0
 32 34  1  0  0  0  0
 32 41  1  0  0  0  0
 32 33  1  6  0  0  0
 34 35  1  0  0  0  0
 35 37  1  0  0  0  0
 35 36  1  1  0  0  0
 37 39  1  0  0  0  0
 37 38  1  1  0  0  0
 39 41  1  0  0  0  0
 39 40  1  6  0  0  0
 41 42  1  1  0  0  0
M  CHG  6  12   1  20   1  24   1  29   1  33   1  36   1
M  END
>  <CHROM.1>
-177.58982114,65.06858113,-133.71311368,-148.78762335,-160.99763449,-82.97505020
-44.56723564,-171.43233580,178.96330961,74.33047001,77.05043719,-67.86116690
170.25117814,-141.98319904,-108.82167940,-58.16610172,-52.76463668,175.23829035
69.63810618,-133.68955781,-73.50540282,72.14676891,2.17158772,0.81539791
1.82063768,-3.02397479,0.65535758,1.93221640

>  <Name>
1NEM.B

>  <RI>
0

>  <Rbt.Current_Directory>
/home/itssahil/PROJECTS/Mol_Feturizer/New_Systems/rnas/1nem

>  <Rbt.Executable>
rbdock ($Id: //depot/dev/client3/rdock/2013.1/src/exe/rbdock.cxx#4 $)

>  <Rbt.Library>
libRbt.so (2013.1, Build901 2013/11/27)

>  <Rbt.Parameter_File>
/export/apps/rDock/src/rDock_2013.1_src/data/scripts/dock_solv.prm

>  <Rbt.Receptor>
prm/pocket_docking_6.prm

>  <SCORE>
-30.9811

>  <SCORE.INTER>
-38.3534

>  <SCORE.INTER.CONST>
1

>  <SCORE.INTER.POLAR>
-5.38753

>  <SCORE.INTER.ROT>
9

>  <SCORE.INTER.SOLV>
27.7287

>  <SCORE.INTER.VDW>
-26.4534

>  <SCORE.INTER.norm>
-0.913177

>  <SCORE.INTRA>
7.3723

>  <SCORE.INTRA.DIHEDRAL>
11.3892

>  <SCORE.INTRA.DIHEDRAL.0>
22.4324

>  <SCORE.INTRA.POLAR>
0.0935721

>  <SCORE.INTRA.POLAR.0>
-1.83749

>  <SCORE.INTRA.REPUL>
0

>  <SCORE.INTRA.REPUL.0>
0

>  <SCORE.INTRA.SOLV>
-3.64442

>  <SCORE.INTRA.SOLV.lig_0>
-160.638

>  <SCORE.INTRA.VDW>
3.18176

>  <SCORE.INTRA.VDW.0>
-7.61953

>  <SCORE.INTRA.norm>
0.175531

>  <SCORE.RESTR>
0

>  <SCORE.RESTR.CAVITY>
0

>  <SCORE.RESTR.norm>
0

>  <SCORE.SYSTEM>
0

>  <SCORE.SYSTEM.CONST>
0

>  <SCORE.SYSTEM.DIHEDRAL>
0

>  <SCORE.SYSTEM.SOLV>
0

>  <SCORE.SYSTEM.norm>
0

>  <SCORE.heavy>
42

>  <SCORE.norm>
-0.737646

>  <RMSD>
8.424

$$$$
1NEM.B
 OpenBabel11021811403D
libRbt.so/2013.1/901 2013/11/27
 42 45  0  0  0  0  0  0  0  0999 V2000
   -2.7217    1.0696    0.5051 O   0  0  0  0  0  0  0  0  0  0  0  0
   -2.7264   -0.3005    0.0992 C   0  0  0  0  0  0  0  0  0  0  0  0
   -1.3250   -0.8546   -0.1535 C   0  0  1  0  0  0  0  0  0  0  0  0
   -0.6025   -0.0096   -1.0443 O   0  0  0  0  0  0  0  0  0  0  0  0
   -0.4319   -0.9059    1.0759 C   0  0  1  0  0  0  0  0  0  0  0  0
   -0.9151   -1.9627    1.9082 O   0  0  0  0  0  0  0  0  0  0  0  0
    0.9014   -1.1401    0.3908 C   0  0  1  0  0  0  0  0  0  0  0  0
    0.9939   -2.4505   -0.1779 O   0  0  0  0  0  0  0  0  0  0  0  0
    0.7856   -0.0893   -0.7197 C   0  0  2  0  0  0  0  0  0  0  0  0
   -2.2650   -1.8970    2.2699 C   0  0  2  0  0  0  0  0  0  0  0  0
   -2.4312   -2.4224    3.7023 C   0  0  2  0  0  0  0  0  0  0  0  0
   -1.8221   -3.7731    3.8244 N   0  3  0  0  0  0  0  0  0  0  0  0
   -3.9071   -2.4277    4.1135 C   0  0  1  0  0  0  0  0  0  0  0  0
   -4.3589   -1.0914    4.2887 O   0  0  0  0  0  0  0  0  0  0  0  0
   -4.7717   -3.1286    3.0611 C   0  0  2  0  0  0  0  0  0  0  0  0
   -4.4869   -4.5216    3.0360 O   0  0  0  0  0  0  0  0  0  0  0  0
   -4.5051   -2.5178    1.6882 C   0  0  1  0  0  0  0  0  0  0  0  0
   -3.1021   -2.6191    1.3761 O   0  0  0  0  0  0  0  0  0  0  0  0
   -5.2834   -3.1912    0.5715 C   0  0  0  0  0  0  0  0  0  0  0  0
   -5.2593   -2.3957   -0.6761 N   0  3  0  0  0  0  0  0  0  0  0  0
    7.6923    3.6426   -0.9371 C   0  0  0  0  0  0  0  0  0  0  0  0
    4.9604    1.1815   -1.3911 C   0  0  2  0  0  0  0  0  0  0  0  0
    5.2902    0.1706   -0.2955 C   0  0  2  0  0  0  0  0  0  0  0  0
    4.0972   -0.6505    0.0211 N   0  3  0  0  0  0  0  0  0  0  0  0
    5.7537    0.8927    0.9625 C   0  0  1  0  0  0  0  0  0  0  0  0
    6.1308   -0.0587    1.9459 O   0  0  0  0  0  0  0  0  0  0  0  0
    6.9370    1.7974    0.6258 C   0  0  2  0  0  0  0  0  0  0  0  0
    7.3317    2.5274    1.7802 O   0  0  0  0  0  0  0  0  0  0  0  0
    8.7018    2.8643   -1.6909 N   0  3  0  0  0  0  0  0  0  0  0  0
    6.5369    2.7668   -0.4848 C   0  0  2  0  0  0  0  0  0  0  0  0
    6.0741    2.0356   -1.6384 O   0  0  0  0  0  0  0  0  0  0  0  0
    0.5362    3.1439   -3.4399 C   0  0  2  0  0  0  0  0  0  0  0  0
   -0.5813    3.0975   -4.4106 N   0  3  0  0  0  0  0  0  0  0  0  0
    1.8397    2.7526   -4.1269 C   0  0  0  0  0  0  0  0  0  0  0  0
    2.9978    2.7938   -3.1397 C   0  0  2  0  0  0  0  0  0  0  0  0
    4.2074    2.4133   -3.8553 N   0  3  0  0  0  0  0  0  0  0  0  0
    2.7255    1.8356   -1.9825 C   0  0  1  0  0  0  0  0  0  0  0  0
    3.8125    1.9015   -1.0389 O   0  0  0  0  0  0  0  0  0  0  0  0
    1.4123    2.1965   -1.2743 C   0  0  2  0  0  0  0  0  0  0  0  0
    1.1328    1.2145   -0.2584 O   0  0  0  0  0  0  0  0  0  0  0  0
    0.2407    2.2291   -2.2525 C   0  0  1  0  0  0  0  0  0  0  0  0
   -0.9255    2.6867   -1.5809 O   0  0  0  0  0  0  0  0  0  0  0  0
  1  2  1  0  0  0  0
  3  2  1  1  0  0  0
  3  5  1  0  0  0  0
  3  4  1  0  0  0  0
  4  9  1  0  0  0  0
  5  7  1  0  0  0  0
  5  6  1  1  0  0  0
  7  9  1  0  0  0  0
  7  8  1  6  0  0  0
  9 40  1  1  0  0  0
 10  6  1  6  0  0  0
 10 11  1  0  0  0  0
 10 18  1  0  0  0  0
 11 13  1  0  0  0  0
 11 12  1  6  0  0  0
 13 15  1  0  0  0  0
 13 14  1  6  0  0  0
 15 17  1  0  0  0  0
 15 16  1  6  0  0  0
 17 19  1  6  0  0  0
 17 18  1  0  0  0  0
 19 20  1  0  0  0  0
 21 29  1  0  0  0  0
 22 23  1  0  0  0  0
 22 31  1  0  0  0  0
 22 38  1  1  0  0  0
 23 25  1  0  0  0  0
 23 24  1  1  0  0  0
 25 27  1  0  0  0  0
 25 26  1  1  0  0  0
 27 30  1  0  0  0  0
 27 28  1  1  0  0  0
 30 21  1  6  0  0  0
 30 31  1  0  0  0  0
 32 34  1  0  0  0  0
 32 41  1  0  0  0  0
 32 33  1  6  0  0  0
 34 35  1  0  0  0  0
 35 37  1  0  0  0  0
 35 36  1  6  0  0  0
 37 39  1  0  0  0  0
 37 38  1  1  0  0  0
 39 41  1  0  0  0  0
 39 40  1  1  0  0  0
 41 42  1  1  0  0  0
M  CHG  6  12   1  20   1  24   1  29   1  33   1  36   1
M  END
>  <CHROM.1>
-62.51010613,-51.89239219,-55.05197933,-144.26230028,173.80260077,-81.74547464
92.68967246,-82.08310391,-76.39411257,166.56948806,3.41614855,70.79216955
-175.38953191,-122.57521501,56.07887117,-46.46845390,177.16860624,-78.59553519
51.67945004,-79.33581671,-69.05373048,-58.74150436,0.92215986,0.14704876
0.02066431,2.63308929,0.19985746,2.19228726

>  <Name>
1NEM.B

>  <RI>
0

>  <Rbt.Current_Directory>
/home/itssahil/PROJECTS/Mol_Feturizer/New_Systems/rnas/1nem

>  <Rbt.Executable>
rbdock ($Id: //depot/dev/client3/rdock/2013.1/src/exe/rbdock.cxx#4 $)

>  <Rbt.Library>
libRbt.so (2013.1, Build901 2013/11/27)

>  <Rbt.Parameter_File>
/export/apps/rDock/src/rDock_2013.1_src/data/scripts/dock_solv.prm

>  <Rbt.Receptor>
prm/pocket_docking_8.prm

>  <SCORE>
-24.779

>  <SCORE.INTER>
-41.8409

>  <SCORE.INTER.CONST>
1

>  <SCORE.INTER.POLAR>
-7.9947

>  <SCORE.INTER.ROT>
9

>  <SCORE.INTER.SOLV>
30.3605

>  <SCORE.INTER.VDW>
-20.9651

>  <SCORE.INTER.norm>
-0.996212

>  <SCORE.INTRA>
17.0619

>  <SCORE.INTRA.DIHEDRAL>
6.96142

>  <SCORE.INTRA.DIHEDRAL.0>
22.4324

>  <SCORE.INTRA.POLAR>
0.687086

>  <SCORE.INTRA.POLAR.0>
-1.83749

>  <SCORE.INTRA.REPUL>
0

>  <SCORE.INTRA.REPUL.0>
0

>  <SCORE.INTRA.SOLV>
1.95443

>  <SCORE.INTRA.SOLV.lig_0>
-160.638

>  <SCORE.INTRA.VDW>
10.2679

>  <SCORE.INTRA.VDW.0>
-7.61953

>  <SCORE.INTRA.norm>
0.406236

>  <SCORE.RESTR>
0

>  <SCORE.RESTR.CAVITY>
0

>  <SCORE.RESTR.norm>
0

>  <SCORE.SYSTEM>
0

>  <SCORE.SYSTEM.CONST>
0

>  <SCORE.SYSTEM.DIHEDRAL>
0

>  <SCORE.SYSTEM.SOLV>
0

>  <SCORE.SYSTEM.norm>
0

>  <SCORE.heavy>
42

>  <SCORE.norm>
-0.589976

>  <RMSD>
8.427

$$$$
1NEM.B
 OpenBabel11021811403D
libRbt.so/2013.1/901 2013/11/27
 42 45  0  0  0  0  0  0  0  0999 V2000
   -4.2647    1.9343   -0.9832 O   0  0  0  0  0  0  0  0  0  0  0  0
   -4.6188    1.0029    0.0411 C   0  0  0  0  0  0  0  0  0  0  0  0
   -3.9698   -0.3677   -0.1461 C   0  0  1  0  0  0  0  0  0  0  0  0
   -2.6000   -0.2304   -0.5125 O   0  0  0  0  0  0  0  0  0  0  0  0
   -3.9079   -1.2177    1.1129 C   0  0  1  0  0  0  0  0  0  0  0  0
   -5.2372   -1.6646    1.3894 O   0  0  0  0  0  0  0  0  0  0  0  0
   -2.9246   -2.2717    0.6394 C   0  0  1  0  0  0  0  0  0  0  0  0
   -3.4929   -3.1345   -0.3514 O   0  0  0  0  0  0  0  0  0  0  0  0
   -1.8785   -1.3506    0.0005 C   0  0  2  0  0  0  0  0  0  0  0  0
   -5.3925   -2.4871    2.5104 C   0  0  2  0  0  0  0  0  0  0  0  0
   -6.5239   -1.9367    3.3892 C   0  0  2  0  0  0  0  0  0  0  0  0
   -6.2768   -0.5043    3.7014 N   0  3  0  0  0  0  0  0  0  0  0  0
   -6.6823   -2.7743    4.6623 C   0  0  1  0  0  0  0  0  0  0  0  0
   -7.2248   -4.0462    4.3328 O   0  0  0  0  0  0  0  0  0  0  0  0
   -5.3385   -2.9576    5.3743 C   0  0  2  0  0  0  0  0  0  0  0  0
   -4.8916   -1.7194    5.9121 O   0  0  0  0  0  0  0  0  0  0  0  0
   -4.3062   -3.5008    4.3904 C   0  0  1  0  0  0  0  0  0  0  0  0
   -4.1932   -2.6094    3.2640 O   0  0  0  0  0  0  0  0  0  0  0  0
   -2.9249   -3.6631    5.0000 C   0  0  0  0  0  0  0  0  0  0  0  0
   -2.8910   -4.7424    6.0118 N   0  3  0  0  0  0  0  0  0  0  0  0
    0.1539    4.6205    1.7577 C   0  0  0  0  0  0  0  0  0  0  0  0
   -0.1562    1.4400   -0.1172 C   0  0  2  0  0  0  0  0  0  0  0  0
   -0.3851    1.9560   -1.5357 C   0  0  2  0  0  0  0  0  0  0  0  0
   -0.0799    0.8938   -2.5237 N   0  3  0  0  0  0  0  0  0  0  0  0
    0.5019    3.1643   -1.8042 C   0  0  1  0  0  0  0  0  0  0  0  0
    0.2239    3.6813   -3.0965 O   0  0  0  0  0  0  0  0  0  0  0  0
    0.2442    4.2330   -0.7442 C   0  0  2  0  0  0  0  0  0  0  0  0
    1.1179    5.3362   -0.9471 O   0  0  0  0  0  0  0  0  0  0  0  0
    0.1338    3.9541    3.0800 N   0  3  0  0  0  0  0  0  0  0  0  0
    0.4774    3.6399    0.6440 C   0  0  2  0  0  0  0  0  0  0  0  0
   -0.3592    2.4808    0.8349 O   0  0  0  0  0  0  0  0  0  0  0  0
    2.0829   -2.6978    2.0601 C   0  0  2  0  0  0  0  0  0  0  0  0
    2.2918   -3.6550    3.1707 N   0  3  0  0  0  0  0  0  0  0  0  0
    2.9810   -1.4800    2.2459 C   0  0  0  0  0  0  0  0  0  0  0  0
    2.7752   -0.4857    1.1118 C   0  0  2  0  0  0  0  0  0  0  0  0
    3.6585    0.6478    1.3467 N   0  3  0  0  0  0  0  0  0  0  0  0
    1.3154   -0.0396    1.0734 C   0  0  1  0  0  0  0  0  0  0  0  0
    1.1229    0.8793   -0.0197 O   0  0  0  0  0  0  0  0  0  0  0  0
    0.3821   -1.2454    0.8969 C   0  0  2  0  0  0  0  0  0  0  0  0
   -0.9869   -0.8037    0.9696 O   0  0  0  0  0  0  0  0  0  0  0  0
    0.6117   -2.2932    1.9833 C   0  0  1  0  0  0  0  0  0  0  0  0
   -0.1814   -3.4409    1.7106 O   0  0  0  0  0  0  0  0  0  0  0  0
  1  2  1  0  0  0  0
  3  2  1  1  0  0  0
  3  5  1  0  0  0  0
  3  4  1  0  0  0  0
  4  9  1  0  0  0  0
  5  7  1  0  0  0  0
  5  6  1  6  0  0  0
  7  9  1  0  0  0  0
  7  8  1  6  0  0  0
  9 40  1  1  0  0  0
 10  6  1  6  0  0  0
 10 11  1  0  0  0  0
 10 18  1  0  0  0  0
 11 13  1  0  0  0  0
 11 12  1  1  0  0  0
 13 15  1  0  0  0  0
 13 14  1  6  0  0  0
 15 17  1  0  0  0  0
 15 16  1  6  0  0  0
 17 19  1  1  0  0  0
 17 18  1  0  0  0  0
 19 20  1  0  0  0  0
 21 29  1  0  0  0  0
 22 23  1  0  0  0  0
 22 31  1  0  0  0  0
 22 38  1  6  0  0  0
 23 25  1  0  0  0  0
 23 24  1  6  0  0  0
 25 27  1  0  0  0  0
 25 26  1  6  0  0  0
 27 30  1  0  0  0  0
 27 28  1  6  0  0  0
 30 21  1  1  0  0  0
 30 31  1  0  0  0  0
 32 34  1  0  0  0  0
 32 41  1  0  0  0  0
 32 33  1  1  0  0  0
 34 35  1  0  0  0  0
 35 37  1  0  0  0  0
 35 36  1  1  0  0  0
 37 39  1  0  0  0  0
 37 38  1  6  0  0  0
 39 41  1  0  0  0  0
 39 40  1  1  0  0  0
 41 42  1  6  0  0  0
M  CHG  6  12   1  20   1  24   1  29   1  33   1  36   1
M  END
>  <CHROM.1>
-46.64545647,43.55634438,179.06804580,129.48576094,-59.33661153,-132.76203089
132.83710292,65.05769846,-168.70361753,68.46250985,-64.32479612,169.02973358
-67.57074757,-159.37047114,90.97264963,-65.13505402,70.51359251,140.14237271
-46.21242624,-175.84963922,136.43442549,-55.57591157,-1.70362070,-0.40963349
1.47753564,0.87112265,0.04697418,-0.63267211

>  <Name>
1NEM.B

>  <RI>
0

>  <Rbt.Current_Directory>
/home/itssahil/PROJECTS/Mol_Feturizer/New_Systems/rnas/1nem

>  <Rbt.Executable>
rbdock ($Id: //depot/dev/client3/rdock/2013.1/src/exe/rbdock.cxx#4 $)

>  <Rbt.Library>
libRbt.so (2013.1, Build901 2013/11/27)

>  <Rbt.Parameter_File>
/export/apps/rDock/src/rDock_2013.1_src/data/scripts/dock_solv.prm

>  <Rbt.Receptor>
prm/pocket_docking_7.prm

>  <SCORE>
-23.259

>  <SCORE.INTER>
-35.1827

>  <SCORE.INTER.CONST>
1

>  <SCORE.INTER.POLAR>
-5.32683

>  <SCORE.INTER.ROT>
9

>  <SCORE.INTER.SOLV>
45.7932

>  <SCORE.INTER.VDW>
-30.5634

>  <SCORE.INTER.norm>
-0.837684

>  <SCORE.INTRA>
11.8529

>  <SCORE.INTRA.DIHEDRAL>
11.7155

>  <SCORE.INTRA.DIHEDRAL.0>
22.4324

>  <SCORE.INTRA.POLAR>
0.904315

>  <SCORE.INTRA.POLAR.0>
-1.83749

>  <SCORE.INTRA.REPUL>
0.00854432

>  <SCORE.INTRA.REPUL.0>
0

>  <SCORE.INTRA.SOLV>
-6.80427

>  <SCORE.INTRA.SOLV.lig_0>
-160.638

>  <SCORE.INTRA.VDW>
6.27996

>  <SCORE.INTRA.VDW.0>
-7.61953

>  <SCORE.INTRA.norm>
0.282213

>  <SCORE.RESTR>
0.0707322

>  <SCORE.RESTR.CAVITY>
0.0707322

>  <SCORE.RESTR.norm>
0.0016841

>  <SCORE.SYSTEM>
0

>  <SCORE.SYSTEM.CONST>
0

>  <SCORE.SYSTEM.DIHEDRAL>
0

>  <SCORE.SYSTEM.SOLV>
0

>  <SCORE.SYSTEM.norm>
0

>  <SCORE.heavy>
42

>  <SCORE.norm>
-0.553787

>  <RMSD>
8.443

$$$$
1NEM.B
 OpenBabel11021811403D
libRbt.so/2013.1/901 2013/11/27
 42 45  0  0  0  0  0  0  0  0999 V2000
   -0.2464   -6.1990    0.6352 O   0  0  0  0  0  0  0  0  0  0  0  0
   -1.2972   -5.2316    0.6808 C   0  0  0  0  0  0  0  0  0  0  0  0
   -1.4605   -4.5900    2.0579 C   0  0  1  0  0  0  0  0  0  0  0  0
   -0.3648   -3.7255    2.3437 O   0  0  0  0  0  0  0  0  0  0  0  0
   -2.6674   -3.6753    2.1925 C   0  0  1  0  0  0  0  0  0  0  0  0
   -3.8295   -4.5072    2.2230 O   0  0  0  0  0  0  0  0  0  0  0  0
   -2.2968   -2.9831    3.4907 C   0  0  1  0  0  0  0  0  0  0  0  0
   -2.3832   -3.8633    4.6163 O   0  0  0  0  0  0  0  0  0  0  0  0
   -0.8293   -2.6655    3.1799 C   0  0  2  0  0  0  0  0  0  0  0  0
   -5.0160   -3.9294    1.7586 C   0  0  2  0  0  0  0  0  0  0  0  0
   -5.8337   -3.4223    2.9542 C   0  0  2  0  0  0  0  0  0  0  0  0
   -6.0230   -4.5157    3.9436 N   0  3  0  0  0  0  0  0  0  0  0  0
   -7.1730   -2.8398    2.4912 C   0  0  1  0  0  0  0  0  0  0  0  0
   -6.9500   -1.6129    1.8089 O   0  0  0  0  0  0  0  0  0  0  0  0
   -7.9102   -3.8147    1.5678 C   0  0  2  0  0  0  0  0  0  0  0  0
   -8.3429   -4.9555    2.2982 O   0  0  0  0  0  0  0  0  0  0  0  0
   -6.9862   -4.2436    0.4315 C   0  0  1  0  0  0  0  0  0  0  0  0
   -5.7881   -4.8304    0.9755 O   0  0  0  0  0  0  0  0  0  0  0  0
   -7.6199   -5.2561   -0.5062 C   0  0  0  0  0  0  0  0  0  0  0  0
   -8.1167   -6.4460    0.2199 N   0  3  0  0  0  0  0  0  0  0  0  0
   -1.5973    3.1241    1.3326 C   0  0  0  0  0  0  0  0  0  0  0  0
   -2.5261   -0.3547    0.4594 C   0  0  2  0  0  0  0  0  0  0  0  0
   -3.7279   -0.1182   -0.4522 C   0  0  2  0  0  0  0  0  0  0  0  0
   -3.9836   -1.3171   -1.2857 N   0  3  0  0  0  0  0  0  0  0  0  0
   -3.4726    1.0799   -1.3569 C   0  0  1  0  0  0  0  0  0  0  0  0
   -4.6257    1.3366   -2.1436 O   0  0  0  0  0  0  0  0  0  0  0  0
   -3.1355    2.3012   -0.5045 C   0  0  2  0  0  0  0  0  0  0  0  0
   -2.8281    3.4070   -1.3437 O   0  0  0  0  0  0  0  0  0  0  0  0
   -0.1381    3.3722    1.3811 N   0  3  0  0  0  0  0  0  0  0  0  0
   -1.9378    1.9839    0.3888 C   0  0  2  0  0  0  0  0  0  0  0  0
   -2.2167    0.8237    1.1987 O   0  0  0  0  0  0  0  0  0  0  0  0
    2.6654   -1.2484    0.7013 C   0  0  2  0  0  0  0  0  0  0  0  0
    4.0102   -0.9549    1.2478 N   0  3  0  0  0  0  0  0  0  0  0  0
    2.2729   -0.1836   -0.3167 C   0  0  0  0  0  0  0  0  0  0  0  0
    0.8906   -0.4715   -0.8857 C   0  0  2  0  0  0  0  0  0  0  0  0
    0.5774    0.5757   -1.8476 N   0  3  0  0  0  0  0  0  0  0  0  0
   -0.1377   -0.4998    0.2427 C   0  0  1  0  0  0  0  0  0  0  0  0
   -1.4381   -0.8006   -0.3004 O   0  0  0  0  0  0  0  0  0  0  0  0
    0.2341   -1.5567    1.2919 C   0  0  2  0  0  0  0  0  0  0  0  0
   -0.6949   -1.4858    2.3904 O   0  0  0  0  0  0  0  0  0  0  0  0
    1.6438   -1.3338    1.8340 C   0  0  1  0  0  0  0  0  0  0  0  0
    1.9912   -2.4016    2.7055 O   0  0  0  0  0  0  0  0  0  0  0  0
  1  2  1  0  0  0  0
  3  2  1  6  0  0  0
  3  5  1  0  0  0  0
  3  4  1  0  0  0  0
  4  9  1  0  0  0  0
  5  7  1  0  0  0  0
  5  6  1  1  0  0  0
  7  9  1  0  0  0  0
  7  8  1  1  0  0  0
  9 40  1  6  0  0  0
 10  6  1  1  0  0  0
 10 11  1  0  0  0  0
 10 18  1  0  0  0  0
 11 13  1  0  0  0  0
 11 12  1  1  0  0  0
 13 15  1  0  0  0  0
 13 14  1  6  0  0  0
 15 17  1  0  0  0  0
 15 16  1  1  0  0  0
 17 19  1  6  0  0  0
 17 18  1  0  0  0  0
 19 20  1  0  0  0  0
 21 29  1  0  0  0  0
 22 23  1  0  0  0  0
 22 31  1  0  0  0  0
 22 38  1  6  0  0  0
 23 25  1  0  0  0  0
 23 24  1  6  0  0  0
 25 27  1  0  0  0  0
 25 26  1  1  0  0  0
 27 30  1  0  0  0  0
 27 28  1  6  0  0  0
 30 21  1  1  0  0  0
 30 31  1  0  0  0  0
 32 34  1  0  0  0  0
 32 41  1  0  0  0  0
 32 33  1  1  0  0  0
 34 35  1  0  0  0  0
 35 37  1  0  0  0  0
 35 36  1  6  0  0  0
 37 39  1  0  0  0  0
 37 38  1  6  0  0  0
 39 41  1  0  0  0  0
 39 40  1  1  0  0  0
 41 42  1  1  0  0  0
M  CHG  6  12   1  20   1  24   1  29   1  33   1  36   1
M  END
>  <CHROM.1>
-86.07766309,70.54080768,-152.68237570,-97.57913765,138.36460727,-21.17238016
-70.24687880,177.73715656,66.22139136,-54.92631900,-71.25118147,-135.83403147
-23.18955649,153.10718642,36.04576313,-67.24232079,-62.17397142,-173.50994993
70.88325152,-155.61885996,156.97498712,-60.50620480,-2.61068626,-1.87345662
1.04713096,-2.54837986,-0.12606666,-0.42543541

>  <Name>
1NEM.B

>  <RI>
0

>  <Rbt.Current_Directory>
/home/itssahil/PROJECTS/Mol_Feturizer/New_Systems/rnas/1nem

>  <Rbt.Executable>
rbdock ($Id: //depot/dev/client3/rdock/2013.1/src/exe/rbdock.cxx#4 $)

>  <Rbt.Library>
libRbt.so (2013.1, Build901 2013/11/27)

>  <Rbt.Parameter_File>
/export/apps/rDock/src/rDock_2013.1_src/data/scripts/dock_solv.prm

>  <Rbt.Receptor>
prm/blind_docking_80.prm

>  <SCORE>
9.86344

>  <SCORE.INTER>
-12.2153

>  <SCORE.INTER.CONST>
1

>  <SCORE.INTER.POLAR>
-5.79736

>  <SCORE.INTER.ROT>
9

>  <SCORE.INTER.SOLV>
42.0436

>  <SCORE.INTER.VDW>
-12.4335

>  <SCORE.INTER.norm>
-0.29084

>  <SCORE.INTRA>
12.996

>  <SCORE.INTRA.DIHEDRAL>
17.2002

>  <SCORE.INTRA.DIHEDRAL.0>
22.4324

>  <SCORE.INTRA.POLAR>
0.597079

>  <SCORE.INTRA.POLAR.0>
-1.83749

>  <SCORE.INTRA.REPUL>
0

>  <SCORE.INTRA.REPUL.0>
0

>  <SCORE.INTRA.SOLV>
-2.08805

>  <SCORE.INTRA.SOLV.lig_0>
-160.638

>  <SCORE.INTRA.VDW>
3.40988

>  <SCORE.INTRA.VDW.0>
-7.61953

>  <SCORE.INTRA.norm>
0.309429

>  <SCORE.RESTR>
9.08269

>  <SCORE.RESTR.CAVITY>
9.08269

>  <SCORE.RESTR.norm>
0.216255

>  <SCORE.SYSTEM>
0

>  <SCORE.SYSTEM.CONST>
0

>  <SCORE.SYSTEM.DIHEDRAL>
0

>  <SCORE.SYSTEM.SOLV>
0

>  <SCORE.SYSTEM.norm>
0

>  <SCORE.heavy>
42

>  <SCORE.norm>
0.234844

>  <RMSD>
8.460

$$$$
1NEM.B
 OpenBabel11021811403D
libRbt.so/2013.1/901 2013/11/27
 42 45  0  0  0  0  0  0  0  0999 V2000
   -2.0601   -0.7714    1.1352 O   0  0  0  0  0  0  0  0  0  0  0  0
   -1.7845   -2.0455    0.5497 C   0  0  0  0  0  0  0  0  0  0  0  0
   -0.5047   -2.6859    1.0854 C   0  0  1  0  0  0  0  0  0  0  0  0
    0.6426   -1.9725    0.6334 O   0  0  0  0  0  0  0  0  0  0  0  0
   -0.3618   -2.6483    2.5985 C   0  0  1  0  0  0  0  0  0  0  0  0
   -1.2938   -3.5891    3.1366 O   0  0  0  0  0  0  0  0  0  0  0  0
    1.1068   -3.0132    2.7072 C   0  0  1  0  0  0  0  0  0  0  0  0
    1.3518   -4.3789    2.3550 O   0  0  0  0  0  0  0  0  0  0  0  0
    1.6639   -2.0805    1.6253 C   0  0  2  0  0  0  0  0  0  0  0  0
   -2.6031   -3.1295    3.3152 C   0  0  2  0  0  0  0  0  0  0  0  0
   -2.8388   -2.8388    4.8036 C   0  0  2  0  0  0  0  0  0  0  0  0
   -2.4839   -4.0303    5.6188 N   0  3  0  0  0  0  0  0  0  0  0  0
   -4.2842   -2.3943    5.0502 C   0  0  1  0  0  0  0  0  0  0  0  0
   -4.4823   -1.0936    4.5122 O   0  0  0  0  0  0  0  0  0  0  0  0
   -5.2789   -3.3704    4.4145 C   0  0  2  0  0  0  0  0  0  0  0  0
   -5.2529   -4.6171    5.0979 O   0  0  0  0  0  0  0  0  0  0  0  0
   -4.9279   -3.5755    2.9435 C   0  0  1  0  0  0  0  0  0  0  0  0
   -3.5721   -4.0495    2.8296 O   0  0  0  0  0  0  0  0  0  0  0  0
   -5.8338   -4.5742    2.2451 C   0  0  0  0  0  0  0  0  0  0  0  0
   -7.1543   -3.9900    1.9213 N   0  3  0  0  0  0  0  0  0  0  0  0
    8.1176   -0.8299    4.6224 C   0  0  0  0  0  0  0  0  0  0  0  0
    4.5192   -0.7673    3.7422 C   0  0  2  0  0  0  0  0  0  0  0  0
    3.8966   -0.3679    5.0779 C   0  0  2  0  0  0  0  0  0  0  0  0
    2.5300    0.1667    4.8676 N   0  3  0  0  0  0  0  0  0  0  0  0
    4.7527    0.6907    5.7602 C   0  0  1  0  0  0  0  0  0  0  0  0
    4.2061    0.9966    7.0338 O   0  0  0  0  0  0  0  0  0  0  0  0
    6.1812    0.1726    5.9122 C   0  0  2  0  0  0  0  0  0  0  0  0
    7.0031    1.1811    6.4856 O   0  0  0  0  0  0  0  0  0  0  0  0
    8.0579   -2.2849    4.8918 N   0  3  0  0  0  0  0  0  0  0  0  0
    6.7288   -0.2205    4.5415 C   0  0  2  0  0  0  0  0  0  0  0  0
    5.8658   -1.1970    3.9241 O   0  0  0  0  0  0  0  0  0  0  0  0
    3.0574    0.6661   -1.1654 C   0  0  2  0  0  0  0  0  0  0  0  0
    2.7156    0.3142   -2.5628 N   0  3  0  0  0  0  0  0  0  0  0  0
    4.5435    0.4329   -0.9180 C   0  0  0  0  0  0  0  0  0  0  0  0
    4.9092    0.7886    0.5163 C   0  0  2  0  0  0  0  0  0  0  0  0
    6.3348    0.5463    0.6862 N   0  3  0  0  0  0  0  0  0  0  0  0
    4.0927   -0.0637    1.4849 C   0  0  1  0  0  0  0  0  0  0  0  0
    4.4239    0.2987    2.8396 O   0  0  0  0  0  0  0  0  0  0  0  0
    2.5888    0.1405    1.2551 C   0  0  2  0  0  0  0  0  0  0  0  0
    1.8500   -0.7526    2.1103 O   0  0  0  0  0  0  0  0  0  0  0  0
    2.2013   -0.1445   -0.1937 C   0  0  1  0  0  0  0  0  0  0  0  0
    0.8304    0.1758   -0.3900 O   0  0  0  0  0  0  0  0  0  0  0  0
  1  2  1  0  0  0  0
  3  2  1  1  0  0  0
  3  5  1  0  0  0  0
  3  4  1  0  0  0  0
  4  9  1  0  0  0  0
  5  7  1  0  0  0  0
  5  6  1  1  0  0  0
  7  9  1  0  0  0  0
  7  8  1  6  0  0  0
  9 40  1  1  0  0  0
 10  6  1  1  0  0  0
 10 11  1  0  0  0  0
 10 18  1  0  0  0  0
 11 13  1  0  0  0  0
 11 12  1  1  0  0  0
 13 15  1  0  0  0  0
 13 14  1  6  0  0  0
 15 17  1  0  0  0  0
 15 16  1  1  0  0  0
 17 19  1  1  0  0  0
 17 18  1  0  0  0  0
 19 20  1  0  0  0  0
 21 29  1  0  0  0  0
 22 23  1  0  0  0  0
 22 31  1  0  0  0  0
 22 38  1  6  0  0  0
 23 25  1  0  0  0  0
 23 24  1  6  0  0  0
 25 27  1  0  0  0  0
 25 26  1  1  0  0  0
 27 30  1  0  0  0  0
 27 28  1  6  0  0  0
 30 21  1  1  0  0  0
 30 31  1  0  0  0  0
 32 34  1  0  0  0  0
 32 41  1  0  0  0  0
 32 33  1  6  0  0  0
 34 35  1  0  0  0  0
 35 37  1  0  0  0  0
 35 36  1  6  0  0  0
 37 39  1  0  0  0  0
 37 38  1  1  0  0  0
 39 41  1  0  0  0  0
 39 40  1  1  0  0  0
 41 42  1  1  0  0  0
M  CHG  6  12   1  20   1  24   1  29   1  33   1  36   1
M  END
>  <CHROM.1>
-64.94160080,-69.63746135,-84.36078589,-103.29686726,-64.15437567,-76.16359463
-175.21969260,-157.88730942,68.47859884,76.80288619,172.86254829,85.62458665
-155.83144320,-139.83715578,42.27622744,43.28997488,177.13244824,-39.26158777
-176.36802076,-140.24043464,-83.78292736,-56.57801047,1.15494060,-1.46055889
2.85623108,3.10122794,0.32398100,1.74877317

>  <Name>
1NEM.B

>  <RI>
0

>  <Rbt.Current_Directory>
/home/itssahil/PROJECTS/Mol_Feturizer/New_Systems/rnas/1nem

>  <Rbt.Executable>
rbdock ($Id: //depot/dev/client3/rdock/2013.1/src/exe/rbdock.cxx#4 $)

>  <Rbt.Library>
libRbt.so (2013.1, Build901 2013/11/27)

>  <Rbt.Parameter_File>
/export/apps/rDock/src/rDock_2013.1_src/data/scripts/dock_solv.prm

>  <Rbt.Receptor>
prm/pocket_docking_5.prm

>  <SCORE>
-36.8761

>  <SCORE.INTER>
-48.5647

>  <SCORE.INTER.CONST>
1

>  <SCORE.INTER.POLAR>
-7.02099

>  <SCORE.INTER.ROT>
9

>  <SCORE.INTER.SOLV>
38.7139

>  <SCORE.INTER.VDW>
-31.4778

>  <SCORE.INTER.norm>
-1.1563

>  <SCORE.INTRA>
11.6886

>  <SCORE.INTRA.DIHEDRAL>
11.6319

>  <SCORE.INTRA.DIHEDRAL.0>
22.4324

>  <SCORE.INTRA.POLAR>
0.636698

>  <SCORE.INTRA.POLAR.0>
-1.83749

>  <SCORE.INTRA.REPUL>
0

>  <SCORE.INTRA.REPUL.0>
0

>  <SCORE.INTRA.SOLV>
-3.6528

>  <SCORE.INTRA.SOLV.lig_0>
-160.638

>  <SCORE.INTRA.VDW>
5.5343

>  <SCORE.INTRA.VDW.0>
-7.61953

>  <SCORE.INTRA.norm>
0.278301

>  <SCORE.RESTR>
0

>  <SCORE.RESTR.CAVITY>
0

>  <SCORE.RESTR.norm>
0

>  <SCORE.SYSTEM>
0

>  <SCORE.SYSTEM.CONST>
0

>  <SCORE.SYSTEM.DIHEDRAL>
0

>  <SCORE.SYSTEM.SOLV>
0

>  <SCORE.SYSTEM.norm>
0

>  <SCORE.heavy>
42

>  <SCORE.norm>
-0.878002

>  <RMSD>
8.468

$$$$
1NEM.B
 OpenBabel11021811403D
libRbt.so/2013.1/901 2013/11/27
 42 45  0  0  0  0  0  0  0  0999 V2000
   -4.3397   -2.0051    0.5550 O   0  0  0  0  0  0  0  0  0  0  0  0
   -3.2916   -1.0362    0.4859 C   0  0  0  0  0  0  0  0  0  0  0  0
   -1.9067   -1.6629    0.3307 C   0  0  1  0  0  0  0  0  0  0  0  0
   -1.0009   -0.7406   -0.2679 O   0  0  0  0  0  0  0  0  0  0  0  0
   -1.2218   -2.0204    1.6402 C   0  0  1  0  0  0  0  0  0  0  0  0
   -1.8965   -3.1617    2.1746 O   0  0  0  0  0  0  0  0  0  0  0  0
    0.1842   -2.2489    1.1178 C   0  0  1  0  0  0  0  0  0  0  0  0
    0.2795   -3.4364    0.3242 O   0  0  0  0  0  0  0  0  0  0  0  0
    0.3114   -1.0071    0.2275 C   0  0  2  0  0  0  0  0  0  0  0  0
   -3.1237   -2.9177    2.8004 C   0  0  2  0  0  0  0  0  0  0  0  0
   -2.8927   -2.7092    4.3033 C   0  0  2  0  0  0  0  0  0  0  0  0
   -2.1272   -3.8529    4.8655 N   0  3  0  0  0  0  0  0  0  0  0  0
   -4.2225   -2.5033    5.0360 C   0  0  1  0  0  0  0  0  0  0  0  0
   -4.7653   -1.2350    4.6933 O   0  0  0  0  0  0  0  0  0  0  0  0
   -5.2259   -3.6047    4.6805 C   0  0  2  0  0  0  0  0  0  0  0  0
   -4.8033   -4.8507    5.2200 O   0  0  0  0  0  0  0  0  0  0  0  0
   -5.3553   -3.7111    3.1637 C   0  0  1  0  0  0  0  0  0  0  0  0
   -4.0613   -3.9639    2.5828 O   0  0  0  0  0  0  0  0  0  0  0  0
   -6.2934   -4.8193    2.7188 C   0  0  0  0  0  0  0  0  0  0  0  0
   -7.3879   -4.3069    1.8648 N   0  3  0  0  0  0  0  0  0  0  0  0
    1.8395    6.4841   -1.9760 C   0  0  0  0  0  0  0  0  0  0  0  0
    0.7068    3.9197    0.4464 C   0  0  2  0  0  0  0  0  0  0  0  0
   -0.7637    3.7797    0.0604 C   0  0  2  0  0  0  0  0  0  0  0  0
   -1.3082    2.4984    0.5696 N   0  3  0  0  0  0  0  0  0  0  0  0
   -0.9153    3.8256   -1.4542 C   0  0  1  0  0  0  0  0  0  0  0  0
   -2.2917    3.7727   -1.7967 O   0  0  0  0  0  0  0  0  0  0  0  0
   -0.2891    5.1105   -1.9917 C   0  0  2  0  0  0  0  0  0  0  0  0
   -0.3649    5.1285   -3.4114 O   0  0  0  0  0  0  0  0  0  0  0  0
    1.5050    7.5936   -1.0540 N   0  3  0  0  0  0  0  0  0  0  0  0
    1.1720    5.1871   -1.5529 C   0  0  2  0  0  0  0  0  0  0  0  0
    1.2632    5.1051   -0.1161 O   0  0  0  0  0  0  0  0  0  0  0  0
    4.2938    0.3214    1.9828 C   0  0  2  0  0  0  0  0  0  0  0  0
    5.0406   -0.3806    3.0518 N   0  3  0  0  0  0  0  0  0  0  0  0
    4.3384    1.8270    2.2184 C   0  0  0  0  0  0  0  0  0  0  0  0
    3.5723    2.5620    1.1275 C   0  0  2  0  0  0  0  0  0  0  0  0
    3.6543    3.9883    1.4086 N   0  3  0  0  0  0  0  0  0  0  0  0
    2.1193    2.0930    1.1101 C   0  0  1  0  0  0  0  0  0  0  0  0
    1.4082    2.7724    0.0569 O   0  0  0  0  0  0  0  0  0  0  0  0
    2.0391    0.5768    0.8844 C   0  0  2  0  0  0  0  0  0  0  0  0
    0.6658    0.1526    0.9777 O   0  0  0  0  0  0  0  0  0  0  0  0
    2.8541   -0.1867    1.9253 C   0  0  1  0  0  0  0  0  0  0  0  0
    2.8533   -1.5717    1.6058 O   0  0  0  0  0  0  0  0  0  0  0  0
  1  2  1  0  0  0  0
  3  2  1  1  0  0  0
  3  5  1  0  0  0  0
  3  4  1  0  0  0  0
  4  9  1  0  0  0  0
  5  7  1  0  0  0  0
  5  6  1  6  0  0  0
  7  9  1  0  0  0  0
  7  8  1  6  0  0  0
  9 40  1  1  0  0  0
 10  6  1  6  0  0  0
 10 11  1  0  0  0  0
 10 18  1  0  0  0  0
 11 13  1  0  0  0  0
 11 12  1  1  0  0  0
 13 15  1  0  0  0  0
 13 14  1  6  0  0  0
 15 17  1  0  0  0  0
 15 16  1  6  0  0  0
 17 19  1  1  0  0  0
 17 18  1  0  0  0  0
 19 20  1  0  0  0  0
 21 29  1  0  0  0  0
 22 23  1  0  0  0  0
 22 31  1  0  0  0  0
 22 38  1  6  0  0  0
 23 25  1  0  0  0  0
 23 24  1  6  0  0  0
 25 27  1  0  0  0  0
 25 26  1  1  0  0  0
 27 30  1  0  0  0  0
 27 28  1  6  0  0  0
 30 21  1  1  0  0  0
 30 31  1  0  0  0  0
 32 34  1  0  0  0  0
 32 41  1  0  0  0  0
 32 33  1  1  0  0  0
 34 35  1  0  0  0  0
 35 37  1  0  0  0  0
 35 36  1  1  0  0  0
 37 39  1  0  0  0  0
 37 38  1  6  0  0  0
 39 41  1  0  0  0  0
 39 40  1  1  0  0  0
 41 42  1  6  0  0  0
M  CHG  6  12   1  20   1  24   1  29   1  33   1  36   1
M  END
>  <CHROM.1>
-178.45990128,156.14611456,-77.71444638,-92.76494558,65.75283114,-142.18251109
-26.56431017,-156.55176153,-69.24964895,123.04972548,-61.98384268,80.59972891
-87.00503695,-123.72074974,75.46374641,56.99859577,-60.66759823,78.06671880
61.47022907,-95.30051633,152.00195745,33.31770250,-0.73827253,0.19756327
1.25270152,2.18722954,0.16228626,2.58754514

>  <Name>
1NEM.B

>  <RI>
0

>  <Rbt.Current_Directory>
/home/itssahil/PROJECTS/Mol_Feturizer/New_Systems/rnas/1nem

>  <Rbt.Executable>
rbdock ($Id: //depot/dev/client3/rdock/2013.1/src/exe/rbdock.cxx#4 $)

>  <Rbt.Library>
libRbt.so (2013.1, Build901 2013/11/27)

>  <Rbt.Parameter_File>
/export/apps/rDock/src/rDock_2013.1_src/data/scripts/dock_solv.prm

>  <Rbt.Receptor>
prm/pocket_docking_7.prm

>  <SCORE>
-25.3865

>  <SCORE.INTER>
-38.8121

>  <SCORE.INTER.CONST>
1

>  <SCORE.INTER.POLAR>
-6.07624

>  <SCORE.INTER.ROT>
9

>  <SCORE.INTER.SOLV>
33.8033

>  <SCORE.INTER.VDW>
-26.4884

>  <SCORE.INTER.norm>
-0.924098

>  <SCORE.INTRA>
13.4257

>  <SCORE.INTRA.DIHEDRAL>
23.0045

>  <SCORE.INTRA.DIHEDRAL.0>
22.4324

>  <SCORE.INTRA.POLAR>
-0.546396

>  <SCORE.INTRA.POLAR.0>
-1.83749

>  <SCORE.INTRA.REPUL>
0

>  <SCORE.INTRA.REPUL.0>
0

>  <SCORE.INTRA.SOLV>
-0.939708

>  <SCORE.INTRA.SOLV.lig_0>
-160.638

>  <SCORE.INTRA.VDW>
4.251

>  <SCORE.INTRA.VDW.0>
-7.61953

>  <SCORE.INTRA.norm>
0.319659

>  <SCORE.RESTR>
0

>  <SCORE.RESTR.CAVITY>
0

>  <SCORE.RESTR.norm>
0

>  <SCORE.SYSTEM>
0

>  <SCORE.SYSTEM.CONST>
0

>  <SCORE.SYSTEM.DIHEDRAL>
0

>  <SCORE.SYSTEM.SOLV>
0

>  <SCORE.SYSTEM.norm>
0

>  <SCORE.heavy>
42

>  <SCORE.norm>
-0.604439

>  <RMSD>
8.485

$$$$
1NEM.B
 OpenBabel11021811403D
libRbt.so/2013.1/901 2013/11/27
 42 45  0  0  0  0  0  0  0  0999 V2000
   -4.3403   -0.8734    4.2915 O   0  0  0  0  0  0  0  0  0  0  0  0
   -5.1761   -0.8007    3.1347 C   0  0  0  0  0  0  0  0  0  0  0  0
   -4.5357   -1.4210    1.8938 C   0  0  1  0  0  0  0  0  0  0  0  0
   -3.7161   -0.4696    1.2211 O   0  0  0  0  0  0  0  0  0  0  0  0
   -3.5753   -2.5644    2.1799 C   0  0  1  0  0  0  0  0  0  0  0  0
   -4.3612   -3.6893    2.5800 O   0  0  0  0  0  0  0  0  0  0  0  0
   -2.9047   -2.6562    0.8221 C   0  0  1  0  0  0  0  0  0  0  0  0
   -3.7866   -3.1681   -0.1826 O   0  0  0  0  0  0  0  0  0  0  0  0
   -2.6431   -1.1642    0.5850 C   0  0  2  0  0  0  0  0  0  0  0  0
   -4.6169   -3.8091    3.9503 C   0  0  2  0  0  0  0  0  0  0  0  0
   -3.3382   -3.4833    4.7340 C   0  0  2  0  0  0  0  0  0  0  0  0
   -2.2102   -4.3158    4.2391 N   0  3  0  0  0  0  0  0  0  0  0  0
   -3.5594   -3.6667    6.2390 C   0  0  1  0  0  0  0  0  0  0  0  0
   -4.4131   -2.6394    6.7250 O   0  0  0  0  0  0  0  0  0  0  0  0
   -4.1765   -5.0350    6.5444 C   0  0  2  0  0  0  0  0  0  0  0  0
   -3.2401   -6.0706    6.2746 O   0  0  0  0  0  0  0  0  0  0  0  0
   -5.4304   -5.2331    5.6973 C   0  0  1  0  0  0  0  0  0  0  0  0
   -5.0992   -5.0995    4.3015 O   0  0  0  0  0  0  0  0  0  0  0  0
   -6.0798   -6.5912    5.8970 C   0  0  0  0  0  0  0  0  0  0  0  0
   -5.3253   -7.6692    5.2198 N   0  3  0  0  0  0  0  0  0  0  0  0
    2.4671    4.3199   -0.0717 C   0  0  0  0  0  0  0  0  0  0  0  0
   -0.4171    1.9958   -0.1568 C   0  0  2  0  0  0  0  0  0  0  0  0
   -1.2505    2.6026   -1.2830 C   0  0  2  0  0  0  0  0  0  0  0  0
   -2.2090    1.6014   -1.8087 N   0  3  0  0  0  0  0  0  0  0  0  0
   -0.3434    3.0737   -2.4119 C   0  0  1  0  0  0  0  0  0  0  0  0
   -1.1224    3.7050   -3.4165 O   0  0  0  0  0  0  0  0  0  0  0  0
    0.6937    4.0495   -1.8606 C   0  0  2  0  0  0  0  0  0  0  0  0
    1.5876    4.4407   -2.8947 O   0  0  0  0  0  0  0  0  0  0  0  0
    1.7813    5.4274    0.6326 N   0  3  0  0  0  0  0  0  0  0  0  0
    1.4741    3.3790   -0.7316 C   0  0  2  0  0  0  0  0  0  0  0  0
    0.5688    2.9213    0.2934 O   0  0  0  0  0  0  0  0  0  0  0  0
    1.7893   -2.6130    1.3567 C   0  0  2  0  0  0  0  0  0  0  0  0
    2.3822   -3.4708    2.4083 N   0  3  0  0  0  0  0  0  0  0  0  0
    2.6954   -1.4168    1.0877 C   0  0  0  0  0  0  0  0  0  0  0  0
    2.0970   -0.5243    0.0095 C   0  0  2  0  0  0  0  0  0  0  0  0
    3.0068    0.5930   -0.2002 N   0  3  0  0  0  0  0  0  0  0  0  0
    0.7212   -0.0308    0.4512 C   0  0  1  0  0  0  0  0  0  0  0  0
    0.1498    0.7899   -0.5863 O   0  0  0  0  0  0  0  0  0  0  0  0
   -0.2144   -1.2129    0.7402 C   0  0  2  0  0  0  0  0  0  0  0  0
   -1.4655   -0.7167    1.2530 O   0  0  0  0  0  0  0  0  0  0  0  0
    0.3890   -2.1637    1.7709 C   0  0  1  0  0  0  0  0  0  0  0  0
   -0.4501   -3.3020    1.9147 O   0  0  0  0  0  0  0  0  0  0  0  0
  1  2  1  0  0  0  0
  3  2  1  1  0  0  0
  3  5  1  0  0  0  0
  3  4  1  0  0  0  0
  4  9  1  0  0  0  0
  5  7  1  0  0  0  0
  5  6  1  6  0  0  0
  7  9  1  0  0  0  0
  7  8  1  6  0  0  0
  9 40  1  1  0  0  0
 10  6  1  6  0  0  0
 10 11  1  0  0  0  0
 10 18  1  0  0  0  0
 11 13  1  0  0  0  0
 11 12  1  6  0  0  0
 13 15  1  0  0  0  0
 13 14  1  6  0  0  0
 15 17  1  0  0  0  0
 15 16  1  6  0  0  0
 17 19  1  6  0  0  0
 17 18  1  0  0  0  0
 19 20  1  0  0  0  0
 21 29  1  0  0  0  0
 22 23  1  0  0  0  0
 22 31  1  0  0  0  0
 22 38  1  6  0  0  0
 23 25  1  0  0  0  0
 23 24  1  6  0  0  0
 25 27  1  0  0  0  0
 25 26  1  6  0  0  0
 27 30  1  0  0  0  0
 27 28  1  6  0  0  0
 30 21  1  1  0  0  0
 30 31  1  0  0  0  0
 32 34  1  0  0  0  0
 32 41  1  0  0  0  0
 32 33  1  1  0  0  0
 34 35  1  0  0  0  0
 35 37  1  0  0  0  0
 35 36  1  1  0  0  0
 37 39  1  0  0  0  0
 37 38  1  6  0  0  0
 39 41  1  0  0  0  0
 39 40  1  1  0  0  0
 41 42  1  6  0  0  0
M  CHG  6  12   1  20   1  24   1  29   1  33   1  36   1
M  END
>  <CHROM.1>
-172.67945047,-86.09200973,-90.13083592,-42.13236742,-54.90399941,-176.32614981
73.52684425,-56.11110122,55.98570065,-75.21320713,84.38691090,65.66610744
-52.49519013,-167.22750836,-68.71187647,179.02698331,66.91045573,-162.41193411
48.03269021,-133.75981894,127.09147008,56.07651284,-1.62181097,-1.12458659
1.73802451,2.06544500,-0.07998674,2.51452249

>  <Name>
1NEM.B

>  <RI>
0

>  <Rbt.Current_Directory>
/home/itssahil/PROJECTS/Mol_Feturizer/New_Systems/rnas/1nem

>  <Rbt.Executable>
rbdock ($Id: //depot/dev/client3/rdock/2013.1/src/exe/rbdock.cxx#4 $)

>  <Rbt.Library>
libRbt.so (2013.1, Build901 2013/11/27)

>  <Rbt.Parameter_File>
/export/apps/rDock/src/rDock_2013.1_src/data/scripts/dock_solv.prm

>  <Rbt.Receptor>
prm/pocket_docking_7.prm

>  <SCORE>
-35.3501

>  <SCORE.INTER>
-43.412

>  <SCORE.INTER.CONST>
1

>  <SCORE.INTER.POLAR>
-6.26541

>  <SCORE.INTER.ROT>
9

>  <SCORE.INTER.SOLV>
31.7274

>  <SCORE.INTER.VDW>
-28.2324

>  <SCORE.INTER.norm>
-1.03362

>  <SCORE.INTRA>
8.06187

>  <SCORE.INTRA.DIHEDRAL>
4.26007

>  <SCORE.INTRA.DIHEDRAL.0>
22.4324

>  <SCORE.INTRA.POLAR>
0.349707

>  <SCORE.INTRA.POLAR.0>
-1.83749

>  <SCORE.INTRA.REPUL>
0

>  <SCORE.INTRA.REPUL.0>
0

>  <SCORE.INTRA.SOLV>
4.65352

>  <SCORE.INTRA.SOLV.lig_0>
-160.638

>  <SCORE.INTRA.VDW>
2.41607

>  <SCORE.INTRA.VDW.0>
-7.61953

>  <SCORE.INTRA.norm>
0.191949

>  <SCORE.RESTR>
0

>  <SCORE.RESTR.CAVITY>
0

>  <SCORE.RESTR.norm>
0

>  <SCORE.SYSTEM>
0

>  <SCORE.SYSTEM.CONST>
0

>  <SCORE.SYSTEM.DIHEDRAL>
0

>  <SCORE.SYSTEM.SOLV>
0

>  <SCORE.SYSTEM.norm>
0

>  <SCORE.heavy>
42

>  <SCORE.norm>
-0.841669

>  <RMSD>
8.503

$$$$
1NEM.B
 OpenBabel11021811403D
libRbt.so/2013.1/901 2013/11/27
 42 45  0  0  0  0  0  0  0  0999 V2000
   -2.9546   -2.4601   -0.4019 O   0  0  0  0  0  0  0  0  0  0  0  0
   -2.1868   -1.6786    0.5156 C   0  0  0  0  0  0  0  0  0  0  0  0
   -0.9390   -2.4022    1.0196 C   0  0  1  0  0  0  0  0  0  0  0  0
    0.2404   -1.7867    0.5100 O   0  0  0  0  0  0  0  0  0  0  0  0
   -0.7367   -2.3444    2.5253 C   0  0  1  0  0  0  0  0  0  0  0  0
   -1.7152   -3.2011    3.1186 O   0  0  0  0  0  0  0  0  0  0  0  0
    0.7037   -2.8164    2.5895 C   0  0  1  0  0  0  0  0  0  0  0  0
    0.8329   -4.2036    2.2607 O   0  0  0  0  0  0  0  0  0  0  0  0
    1.2875   -1.9508    1.4666 C   0  0  2  0  0  0  0  0  0  0  0  0
   -2.7928   -2.5673    3.7466 C   0  0  2  0  0  0  0  0  0  0  0  0
   -3.6226   -3.6123    4.5046 C   0  0  2  0  0  0  0  0  0  0  0  0
   -4.0033   -4.7219    3.5913 N   0  3  0  0  0  0  0  0  0  0  0  0
   -4.8512   -2.9668    5.1538 C   0  0  1  0  0  0  0  0  0  0  0  0
   -4.4417   -2.1450    6.2390 O   0  0  0  0  0  0  0  0  0  0  0  0
   -5.6348   -2.1268    4.1404 C   0  0  2  0  0  0  0  0  0  0  0  0
   -6.2451   -2.9673    3.1692 O   0  0  0  0  0  0  0  0  0  0  0  0
   -4.6944   -1.1385    3.4566 C   0  0  1  0  0  0  0  0  0  0  0  0
   -3.6116   -1.8530    2.8298 O   0  0  0  0  0  0  0  0  0  0  0  0
   -5.3789   -0.2980    2.3931 C   0  0  0  0  0  0  0  0  0  0  0  0
   -4.4758    0.7355    1.8398 N   0  3  0  0  0  0  0  0  0  0  0  0
    3.2277    3.0881   -3.2844 C   0  0  0  0  0  0  0  0  0  0  0  0
    3.1379    2.9267    0.4160 C   0  0  2  0  0  0  0  0  0  0  0  0
    1.8319    3.6606    0.7108 C   0  0  2  0  0  0  0  0  0  0  0  0
    1.3511    3.3258    2.0725 N   0  3  0  0  0  0  0  0  0  0  0  0
    0.7698    3.2719   -0.3089 C   0  0  1  0  0  0  0  0  0  0  0  0
   -0.4139    4.0181   -0.0713 O   0  0  0  0  0  0  0  0  0  0  0  0
    1.2898    3.5460   -1.7182 C   0  0  2  0  0  0  0  0  0  0  0  0
    0.3313    3.1214   -2.6787 O   0  0  0  0  0  0  0  0  0  0  0  0
    2.9572    2.0041   -4.2564 N   0  3  0  0  0  0  0  0  0  0  0  0
    2.6016    2.7935   -1.9323 C   0  0  2  0  0  0  0  0  0  0  0  0
    3.5602    3.1706   -0.9230 O   0  0  0  0  0  0  0  0  0  0  0  0
    4.7305   -0.4457    3.9882 C   0  0  2  0  0  0  0  0  0  0  0  0
    5.0021   -0.8680    5.3814 N   0  3  0  0  0  0  0  0  0  0  0  0
    4.9418    1.0576    3.8488 C   0  0  0  0  0  0  0  0  0  0  0  0
    4.6638    1.5067    2.4210 C   0  0  2  0  0  0  0  0  0  0  0  0
    4.8841    2.9445    2.3549 N   0  3  0  0  0  0  0  0  0  0  0  0
    3.2271    1.1578    2.0395 C   0  0  1  0  0  0  0  0  0  0  0  0
    2.9808    1.5604    0.6780 O   0  0  0  0  0  0  0  0  0  0  0  0
    2.9777   -0.3504    2.1788 C   0  0  2  0  0  0  0  0  0  0  0  0
    1.5901   -0.6309    1.9134 O   0  0  0  0  0  0  0  0  0  0  0  0
    3.3120   -0.8444    3.5841 C   0  0  1  0  0  0  0  0  0  0  0  0
    3.1862   -2.2595    3.6319 O   0  0  0  0  0  0  0  0  0  0  0  0
  1  2  1  0  0  0  0
  3  2  1  1  0  0  0
  3  5  1  0  0  0  0
  3  4  1  0  0  0  0
  4  9  1  0  0  0  0
  5  7  1  0  0  0  0
  5  6  1  1  0  0  0
  7  9  1  0  0  0  0
  7  8  1  6  0  0  0
  9 40  1  1  0  0  0
 10  6  1  6  0  0  0
 10 11  1  0  0  0  0
 10 18  1  0  0  0  0
 11 13  1  0  0  0  0
 11 12  1  6  0  0  0
 13 15  1  0  0  0  0
 13 14  1  1  0  0  0
 15 17  1  0  0  0  0
 15 16  1  6  0  0  0
 17 19  1  6  0  0  0
 17 18  1  0  0  0  0
 19 20  1  0  0  0  0
 21 29  1  0  0  0  0
 22 23  1  0  0  0  0
 22 31  1  0  0  0  0
 22 38  1  6  0  0  0
 23 25  1  0  0  0  0
 23 24  1  1  0  0  0
 25 27  1  0  0  0  0
 25 26  1  1  0  0  0
 27 30  1  0  0  0  0
 27 28  1  6  0  0  0
 30 21  1  6  0  0  0
 30 31  1  0  0  0  0
 32 34  1  0  0  0  0
 32 41  1  0  0  0  0
 32 33  1  1  0  0  0
 34 35  1  0  0  0  0
 35 37  1  0  0  0  0
 35 36  1  1  0  0  0
 37 39  1  0  0  0  0
 37 38  1  6  0  0  0
 39 41  1  0  0  0  0
 39 40  1  1  0  0  0
 41 42  1  6  0  0  0
M  CHG  6  12   1  20   1  24   1  29   1  33   1  36   1
M  END
>  <CHROM.1>
-62.85354280,111.32248756,-105.44069241,-171.47033412,55.83344286,-143.12854573
90.24715000,156.13109581,-78.35404840,174.59140182,-27.40615361,-100.39723406
167.16601130,-86.83509588,-171.98617035,-64.56431311,64.17724444,166.64104918
155.57267284,-60.03400551,155.33310934,-61.81170935,0.13493993,-0.21597562
1.75813390,2.46828928,0.20593874,2.29126578

>  <Name>
1NEM.B

>  <RI>
0

>  <Rbt.Current_Directory>
/home/itssahil/PROJECTS/Mol_Feturizer/New_Systems/rnas/1nem

>  <Rbt.Executable>
rbdock ($Id: //depot/dev/client3/rdock/2013.1/src/exe/rbdock.cxx#4 $)

>  <Rbt.Library>
libRbt.so (2013.1, Build901 2013/11/27)

>  <Rbt.Parameter_File>
/export/apps/rDock/src/rDock_2013.1_src/data/scripts/dock_solv.prm

>  <Rbt.Receptor>
prm/pocket_docking_4.prm

>  <SCORE>
-31.5295

>  <SCORE.INTER>
-55.7857

>  <SCORE.INTER.CONST>
1

>  <SCORE.INTER.POLAR>
-8.23043

>  <SCORE.INTER.ROT>
9

>  <SCORE.INTER.SOLV>
32.2429

>  <SCORE.INTER.VDW>
-30.1034

>  <SCORE.INTER.norm>
-1.32823

>  <SCORE.INTRA>
23.2181

>  <SCORE.INTRA.DIHEDRAL>
14.3285

>  <SCORE.INTRA.DIHEDRAL.0>
22.4324

>  <SCORE.INTRA.POLAR>
1.82699

>  <SCORE.INTRA.POLAR.0>
-1.83749

>  <SCORE.INTRA.REPUL>
0.063683

>  <SCORE.INTRA.REPUL.0>
0

>  <SCORE.INTRA.SOLV>
-1.14333

>  <SCORE.INTRA.SOLV.lig_0>
-160.638

>  <SCORE.INTRA.VDW>
10.0953

>  <SCORE.INTRA.VDW.0>
-7.61953

>  <SCORE.INTRA.norm>
0.552812

>  <SCORE.RESTR>
1.03812

>  <SCORE.RESTR.CAVITY>
1.03812

>  <SCORE.RESTR.norm>
0.0247171

>  <SCORE.SYSTEM>
0

>  <SCORE.SYSTEM.CONST>
0

>  <SCORE.SYSTEM.DIHEDRAL>
0

>  <SCORE.SYSTEM.SOLV>
0

>  <SCORE.SYSTEM.norm>
0

>  <SCORE.heavy>
42

>  <SCORE.norm>
-0.750702

>  <RMSD>
8.506

$$$$
1NEM.B
 OpenBabel11021811403D
libRbt.so/2013.1/901 2013/11/27
 42 45  0  0  0  0  0  0  0  0999 V2000
   -4.2003    1.7410    0.5851 O   0  0  0  0  0  0  0  0  0  0  0  0
   -4.6041    0.4588    0.1003 C   0  0  0  0  0  0  0  0  0  0  0  0
   -3.4901   -0.5848    0.1688 C   0  0  1  0  0  0  0  0  0  0  0  0
   -2.3606   -0.1663   -0.5919 O   0  0  0  0  0  0  0  0  0  0  0  0
   -2.9105   -0.8038    1.5572 C   0  0  1  0  0  0  0  0  0  0  0  0
   -3.8909   -1.5110    2.3201 O   0  0  0  0  0  0  0  0  0  0  0  0
   -1.6635   -1.5785    1.1741 C   0  0  1  0  0  0  0  0  0  0  0  0
   -1.9691   -2.8937    0.6986 O   0  0  0  0  0  0  0  0  0  0  0  0
   -1.1825   -0.6965    0.0159 C   0  0  2  0  0  0  0  0  0  0  0  0
   -4.3669   -2.7026    1.7625 C   0  0  2  0  0  0  0  0  0  0  0  0
   -5.5778   -2.3958    0.8709 C   0  0  2  0  0  0  0  0  0  0  0  0
   -6.5910   -1.6212    1.6349 N   0  3  0  0  0  0  0  0  0  0  0  0
   -6.1694   -3.6851    0.2920 C   0  0  1  0  0  0  0  0  0  0  0  0
   -5.2814   -4.2247   -0.6780 O   0  0  0  0  0  0  0  0  0  0  0  0
   -6.4198   -4.7212    1.3921 C   0  0  2  0  0  0  0  0  0  0  0  0
   -7.4740   -4.2918    2.2443 O   0  0  0  0  0  0  0  0  0  0  0  0
   -5.1441   -4.9257    2.2045 C   0  0  1  0  0  0  0  0  0  0  0  0
   -4.7094   -3.6654    2.7508 O   0  0  0  0  0  0  0  0  0  0  0  0
   -5.3169   -5.9009    3.3556 C   0  0  0  0  0  0  0  0  0  0  0  0
   -4.3842   -5.6133    4.4679 N   0  3  0  0  0  0  0  0  0  0  0  0
    6.3716    1.2349    1.7437 C   0  0  0  0  0  0  0  0  0  0  0  0
    3.3564   -0.8534    1.2198 C   0  0  2  0  0  0  0  0  0  0  0  0
    3.1668   -1.4507    2.6120 C   0  0  2  0  0  0  0  0  0  0  0  0
    1.7793   -1.9471    2.7729 N   0  3  0  0  0  0  0  0  0  0  0  0
    3.4534   -0.4006    3.6770 C   0  0  1  0  0  0  0  0  0  0  0  0
    3.3496   -0.9881    4.9649 O   0  0  0  0  0  0  0  0  0  0  0  0
    4.8556    0.1676    3.4702 C   0  0  2  0  0  0  0  0  0  0  0  0
    5.1049    1.1977    4.4179 O   0  0  0  0  0  0  0  0  0  0  0  0
    6.3656    2.1890    0.6112 N   0  3  0  0  0  0  0  0  0  0  0  0
    4.9734    0.7303    2.0550 C   0  0  2  0  0  0  0  0  0  0  0  0
    4.6595   -0.2917    1.0872 O   0  0  0  0  0  0  0  0  0  0  0  0
    1.0311    1.4293   -2.8396 C   0  0  2  0  0  0  0  0  0  0  0  0
    0.4602    1.4131   -4.2060 N   0  3  0  0  0  0  0  0  0  0  0  0
    2.2397    0.5028   -2.7687 C   0  0  0  0  0  0  0  0  0  0  0  0
    2.8360    0.5077   -1.3681 C   0  0  2  0  0  0  0  0  0  0  0  0
    3.9815   -0.3912   -1.3680 N   0  3  0  0  0  0  0  0  0  0  0  0
    1.7862    0.0521   -0.3573 C   0  0  1  0  0  0  0  0  0  0  0  0
    2.3497    0.0866    0.9685 O   0  0  0  0  0  0  0  0  0  0  0  0
    0.5496    0.9599   -0.4100 C   0  0  2  0  0  0  0  0  0  0  0  0
   -0.4600    0.4427    0.4777 O   0  0  0  0  0  0  0  0  0  0  0  0
   -0.0332    1.0287   -1.8193 C   0  0  1  0  0  0  0  0  0  0  0  0
   -1.0955    1.9728   -1.8478 O   0  0  0  0  0  0  0  0  0  0  0  0
  1  2  1  0  0  0  0
  3  2  1  1  0  0  0
  3  5  1  0  0  0  0
  3  4  1  0  0  0  0
  4  9  1  0  0  0  0
  5  7  1  0  0  0  0
  5  6  1  1  0  0  0
  7  9  1  0  0  0  0
  7  8  1  6  0  0  0
  9 40  1  1  0  0  0
 10  6  1  1  0  0  0
 10 11  1  0  0  0  0
 10 18  1  0  0  0  0
 11 13  1  0  0  0  0
 11 12  1  1  0  0  0
 13 15  1  0  0  0  0
 13 14  1  6  0  0  0
 15 17  1  0  0  0  0
 15 16  1  1  0  0  0
 17 19  1  1  0  0  0
 17 18  1  0  0  0  0
 19 20  1  0  0  0  0
 21 29  1  0  0  0  0
 22 23  1  0  0  0  0
 22 31  1  0  0  0  0
 22 38  1  1  0  0  0
 23 25  1  0  0  0  0
 23 24  1  6  0  0  0
 25 27  1  0  0  0  0
 25 26  1  1  0  0  0
 27 30  1  0  0  0  0
 27 28  1  1  0  0  0
 30 21  1  6  0  0  0
 30 31  1  0  0  0  0
 32 34  1  0  0  0  0
 32 41  1  0  0  0  0
 32 33  1  6  0  0  0
 34 35  1  0  0  0  0
 35 37  1  0  0  0  0
 35 36  1  6  0  0  0
 37 39  1  0  0  0  0
 37 38  1  1  0  0  0
 39 41  1  0  0  0  0
 39 40  1  1  0  0  0
 41 42  1  1  0  0  0
M  CHG  6  12   1  20   1  24   1  29   1  33   1  36   1
M  END
>  <CHROM.1>
-167.34685583,-58.87833497,54.09472970,-89.08536704,67.66104639,-94.50351999
159.11181864,-90.69019467,74.89110460,-152.13426079,-79.35023707,-159.52412530
177.83857393,-138.44980938,43.55614788,-173.47053068,-57.20974934,179.91157368
42.44474332,-68.02443638,-76.34669388,174.45318988,-0.65251605,-0.99835689
0.95450491,2.88241235,0.30330648,2.14711606

>  <Name>
1NEM.B

>  <RI>
0

>  <Rbt.Current_Directory>
/home/itssahil/PROJECTS/Mol_Feturizer/New_Systems/rnas/1nem

>  <Rbt.Executable>
rbdock ($Id: //depot/dev/client3/rdock/2013.1/src/exe/rbdock.cxx#4 $)

>  <Rbt.Library>
libRbt.so (2013.1, Build901 2013/11/27)

>  <Rbt.Parameter_File>
/export/apps/rDock/src/rDock_2013.1_src/data/scripts/dock_solv.prm

>  <Rbt.Receptor>
prm/pocket_docking_4.prm

>  <SCORE>
-36.7543

>  <SCORE.INTER>
-45.7694

>  <SCORE.INTER.CONST>
1

>  <SCORE.INTER.POLAR>
-6.96874

>  <SCORE.INTER.ROT>
9

>  <SCORE.INTER.SOLV>
31.1258

>  <SCORE.INTER.VDW>
-27.2591

>  <SCORE.INTER.norm>
-1.08975

>  <SCORE.INTRA>
9.01515

>  <SCORE.INTRA.DIHEDRAL>
6.64299

>  <SCORE.INTRA.DIHEDRAL.0>
22.4324

>  <SCORE.INTRA.POLAR>
-0.748417

>  <SCORE.INTRA.POLAR.0>
-1.83749

>  <SCORE.INTRA.REPUL>
0.0430702

>  <SCORE.INTRA.REPUL.0>
0

>  <SCORE.INTRA.SOLV>
-0.237284

>  <SCORE.INTRA.SOLV.lig_0>
-160.638

>  <SCORE.INTRA.VDW>
8.14156

>  <SCORE.INTRA.VDW.0>
-7.61953

>  <SCORE.INTRA.norm>
0.214646

>  <SCORE.RESTR>
0

>  <SCORE.RESTR.CAVITY>
0

>  <SCORE.RESTR.norm>
0

>  <SCORE.SYSTEM>
0

>  <SCORE.SYSTEM.CONST>
0

>  <SCORE.SYSTEM.DIHEDRAL>
0

>  <SCORE.SYSTEM.SOLV>
0

>  <SCORE.SYSTEM.norm>
0

>  <SCORE.heavy>
42

>  <SCORE.norm>
-0.875102

>  <RMSD>
8.531

$$$$
1NEM.B
 OpenBabel11021811403D
libRbt.so/2013.1/901 2013/11/27
 42 45  0  0  0  0  0  0  0  0999 V2000
   -0.6503   -0.1028   -1.6049 O   0  0  0  0  0  0  0  0  0  0  0  0
    0.2967    0.8352   -1.0897 C   0  0  0  0  0  0  0  0  0  0  0  0
    1.5129    0.1673   -0.4497 C   0  0  1  0  0  0  0  0  0  0  0  0
    2.4808    1.1413   -0.0703 O   0  0  0  0  0  0  0  0  0  0  0  0
    1.2245   -0.5602    0.8539 C   0  0  1  0  0  0  0  0  0  0  0  0
    0.4970   -1.7463    0.5264 O   0  0  0  0  0  0  0  0  0  0  0  0
    2.6493   -0.7525    1.3384 C   0  0  1  0  0  0  0  0  0  0  0  0
    3.3662   -1.7039    0.5448 O   0  0  0  0  0  0  0  0  0  0  0  0
    3.1818    0.6614    1.0773 C   0  0  2  0  0  0  0  0  0  0  0  0
   -0.7033   -1.9460    1.2168 C   0  0  2  0  0  0  0  0  0  0  0  0
   -0.9008   -3.4477    1.4643 C   0  0  2  0  0  0  0  0  0  0  0  0
   -0.7910   -4.1948    0.1837 N   0  3  0  0  0  0  0  0  0  0  0  0
   -2.2386   -3.7141    2.1621 C   0  0  1  0  0  0  0  0  0  0  0  0
   -2.1777   -3.2505    3.5045 O   0  0  0  0  0  0  0  0  0  0  0  0
   -3.3916   -3.0200    1.4306 C   0  0  2  0  0  0  0  0  0  0  0  0
   -3.6132   -3.6312    0.1659 O   0  0  0  0  0  0  0  0  0  0  0  0
   -3.0648   -1.5410    1.2440 C   0  0  1  0  0  0  0  0  0  0  0  0
   -1.8225   -1.4052    0.5270 O   0  0  0  0  0  0  0  0  0  0  0  0
   -4.1341   -0.7834    0.4767 C   0  0  0  0  0  0  0  0  0  0  0  0
   -5.4160   -0.7381    1.2146 N   0  3  0  0  0  0  0  0  0  0  0  0
    8.9986   -0.2877    3.2450 C   0  0  0  0  0  0  0  0  0  0  0  0
    5.4201    0.6705    3.1858 C   0  0  2  0  0  0  0  0  0  0  0  0
    4.9581    0.1664    4.5509 C   0  0  2  0  0  0  0  0  0  0  0  0
    3.6956    0.8361    4.9448 N   0  3  0  0  0  0  0  0  0  0  0  0
    6.0252    0.4438    5.6013 C   0  0  1  0  0  0  0  0  0  0  0  0
    5.6178   -0.0980    6.8483 O   0  0  0  0  0  0  0  0  0  0  0  0
    7.3477   -0.1816    5.1637 C   0  0  2  0  0  0  0  0  0  0  0  0
    8.3660    0.1316    6.1053 O   0  0  0  0  0  0  0  0  0  0  0  0
    9.3532    0.2497    1.9114 N   0  3  0  0  0  0  0  0  0  0  0  0
    7.7351    0.3570    3.7879 C   0  0  2  0  0  0  0  0  0  0  0  0
    6.6795    0.1003    2.8395 O   0  0  0  0  0  0  0  0  0  0  0  0
    3.6159    4.9489    0.6657 C   0  0  2  0  0  0  0  0  0  0  0  0
    3.1160    5.6198   -0.5563 N   0  3  0  0  0  0  0  0  0  0  0  0
    5.1251    4.7538    0.5728 C   0  0  0  0  0  0  0  0  0  0  0  0
    5.6530    4.0627    1.8221 C   0  0  2  0  0  0  0  0  0  0  0  0
    7.0930    3.9084    1.6717 N   0  3  0  0  0  0  0  0  0  0  0  0
    4.9742    2.7051    1.9883 C   0  0  1  0  0  0  0  0  0  0  0  0
    5.4583    2.0700    3.1877 O   0  0  0  0  0  0  0  0  0  0  0  0
    3.4501    2.8653    2.0752 C   0  0  2  0  0  0  0  0  0  0  0  0
    2.8357    1.5636    2.1258 O   0  0  0  0  0  0  0  0  0  0  0  0
    2.8975    3.6155    0.8658 C   0  0  1  0  0  0  0  0  0  0  0  0
    1.5072    3.8494    1.0474 O   0  0  0  0  0  0  0  0  0  0  0  0
  1  2  1  0  0  0  0
  3  2  1  1  0  0  0
  3  5  1  0  0  0  0
  3  4  1  0  0  0  0
  4  9  1  0  0  0  0
  5  7  1  0  0  0  0
  5  6  1  6  0  0  0
  7  9  1  0  0  0  0
  7  8  1  6  0  0  0
  9 40  1  1  0  0  0
 10  6  1  6  0  0  0
 10 11  1  0  0  0  0
 10 18  1  0  0  0  0
 11 13  1  0  0  0  0
 11 12  1  6  0  0  0
 13 15  1  0  0  0  0
 13 14  1  1  0  0  0
 15 17  1  0  0  0  0
 15 16  1  6  0  0  0
 17 19  1  6  0  0  0
 17 18  1  0  0  0  0
 19 20  1  0  0  0  0
 21 29  1  0  0  0  0
 22 23  1  0  0  0  0
 22 31  1  0  0  0  0
 22 38  1  1  0  0  0
 23 25  1  0  0  0  0
 23 24  1  1  0  0  0
 25 27  1  0  0  0  0
 25 26  1  1  0  0  0
 27 30  1  0  0  0  0
 27 28  1  1  0  0  0
 30 21  1  6  0  0  0
 30 31  1  0  0  0  0
 32 34  1  0  0  0  0
 32 41  1  0  0  0  0
 32 33  1  6  0  0  0
 34 35  1  0  0  0  0
 35 37  1  0  0  0  0
 35 36  1  6  0  0  0
 37 39  1  0  0  0  0
 37 38  1  1  0  0  0
 39 41  1  0  0  0  0
 39 40  1  6  0  0  0
 41 42  1  1  0  0  0
M  CHG  6  12   1  20   1  24   1  29   1  33   1  36   1
M  END
>  <CHROM.1>
-176.72265133,174.39961162,-127.62037307,-145.12327476,-175.28467612,-74.10030649
-165.05128678,63.88825511,58.13061239,64.72318721,-47.48423508,179.97738964
53.53966841,-139.16944540,39.43891483,62.40186221,177.59765154,-177.95185120
57.05128605,-152.86567538,-54.17991803,67.32896778,2.51170512,0.28609194
1.85516479,2.95906841,0.41713463,2.59235563

>  <Name>
1NEM.B

>  <RI>
0

>  <Rbt.Current_Directory>
/home/itssahil/PROJECTS/Mol_Feturizer/New_Systems/rnas/1nem

>  <Rbt.Executable>
rbdock ($Id: //depot/dev/client3/rdock/2013.1/src/exe/rbdock.cxx#4 $)

>  <Rbt.Library>
libRbt.so (2013.1, Build901 2013/11/27)

>  <Rbt.Parameter_File>
/export/apps/rDock/src/rDock_2013.1_src/data/scripts/dock_solv.prm

>  <Rbt.Receptor>
prm/pocket_docking_7.prm

>  <SCORE>
-37.0747

>  <SCORE.INTER>
-39.7153

>  <SCORE.INTER.CONST>
1

>  <SCORE.INTER.POLAR>
-5.73319

>  <SCORE.INTER.ROT>
9

>  <SCORE.INTER.SOLV>
25.8973

>  <SCORE.INTER.VDW>
-25.5987

>  <SCORE.INTER.norm>
-0.945603

>  <SCORE.INTRA>
2.64065

>  <SCORE.INTRA.DIHEDRAL>
1.64454

>  <SCORE.INTRA.DIHEDRAL.0>
22.4324

>  <SCORE.INTRA.POLAR>
0.656398

>  <SCORE.INTRA.POLAR.0>
-1.83749

>  <SCORE.INTRA.REPUL>
0

>  <SCORE.INTRA.REPUL.0>
0

>  <SCORE.INTRA.SOLV>
-4.77569

>  <SCORE.INTRA.SOLV.lig_0>
-160.638

>  <SCORE.INTRA.VDW>
1.97447

>  <SCORE.INTRA.VDW.0>
-7.61953

>  <SCORE.INTRA.norm>
0.0628726

>  <SCORE.RESTR>
0

>  <SCORE.RESTR.CAVITY>
0

>  <SCORE.RESTR.norm>
0

>  <SCORE.SYSTEM>
0

>  <SCORE.SYSTEM.CONST>
0

>  <SCORE.SYSTEM.DIHEDRAL>
0

>  <SCORE.SYSTEM.SOLV>
0

>  <SCORE.SYSTEM.norm>
0

>  <SCORE.heavy>
42

>  <SCORE.norm>
-0.88273

>  <RMSD>
8.540

$$$$
1NEM.B
 OpenBabel11021811403D
libRbt.so/2013.1/901 2013/11/27
 42 45  0  0  0  0  0  0  0  0999 V2000
    0.4096    3.7134    0.6077 O   0  0  0  0  0  0  0  0  0  0  0  0
    1.4053    4.1925   -0.2985 C   0  0  0  0  0  0  0  0  0  0  0  0
    2.1691    3.0684   -0.9970 C   0  0  1  0  0  0  0  0  0  0  0  0
    2.7315    2.1729   -0.0424 O   0  0  0  0  0  0  0  0  0  0  0  0
    1.3099    2.1588   -1.8607 C   0  0  1  0  0  0  0  0  0  0  0  0
    0.9428    2.9017   -3.0254 O   0  0  0  0  0  0  0  0  0  0  0  0
    2.2965    1.0245   -2.0650 C   0  0  1  0  0  0  0  0  0  0  0  0
    3.3869    1.4026   -2.9119 O   0  0  0  0  0  0  0  0  0  0  0  0
    2.7808    0.8676   -0.6187 C   0  0  2  0  0  0  0  0  0  0  0  0
    0.0661    3.9734   -2.8245 C   0  0  2  0  0  0  0  0  0  0  0  0
   -1.0369    3.9317   -3.8908 C   0  0  2  0  0  0  0  0  0  0  0  0
   -0.4327    3.8716   -5.2479 N   0  3  0  0  0  0  0  0  0  0  0  0
   -1.9823    5.1284   -3.7446 C   0  0  1  0  0  0  0  0  0  0  0  0
   -2.7699    4.9744   -2.5714 O   0  0  0  0  0  0  0  0  0  0  0  0
   -1.2014    6.4441   -3.6702 C   0  0  2  0  0  0  0  0  0  0  0  0
   -0.5895    6.7268   -4.9223 O   0  0  0  0  0  0  0  0  0  0  0  0
   -0.1373    6.3484   -2.5805 C   0  0  1  0  0  0  0  0  0  0  0  0
    0.7309    5.2298   -2.8468 O   0  0  0  0  0  0  0  0  0  0  0  0
    0.7237    7.5947   -2.4729 C   0  0  0  0  0  0  0  0  0  0  0  0
   -0.0867    8.8051   -2.2122 N   0  3  0  0  0  0  0  0  0  0  0  0
    2.5964    1.3449    6.2319 C   0  0  0  0  0  0  0  0  0  0  0  0
    3.3841    1.6833    2.6274 C   0  0  2  0  0  0  0  0  0  0  0  0
    4.5793    2.6320    2.6754 C   0  0  2  0  0  0  0  0  0  0  0  0
    5.3493    2.5517    1.4112 N   0  3  0  0  0  0  0  0  0  0  0  0
    5.4882    2.2723    3.8431 C   0  0  1  0  0  0  0  0  0  0  0  0
    6.5527    3.2077    3.9236 O   0  0  0  0  0  0  0  0  0  0  0  0
    4.6818    2.2812    5.1399 C   0  0  2  0  0  0  0  0  0  0  0  0
    5.5071    1.8790    6.2256 O   0  0  0  0  0  0  0  0  0  0  0  0
    1.9090    2.6484    6.3778 N   0  3  0  0  0  0  0  0  0  0  0  0
    3.4986    1.3240    5.0103 C   0  0  2  0  0  0  0  0  0  0  0  0
    2.6902    1.6860    3.8722 O   0  0  0  0  0  0  0  0  0  0  0  0
    1.9307   -3.3622    1.6857 C   0  0  2  0  0  0  0  0  0  0  0  0
    0.9042   -4.4295    1.7106 N   0  3  0  0  0  0  0  0  0  0  0  0
    2.2558   -2.9187    3.1076 C   0  0  0  0  0  0  0  0  0  0  0  0
    3.3089   -1.8195    3.0973 C   0  0  2  0  0  0  0  0  0  0  0  0
    3.5744   -1.4434    4.4787 N   0  3  0  0  0  0  0  0  0  0  0  0
    2.8007   -0.6236    2.2955 C   0  0  1  0  0  0  0  0  0  0  0  0
    3.8138    0.4006    2.2668 O   0  0  0  0  0  0  0  0  0  0  0  0
    2.4541   -1.0390    0.8589 C   0  0  2  0  0  0  0  0  0  0  0  0
    1.8813    0.0843    0.1627 O   0  0  0  0  0  0  0  0  0  0  0  0
    1.4483   -2.1872    0.8367 C   0  0  1  0  0  0  0  0  0  0  0  0
    1.2521   -2.6202   -0.5029 O   0  0  0  0  0  0  0  0  0  0  0  0
  1  2  1  0  0  0  0
  3  2  1  1  0  0  0
  3  5  1  0  0  0  0
  3  4  1  0  0  0  0
  4  9  1  0  0  0  0
  5  7  1  0  0  0  0
  5  6  1  6  0  0  0
  7  9  1  0  0  0  0
  7  8  1  6  0  0  0
  9 40  1  1  0  0  0
 10  6  1  6  0  0  0
 10 11  1  0  0  0  0
 10 18  1  0  0  0  0
 11 13  1  0  0  0  0
 11 12  1  6  0  0  0
 13 15  1  0  0  0  0
 13 14  1  1  0  0  0
 15 17  1  0  0  0  0
 15 16  1  6  0  0  0
 17 19  1  6  0  0  0
 17 18  1  0  0  0  0
 19 20  1  0  0  0  0
 21 29  1  0  0  0  0
 22 23  1  0  0  0  0
 22 31  1  0  0  0  0
 22 38  1  1  0  0  0
 23 25  1  0  0  0  0
 23 24  1  6  0  0  0
 25 27  1  0  0  0  0
 25 26  1  1  0  0  0
 27 30  1  0  0  0  0
 27 28  1  1  0  0  0
 30 21  1  1  0  0  0
 30 31  1  0  0  0  0
 32 34  1  0  0  0  0
 32 41  1  0  0  0  0
 32 33  1  1  0  0  0
 34 35  1  0  0  0  0
 35 37  1  0  0  0  0
 35 36  1  1  0  0  0
 37 39  1  0  0  0  0
 37 38  1  6  0  0  0
 39 41  1  0  0  0  0
 39 40  1  6  0  0  0
 41 42  1  6  0  0  0
M  CHG  6  12   1  20   1  24   1  29   1  33   1  36   1
M  END
>  <CHROM.1>
56.30757643,-54.56354519,-68.27093507,-134.24565436,-57.04931591,-118.77043835
-131.77555802,63.41313400,-72.86715022,57.77145126,-6.00947396,66.60838493
31.59053715,174.87331616,-78.74165134,75.04707947,58.57270600,-158.32267279
48.46183557,-129.48086709,95.10290725,-58.88125728,1.96895920,2.12769844
0.45511300,-2.48597156,1.05144447,3.07150546

>  <Name>
1NEM.B

>  <RI>
0

>  <Rbt.Current_Directory>
/home/itssahil/PROJECTS/Mol_Feturizer/New_Systems/rnas/1nem

>  <Rbt.Executable>
rbdock ($Id: //depot/dev/client3/rdock/2013.1/src/exe/rbdock.cxx#4 $)

>  <Rbt.Library>
libRbt.so (2013.1, Build901 2013/11/27)

>  <Rbt.Parameter_File>
/export/apps/rDock/src/rDock_2013.1_src/data/scripts/dock_solv.prm

>  <Rbt.Receptor>
prm/pocket_docking_6.prm

>  <SCORE>
-24.5638

>  <SCORE.INTER>
-40.3319

>  <SCORE.INTER.CONST>
1

>  <SCORE.INTER.POLAR>
-6.09444

>  <SCORE.INTER.ROT>
9

>  <SCORE.INTER.SOLV>
35.088

>  <SCORE.INTER.VDW>
-27.8691

>  <SCORE.INTER.norm>
-0.960283

>  <SCORE.INTRA>
14.8611

>  <SCORE.INTRA.DIHEDRAL>
16.3507

>  <SCORE.INTRA.DIHEDRAL.0>
22.4324

>  <SCORE.INTRA.POLAR>
0.599878

>  <SCORE.INTRA.POLAR.0>
-1.83749

>  <SCORE.INTRA.REPUL>
0

>  <SCORE.INTRA.REPUL.0>
0

>  <SCORE.INTRA.SOLV>
-0.604538

>  <SCORE.INTRA.SOLV.lig_0>
-160.638

>  <SCORE.INTRA.VDW>
4.94839

>  <SCORE.INTRA.VDW.0>
-7.61953

>  <SCORE.INTRA.norm>
0.353835

>  <SCORE.RESTR>
0.907056

>  <SCORE.RESTR.CAVITY>
0.907056

>  <SCORE.RESTR.norm>
0.0215966

>  <SCORE.SYSTEM>
0

>  <SCORE.SYSTEM.CONST>
0

>  <SCORE.SYSTEM.DIHEDRAL>
0

>  <SCORE.SYSTEM.SOLV>
0

>  <SCORE.SYSTEM.norm>
0

>  <SCORE.heavy>
42

>  <SCORE.norm>
-0.584852

>  <RMSD>
8.542

$$$$
1NEM.B
 OpenBabel11021811403D
libRbt.so/2013.1/901 2013/11/27
 42 45  0  0  0  0  0  0  0  0999 V2000
   -1.5289   -0.4174   -0.3872 O   0  0  0  0  0  0  0  0  0  0  0  0
   -0.4553    0.3641   -0.9150 C   0  0  0  0  0  0  0  0  0  0  0  0
    0.9218   -0.1656   -0.5179 C   0  0  1  0  0  0  0  0  0  0  0  0
    1.8327    0.9091   -0.3056 O   0  0  0  0  0  0  0  0  0  0  0  0
    0.9562   -0.9148    0.8046 C   0  0  1  0  0  0  0  0  0  0  0  0
    0.3127   -2.1741    0.5962 O   0  0  0  0  0  0  0  0  0  0  0  0
    2.4579   -0.9497    1.0185 C   0  0  1  0  0  0  0  0  0  0  0  0
    3.1155   -1.8210    0.0925 O   0  0  0  0  0  0  0  0  0  0  0  0
    2.7789    0.5125    0.6873 C   0  0  2  0  0  0  0  0  0  0  0  0
   -0.7699   -2.4615    1.4344 C   0  0  2  0  0  0  0  0  0  0  0  0
   -0.4751   -3.7472    2.2189 C   0  0  2  0  0  0  0  0  0  0  0  0
   -0.1079   -4.8429    1.2836 N   0  3  0  0  0  0  0  0  0  0  0  0
   -1.6664   -4.1324    3.1021 C   0  0  1  0  0  0  0  0  0  0  0  0
   -1.7815   -3.2102    4.1777 O   0  0  0  0  0  0  0  0  0  0  0  0
   -2.9694   -4.1481    2.2969 C   0  0  2  0  0  0  0  0  0  0  0  0
   -2.9599   -5.2203    1.3629 O   0  0  0  0  0  0  0  0  0  0  0  0
   -3.1356   -2.8202    1.5636 C   0  0  1  0  0  0  0  0  0  0  0  0
   -1.9921   -2.5858    0.7190 O   0  0  0  0  0  0  0  0  0  0  0  0
   -4.3793   -2.7677    0.6939 C   0  0  0  0  0  0  0  0  0  0  0  0
   -4.3510   -3.7930   -0.3728 N   0  3  0  0  0  0  0  0  0  0  0  0
    7.9922   -0.2655    0.8114 C   0  0  0  0  0  0  0  0  0  0  0  0
    5.1360    0.4648    3.0555 C   0  0  2  0  0  0  0  0  0  0  0  0
    5.6810   -0.0262    4.3944 C   0  0  2  0  0  0  0  0  0  0  0  0
    4.9144    0.5746    5.5120 N   0  3  0  0  0  0  0  0  0  0  0  0
    7.1506    0.3485    4.5320 C   0  0  1  0  0  0  0  0  0  0  0  0
    7.6652   -0.1802    5.7445 O   0  0  0  0  0  0  0  0  0  0  0  0
    7.9327   -0.2057    3.3434 C   0  0  2  0  0  0  0  0  0  0  0  0
    9.2931    0.1986    3.4285 O   0  0  0  0  0  0  0  0  0  0  0  0
    9.4350    0.0654    0.7713 N   0  3  0  0  0  0  0  0  0  0  0  0
    7.3211    0.3148    2.0441 C   0  0  2  0  0  0  0  0  0  0  0  0
    5.9237   -0.0356    1.9784 O   0  0  0  0  0  0  0  0  0  0  0  0
    3.5128    4.6937    0.2994 C   0  0  2  0  0  0  0  0  0  0  0  0
    3.1316    5.3336   -0.9806 N   0  3  0  0  0  0  0  0  0  0  0  0
    5.0195    4.4646    0.3389 C   0  0  0  0  0  0  0  0  0  0  0  0
    5.4259    3.8048    1.6492 C   0  0  2  0  0  0  0  0  0  0  0  0
    6.8695    3.6158    1.6244 N   0  3  0  0  0  0  0  0  0  0  0  0
    4.7042    2.4678    1.8010 C   0  0  1  0  0  0  0  0  0  0  0  0
    5.0725    1.8633    3.0561 O   0  0  0  0  0  0  0  0  0  0  0  0
    3.1823    2.6624    1.7553 C   0  0  2  0  0  0  0  0  0  0  0  0
    2.5355    1.3760    1.7956 O   0  0  0  0  0  0  0  0  0  0  0  0
    2.7493    3.3829    0.4809 C   0  0  1  0  0  0  0  0  0  0  0  0
    1.3546    3.6515    0.5383 O   0  0  0  0  0  0  0  0  0  0  0  0
  1  2  1  0  0  0  0
  3  2  1  1  0  0  0
  3  5  1  0  0  0  0
  3  4  1  0  0  0  0
  4  9  1  0  0  0  0
  5  7  1  0  0  0  0
  5  6  1  6  0  0  0
  7  9  1  0  0  0  0
  7  8  1  6  0  0  0
  9 40  1  1  0  0  0
 10  6  1  6  0  0  0
 10 11  1  0  0  0  0
 10 18  1  0  0  0  0
 11 13  1  0  0  0  0
 11 12  1  6  0  0  0
 13 15  1  0  0  0  0
 13 14  1  1  0  0  0
 15 17  1  0  0  0  0
 15 16  1  6  0  0  0
 17 19  1  6  0  0  0
 17 18  1  0  0  0  0
 19 20  1  0  0  0  0
 21 29  1  0  0  0  0
 22 23  1  0  0  0  0
 22 31  1  0  0  0  0
 22 38  1  1  0  0  0
 23 25  1  0  0  0  0
 23 24  1  1  0  0  0
 25 27  1  0  0  0  0
 25 26  1  1  0  0  0
 27 30  1  0  0  0  0
 27 28  1  1  0  0  0
 30 21  1  6  0  0  0
 30 31  1  0  0  0  0
 32 34  1  0  0  0  0
 32 41  1  0  0  0  0
 32 33  1  6  0  0  0
 34 35  1  0  0  0  0
 35 37  1  0  0  0  0
 35 36  1  6  0  0  0
 37 39  1  0  0  0  0
 37 38  1  1  0  0  0
 39 41  1  0  0  0  0
 39 40  1  6  0  0  0
 41 42  1  1  0  0  0
M  CHG  6  12   1  20   1  24   1  29   1  33   1  36   1
M  END
>  <CHROM.1>
69.78809146,-144.35235753,-123.56673066,-120.61414605,-64.11727089,-84.39321329
52.19144497,-71.57061812,142.36556277,-61.56908081,134.99164701,-59.83918611
151.45163796,173.87104861,-166.41381346,-177.14777242,73.28561003,-57.43166051
60.19903391,-146.51902229,-64.11885221,166.47344397,2.56912596,-0.16566309
1.60369169,2.77419943,0.35609906,2.65450608

>  <Name>
1NEM.B

>  <RI>
0

>  <Rbt.Current_Directory>
/home/itssahil/PROJECTS/Mol_Feturizer/New_Systems/rnas/1nem

>  <Rbt.Executable>
rbdock ($Id: //depot/dev/client3/rdock/2013.1/src/exe/rbdock.cxx#4 $)

>  <Rbt.Library>
libRbt.so (2013.1, Build901 2013/11/27)

>  <Rbt.Parameter_File>
/export/apps/rDock/src/rDock_2013.1_src/data/scripts/dock_solv.prm

>  <Rbt.Receptor>
prm/pocket_docking_8.prm

>  <SCORE>
-30.4744

>  <SCORE.INTER>
-39.9476

>  <SCORE.INTER.CONST>
1

>  <SCORE.INTER.POLAR>
-5.08787

>  <SCORE.INTER.ROT>
9

>  <SCORE.INTER.SOLV>
25.2741

>  <SCORE.INTER.VDW>
-27.6968

>  <SCORE.INTER.norm>
-0.951133

>  <SCORE.INTRA>
9.47313

>  <SCORE.INTRA.DIHEDRAL>
15.8336

>  <SCORE.INTRA.DIHEDRAL.0>
22.4324

>  <SCORE.INTRA.POLAR>
-0.528923

>  <SCORE.INTRA.POLAR.0>
-1.83749

>  <SCORE.INTRA.REPUL>
0

>  <SCORE.INTRA.REPUL.0>
0

>  <SCORE.INTRA.SOLV>
0.116892

>  <SCORE.INTRA.SOLV.lig_0>
-160.638

>  <SCORE.INTRA.VDW>
3.29622

>  <SCORE.INTRA.VDW.0>
-7.61953

>  <SCORE.INTRA.norm>
0.225551

>  <SCORE.RESTR>
0

>  <SCORE.RESTR.CAVITY>
0

>  <SCORE.RESTR.norm>
0

>  <SCORE.SYSTEM>
0

>  <SCORE.SYSTEM.CONST>
0

>  <SCORE.SYSTEM.DIHEDRAL>
0

>  <SCORE.SYSTEM.SOLV>
0

>  <SCORE.SYSTEM.norm>
0

>  <SCORE.heavy>
42

>  <SCORE.norm>
-0.725582

>  <RMSD>
8.552

$$$$
1NEM.B
 OpenBabel11021811403D
libRbt.so/2013.1/901 2013/11/27
 42 45  0  0  0  0  0  0  0  0999 V2000
   -5.5229   -1.8896    0.6002 O   0  0  0  0  0  0  0  0  0  0  0  0
   -5.7849   -3.2933    0.5453 C   0  0  0  0  0  0  0  0  0  0  0  0
   -4.5679   -4.1436    0.9070 C   0  0  1  0  0  0  0  0  0  0  0  0
   -3.4686   -3.8380    0.0539 O   0  0  0  0  0  0  0  0  0  0  0  0
   -4.0078   -3.8906    2.2975 C   0  0  1  0  0  0  0  0  0  0  0  0
   -4.9281   -4.4538    3.2351 O   0  0  0  0  0  0  0  0  0  0  0  0
   -2.6747   -4.5995    2.1489 C   0  0  1  0  0  0  0  0  0  0  0  0
   -2.8242   -6.0212    2.0728 O   0  0  0  0  0  0  0  0  0  0  0  0
   -2.2582   -4.0384    0.7842 C   0  0  2  0  0  0  0  0  0  0  0  0
   -4.4526   -4.6300    4.5390 C   0  0  2  0  0  0  0  0  0  0  0  0
   -5.0794   -5.8956    5.1396 C   0  0  2  0  0  0  0  0  0  0  0  0
   -6.5603   -5.8363    5.0231 N   0  3  0  0  0  0  0  0  0  0  0  0
   -4.6332   -6.0883    6.5926 C   0  0  1  0  0  0  0  0  0  0  0  0
   -3.2603   -6.4554    6.6260 O   0  0  0  0  0  0  0  0  0  0  0  0
   -4.8433   -4.8098    7.4097 C   0  0  2  0  0  0  0  0  0  0  0  0
   -6.2319   -4.5543    7.5787 O   0  0  0  0  0  0  0  0  0  0  0  0
   -4.1798   -3.6326    6.7006 C   0  0  1  0  0  0  0  0  0  0  0  0
   -4.7135   -3.5052    5.3683 O   0  0  0  0  0  0  0  0  0  0  0  0
   -4.3852   -2.3091    7.4163 C   0  0  0  0  0  0  0  0  0  0  0  0
   -3.8164   -2.3258    8.7823 N   0  3  0  0  0  0  0  0  0  0  0  0
    1.7776    2.4143   -2.4273 C   0  0  0  0  0  0  0  0  0  0  0  0
   -0.2638    0.9854    0.3146 C   0  0  2  0  0  0  0  0  0  0  0  0
   -1.6331    1.5855    0.0052 C   0  0  2  0  0  0  0  0  0  0  0  0
   -2.6992    0.8058    0.6784 N   0  3  0  0  0  0  0  0  0  0  0  0
   -1.8795    1.5838   -1.4975 C   0  0  1  0  0  0  0  0  0  0  0  0
   -3.1201    2.2140   -1.7773 O   0  0  0  0  0  0  0  0  0  0  0  0
   -0.7442    2.3227   -2.2024 C   0  0  2  0  0  0  0  0  0  0  0  0
   -0.9307    2.2658   -3.6107 O   0  0  0  0  0  0  0  0  0  0  0  0
    1.9283    3.7652   -1.8397 N   0  3  0  0  0  0  0  0  0  0  0  0
    0.5901    1.6772   -1.8331 C   0  0  2  0  0  0  0  0  0  0  0  0
    0.7593    1.6727   -0.4010 O   0  0  0  0  0  0  0  0  0  0  0  0
    1.8597   -3.5203    1.9448 C   0  0  2  0  0  0  0  0  0  0  0  0
    2.3860   -4.4053    3.0093 N   0  3  0  0  0  0  0  0  0  0  0  0
    2.2835   -2.0797    2.2080 C   0  0  0  0  0  0  0  0  0  0  0  0
    1.7473   -1.1576    1.1220 C   0  0  2  0  0  0  0  0  0  0  0  0
    2.1863    0.1962    1.4296 N   0  3  0  0  0  0  0  0  0  0  0  0
    0.2232   -1.2394    1.0799 C   0  0  1  0  0  0  0  0  0  0  0  0
   -0.2745   -0.3856    0.0312 O   0  0  0  0  0  0  0  0  0  0  0  0
   -0.2378   -2.6814    0.8260 C   0  0  2  0  0  0  0  0  0  0  0  0
   -1.6752   -2.7419    0.8962 O   0  0  0  0  0  0  0  0  0  0  0  0
    0.3391   -3.6428    1.8620 C   0  0  1  0  0  0  0  0  0  0  0  0
   -0.0103   -4.9769    1.5176 O   0  0  0  0  0  0  0  0  0  0  0  0
  1  2  1  0  0  0  0
  3  2  1  6  0  0  0
  3  5  1  0  0  0  0
  3  4  1  0  0  0  0
  4  9  1  0  0  0  0
  5  7  1  0  0  0  0
  5  6  1  1  0  0  0
  7  9  1  0  0  0  0
  7  8  1  6  0  0  0
  9 40  1  1  0  0  0
 10  6  1  6  0  0  0
 10 11  1  0  0  0  0
 10 18  1  0  0  0  0
 11 13  1  0  0  0  0
 11 12  1  1  0  0  0
 13 15  1  0  0  0  0
 13 14  1  6  0  0  0
 15 17  1  0  0  0  0
 15 16  1  6  0  0  0
 17 19  1  1  0  0  0
 17 18  1  0  0  0  0
 19 20  1  0  0  0  0
 21 29  1  0  0  0  0
 22 23  1  0  0  0  0
 22 31  1  0  0  0  0
 22 38  1  6  0  0  0
 23 25  1  0  0  0  0
 23 24  1  1  0  0  0
 25 27  1  0  0  0  0
 25 26  1  1  0  0  0
 27 30  1  0  0  0  0
 27 28  1  6  0  0  0
 30 21  1  6  0  0  0
 30 31  1  0  0  0  0
 32 34  1  0  0  0  0
 32 41  1  0  0  0  0
 32 33  1  1  0  0  0
 34 35  1  0  0  0  0
 35 37  1  0  0  0  0
 35 36  1  1  0  0  0
 37 39  1  0  0  0  0
 37 38  1  6  0  0  0
 39 41  1  0  0  0  0
 39 40  1  1  0  0  0
 41 42  1  6  0  0  0
M  CHG  6  12   1  20   1  24   1  29   1  33   1  36   1
M  END
>  <CHROM.1>
46.37629528,-57.09846497,164.50953608,-145.61115579,-85.63296738,-143.97366190
-77.31187418,52.86457350,170.69993166,60.65747586,50.99759678,66.58816472
74.80673910,-129.89873182,68.95742409,-69.32888251,173.15792031,-103.85303970
-69.92604191,-75.78195107,-175.31263201,-58.57459737,-2.05529183,-2.16489835
2.04046335,2.05460460,-0.02434073,2.31674534

>  <Name>
1NEM.B

>  <RI>
0

>  <Rbt.Current_Directory>
/home/itssahil/PROJECTS/Mol_Feturizer/New_Systems/rnas/1nem

>  <Rbt.Executable>
rbdock ($Id: //depot/dev/client3/rdock/2013.1/src/exe/rbdock.cxx#4 $)

>  <Rbt.Library>
libRbt.so (2013.1, Build901 2013/11/27)

>  <Rbt.Parameter_File>
/export/apps/rDock/src/rDock_2013.1_src/data/scripts/dock_solv.prm

>  <Rbt.Receptor>
prm/pocket_docking_8.prm

>  <SCORE>
-25.0233

>  <SCORE.INTER>
-33.5413

>  <SCORE.INTER.CONST>
1

>  <SCORE.INTER.POLAR>
-5.43629

>  <SCORE.INTER.ROT>
9

>  <SCORE.INTER.SOLV>
31.8732

>  <SCORE.INTER.VDW>
-24.4643

>  <SCORE.INTER.norm>
-0.798603

>  <SCORE.INTRA>
8.51805

>  <SCORE.INTRA.DIHEDRAL>
6.18601

>  <SCORE.INTRA.DIHEDRAL.0>
22.4324

>  <SCORE.INTRA.POLAR>
-0.218891

>  <SCORE.INTRA.POLAR.0>
-1.83749

>  <SCORE.INTRA.REPUL>
7.19165e-06

>  <SCORE.INTRA.REPUL.0>
0

>  <SCORE.INTRA.SOLV>
-1.92146

>  <SCORE.INTRA.SOLV.lig_0>
-160.638

>  <SCORE.INTRA.VDW>
7.12996

>  <SCORE.INTRA.VDW.0>
-7.61953

>  <SCORE.INTRA.norm>
0.202811

>  <SCORE.RESTR>
0

>  <SCORE.RESTR.CAVITY>
0

>  <SCORE.RESTR.norm>
0

>  <SCORE.SYSTEM>
0

>  <SCORE.SYSTEM.CONST>
0

>  <SCORE.SYSTEM.DIHEDRAL>
0

>  <SCORE.SYSTEM.SOLV>
0

>  <SCORE.SYSTEM.norm>
0

>  <SCORE.heavy>
42

>  <SCORE.norm>
-0.595792

>  <RMSD>
8.555

$$$$
1NEM.B
 OpenBabel11021811403D
libRbt.so/2013.1/901 2013/11/27
 42 45  0  0  0  0  0  0  0  0999 V2000
   -4.5164    1.9876    2.3669 O   0  0  0  0  0  0  0  0  0  0  0  0
   -4.4730    0.5601    2.3156 C   0  0  0  0  0  0  0  0  0  0  0  0
   -3.9859    0.0243    0.9701 C   0  0  1  0  0  0  0  0  0  0  0  0
   -2.9257    0.8286    0.4618 O   0  0  0  0  0  0  0  0  0  0  0  0
   -3.3705   -1.3649    1.0257 C   0  0  1  0  0  0  0  0  0  0  0  0
   -4.4368   -2.2938    1.2341 O   0  0  0  0  0  0  0  0  0  0  0  0
   -2.7112   -1.3871   -0.3406 C   0  0  1  0  0  0  0  0  0  0  0  0
   -3.6693   -1.4586   -1.4017 O   0  0  0  0  0  0  0  0  0  0  0  0
   -2.0577   -0.0004   -0.3115 C   0  0  2  0  0  0  0  0  0  0  0  0
   -4.4891   -2.9031    2.4924 C   0  0  2  0  0  0  0  0  0  0  0  0
   -3.1449   -3.5855    2.7805 C   0  0  2  0  0  0  0  0  0  0  0  0
   -2.7870   -4.4995    1.6639 N   0  3  0  0  0  0  0  0  0  0  0  0
   -3.1836   -4.3211    4.1239 C   0  0  1  0  0  0  0  0  0  0  0  0
   -3.2110   -3.3760    5.1853 O   0  0  0  0  0  0  0  0  0  0  0  0
   -4.4088   -5.2356    4.2184 C   0  0  2  0  0  0  0  0  0  0  0  0
   -4.2843   -6.3236    3.3113 O   0  0  0  0  0  0  0  0  0  0  0  0
   -5.6708   -4.4372    3.9038 C   0  0  1  0  0  0  0  0  0  0  0  0
   -5.5538   -3.8392    2.5981 O   0  0  0  0  0  0  0  0  0  0  0  0
   -6.9334   -5.2807    3.9215 C   0  0  0  0  0  0  0  0  0  0  0  0
   -7.7137   -5.1333    2.6729 N   0  3  0  0  0  0  0  0  0  0  0  0
    1.1958    4.7803    0.8991 C   0  0  0  0  0  0  0  0  0  0  0  0
   -0.2998    2.0525   -1.1132 C   0  0  2  0  0  0  0  0  0  0  0  0
   -0.8929    2.8388   -2.2798 C   0  0  2  0  0  0  0  0  0  0  0  0
   -1.1359    1.9403   -3.4335 N   0  3  0  0  0  0  0  0  0  0  0  0
    0.0575    3.9523   -2.6992 C   0  0  1  0  0  0  0  0  0  0  0  0
   -0.5383    4.7233   -3.7312 O   0  0  0  0  0  0  0  0  0  0  0  0
    0.3697    4.8382   -1.4952 C   0  0  2  0  0  0  0  0  0  0  0  0
    1.3106    5.8391   -1.8619 O   0  0  0  0  0  0  0  0  0  0  0  0
    1.5467    3.8991    2.0364 N   0  3  0  0  0  0  0  0  0  0  0  0
    0.9424    3.9815   -0.3676 C   0  0  2  0  0  0  0  0  0  0  0  0
    0.0217    2.9235   -0.0320 O   0  0  0  0  0  0  0  0  0  0  0  0
    2.1081   -2.3602    0.1176 C   0  0  2  0  0  0  0  0  0  0  0  0
    2.6660   -3.3391    1.0788 N   0  3  0  0  0  0  0  0  0  0  0  0
    3.1518   -1.2982   -0.2094 C   0  0  0  0  0  0  0  0  0  0  0  0
    2.5910   -0.2830   -1.1954 C   0  0  2  0  0  0  0  0  0  0  0  0
    3.6324    0.6980   -1.4661 N   0  3  0  0  0  0  0  0  0  0  0  0
    1.3536    0.3861   -0.6015 C   0  0  1  0  0  0  0  0  0  0  0  0
    0.8128    1.3246   -1.5518 O   0  0  0  0  0  0  0  0  0  0  0  0
    0.2850   -0.6586   -0.2512 C   0  0  2  0  0  0  0  0  0  0  0  0
   -0.8225   -0.0080    0.4007 O   0  0  0  0  0  0  0  0  0  0  0  0
    0.8373   -1.7302    0.6855 C   0  0  1  0  0  0  0  0  0  0  0  0
   -0.1441   -2.7394    0.8828 O   0  0  0  0  0  0  0  0  0  0  0  0
  1  2  1  0  0  0  0
  3  2  1  1  0  0  0
  3  5  1  0  0  0  0
  3  4  1  0  0  0  0
  4  9  1  0  0  0  0
  5  7  1  0  0  0  0
  5  6  1  6  0  0  0
  7  9  1  0  0  0  0
  7  8  1  6  0  0  0
  9 40  1  1  0  0  0
 10  6  1  6  0  0  0
 10 11  1  0  0  0  0
 10 18  1  0  0  0  0
 11 13  1  0  0  0  0
 11 12  1  6  0  0  0
 13 15  1  0  0  0  0
 13 14  1  1  0  0  0
 15 17  1  0  0  0  0
 15 16  1  6  0  0  0
 17 19  1  6  0  0  0
 17 18  1  0  0  0  0
 19 20  1  0  0  0  0
 21 29  1  0  0  0  0
 22 23  1  0  0  0  0
 22 31  1  0  0  0  0
 22 38  1  6  0  0  0
 23 25  1  0  0  0  0
 23 24  1  6  0  0  0
 25 27  1  0  0  0  0
 25 26  1  6  0  0  0
 27 30  1  0  0  0  0
 27 28  1  6  0  0  0
 30 21  1  1  0  0  0
 30 31  1  0  0  0  0
 32 34  1  0  0  0  0
 32 41  1  0  0  0  0
 32 33  1  1  0  0  0
 34 35  1  0  0  0  0
 35 37  1  0  0  0  0
 35 36  1  1  0  0  0
 37 39  1  0  0  0  0
 37 38  1  6  0  0  0
 39 41  1  0  0  0  0
 39 40  1  1  0  0  0
 41 42  1  6  0  0  0
M  CHG  6  12   1  20   1  24   1  29   1  33   1  36   1
M  END
>  <CHROM.1>
66.60750992,39.19936294,-109.39045089,-55.24270312,171.49931549,-173.21535254
49.81388886,-178.87528586,70.64950717,-127.15742042,159.35122303,171.08148471
-77.33065121,-171.31443065,153.76017917,-62.18857992,-67.70298366,-23.53516590
-40.88186653,-177.53606017,113.61501568,-66.13054034,-1.54419452,-0.48865688
0.63431196,2.17751839,-0.20985028,2.74141543

>  <Name>
1NEM.B

>  <RI>
0

>  <Rbt.Current_Directory>
/home/itssahil/PROJECTS/Mol_Feturizer/New_Systems/rnas/1nem

>  <Rbt.Executable>
rbdock ($Id: //depot/dev/client3/rdock/2013.1/src/exe/rbdock.cxx#4 $)

>  <Rbt.Library>
libRbt.so (2013.1, Build901 2013/11/27)

>  <Rbt.Parameter_File>
/export/apps/rDock/src/rDock_2013.1_src/data/scripts/dock_solv.prm

>  <Rbt.Receptor>
prm/pocket_docking_6.prm

>  <SCORE>
-48.034

>  <SCORE.INTER>
-58.3783

>  <SCORE.INTER.CONST>
1

>  <SCORE.INTER.POLAR>
-9.69606

>  <SCORE.INTER.ROT>
9

>  <SCORE.INTER.SOLV>
33.6273

>  <SCORE.INTER.VDW>
-27.4078

>  <SCORE.INTER.norm>
-1.38996

>  <SCORE.INTRA>
10.3443

>  <SCORE.INTRA.DIHEDRAL>
7.17846

>  <SCORE.INTRA.DIHEDRAL.0>
22.4324

>  <SCORE.INTRA.POLAR>
1.23598

>  <SCORE.INTRA.POLAR.0>
-1.83749

>  <SCORE.INTRA.REPUL>
0.0032013

>  <SCORE.INTRA.REPUL.0>
0

>  <SCORE.INTRA.SOLV>
-5.1842

>  <SCORE.INTRA.SOLV.lig_0>
-160.638

>  <SCORE.INTRA.VDW>
5.1288

>  <SCORE.INTRA.VDW.0>
-7.61953

>  <SCORE.INTRA.norm>
0.246292

>  <SCORE.RESTR>
0

>  <SCORE.RESTR.CAVITY>
0

>  <SCORE.RESTR.norm>
0

>  <SCORE.SYSTEM>
0

>  <SCORE.SYSTEM.CONST>
0

>  <SCORE.SYSTEM.DIHEDRAL>
0

>  <SCORE.SYSTEM.SOLV>
0

>  <SCORE.SYSTEM.norm>
0

>  <SCORE.heavy>
42

>  <SCORE.norm>
-1.14367

>  <RMSD>
8.557

$$$$
1NEM.B
 OpenBabel11021811403D
libRbt.so/2013.1/901 2013/11/27
 42 45  0  0  0  0  0  0  0  0999 V2000
   -1.8674   -4.5641    4.3932 O   0  0  0  0  0  0  0  0  0  0  0  0
   -1.6796   -3.1890    4.0527 C   0  0  0  0  0  0  0  0  0  0  0  0
   -2.9919   -2.4125    3.9539 C   0  0  1  0  0  0  0  0  0  0  0  0
   -2.7873   -1.1576    3.3113 O   0  0  0  0  0  0  0  0  0  0  0  0
   -4.0566   -3.0730    3.0926 C   0  0  1  0  0  0  0  0  0  0  0  0
   -4.5492   -4.2021    3.8177 O   0  0  0  0  0  0  0  0  0  0  0  0
   -5.0047   -1.8978    2.9449 C   0  0  1  0  0  0  0  0  0  0  0  0
   -5.6742   -1.5861    4.1712 O   0  0  0  0  0  0  0  0  0  0  0  0
   -3.9806   -0.8070    2.6101 C   0  0  2  0  0  0  0  0  0  0  0  0
   -5.5452   -4.9554    3.1871 C   0  0  2  0  0  0  0  0  0  0  0  0
   -6.8428   -4.1375    3.1367 C   0  0  2  0  0  0  0  0  0  0  0  0
   -7.1973   -3.6585    4.4988 N   0  3  0  0  0  0  0  0  0  0  0  0
   -7.9781   -4.9538    2.5105 C   0  0  1  0  0  0  0  0  0  0  0  0
   -7.7375   -5.1173    1.1191 O   0  0  0  0  0  0  0  0  0  0  0  0
   -8.1029   -6.3280    3.1754 C   0  0  2  0  0  0  0  0  0  0  0  0
   -8.5672   -6.1895    4.5123 O   0  0  0  0  0  0  0  0  0  0  0  0
   -6.7470   -7.0283    3.1650 C   0  0  1  0  0  0  0  0  0  0  0  0
   -5.7699   -6.2037    3.8292 O   0  0  0  0  0  0  0  0  0  0  0  0
   -6.7660   -8.3808    3.8554 C   0  0  0  0  0  0  0  0  0  0  0  0
   -7.2856   -9.4460    2.9693 N   0  3  0  0  0  0  0  0  0  0  0  0
    3.2734   -0.2126    1.8311 C   0  0  0  0  0  0  0  0  0  0  0  0
    0.2917   -1.7457    0.2544 C   0  0  2  0  0  0  0  0  0  0  0  0
    0.3818   -3.1753    0.7829 C   0  0  2  0  0  0  0  0  0  0  0  0
   -0.9338   -3.8487    0.6682 N   0  3  0  0  0  0  0  0  0  0  0  0
    0.8197   -3.1690    2.2414 C   0  0  1  0  0  0  0  0  0  0  0  0
    0.9748   -4.5040    2.6977 O   0  0  0  0  0  0  0  0  0  0  0  0
    2.1388   -2.4113    2.3756 C   0  0  2  0  0  0  0  0  0  0  0  0
    2.5193   -2.3411    3.7437 O   0  0  0  0  0  0  0  0  0  0  0  0
    4.1043   -0.5602    3.0066 N   0  3  0  0  0  0  0  0  0  0  0  0
    1.9751   -1.0005    1.8136 C   0  0  2  0  0  0  0  0  0  0  0  0
    1.5271   -1.0611    0.4441 O   0  0  0  0  0  0  0  0  0  0  0  0
   -2.8030    2.2952   -0.7234 C   0  0  2  0  0  0  0  0  0  0  0  0
   -3.6397    3.1300   -1.6158 N   0  3  0  0  0  0  0  0  0  0  0  0
   -1.6324    1.7091   -1.5045 C   0  0  0  0  0  0  0  0  0  0  0  0
   -0.7642    0.8462   -0.5996 C   0  0  2  0  0  0  0  0  0  0  0  0
    0.3313    0.3203   -1.4019 N   0  3  0  0  0  0  0  0  0  0  0  0
   -1.5994   -0.2873   -0.0088 C   0  0  1  0  0  0  0  0  0  0  0  0
   -0.7777   -1.0824    0.8681 O   0  0  0  0  0  0  0  0  0  0  0  0
   -2.7944    0.2696    0.7773 C   0  0  2  0  0  0  0  0  0  0  0  0
   -3.6171   -0.8220    1.2314 O   0  0  0  0  0  0  0  0  0  0  0  0
   -3.6490    1.1941   -0.0861 C   0  0  1  0  0  0  0  0  0  0  0  0
   -4.6675    1.7819    0.7125 O   0  0  0  0  0  0  0  0  0  0  0  0
  1  2  1  0  0  0  0
  3  2  1  6  0  0  0
  3  5  1  0  0  0  0
  3  4  1  0  0  0  0
  4  9  1  0  0  0  0
  5  7  1  0  0  0  0
  5  6  1  1  0  0  0
  7  9  1  0  0  0  0
  7  8  1  1  0  0  0
  9 40  1  6  0  0  0
 10  6  1  1  0  0  0
 10 11  1  0  0  0  0
 10 18  1  0  0  0  0
 11 13  1  0  0  0  0
 11 12  1  1  0  0  0
 13 15  1  0  0  0  0
 13 14  1  6  0  0  0
 15 17  1  0  0  0  0
 15 16  1  1  0  0  0
 17 19  1  1  0  0  0
 17 18  1  0  0  0  0
 19 20  1  0  0  0  0
 21 29  1  0  0  0  0
 22 23  1  0  0  0  0
 22 31  1  0  0  0  0
 22 38  1  1  0  0  0
 23 25  1  0  0  0  0
 23 24  1  1  0  0  0
 25 27  1  0  0  0  0
 25 26  1  6  0  0  0
 27 30  1  0  0  0  0
 27 28  1  1  0  0  0
 30 21  1  6  0  0  0
 30 31  1  0  0  0  0
 32 34  1  0  0  0  0
 32 41  1  0  0  0  0
 32 33  1  6  0  0  0
 34 35  1  0  0  0  0
 35 37  1  0  0  0  0
 35 36  1  6  0  0  0
 37 39  1  0  0  0  0
 37 38  1  1  0  0  0
 39 41  1  0  0  0  0
 39 40  1  6  0  0  0
 41 42  1  1  0  0  0
M  CHG  6  12   1  20   1  24   1  29   1  33   1  36   1
M  END
>  <CHROM.1>
49.71747884,-166.10354000,-179.81161101,-69.82815340,179.20876535,-73.14782104
-145.02151115,-66.73413349,-69.65047280,81.57829270,58.14280965,-34.31144176
93.05442035,-136.44569948,116.81661984,65.49928726,79.65302332,-95.13214373
163.57958266,-63.55906847,130.62287213,75.57431614,-2.85459919,-2.50257083
2.06537775,-2.44700635,-0.05429809,-0.50167384

>  <Name>
1NEM.B

>  <RI>
0

>  <Rbt.Current_Directory>
/home/itssahil/PROJECTS/Mol_Feturizer/New_Systems/rnas/1nem

>  <Rbt.Executable>
rbdock ($Id: //depot/dev/client3/rdock/2013.1/src/exe/rbdock.cxx#4 $)

>  <Rbt.Library>
libRbt.so (2013.1, Build901 2013/11/27)

>  <Rbt.Parameter_File>
/export/apps/rDock/src/rDock_2013.1_src/data/scripts/dock_solv.prm

>  <Rbt.Receptor>
prm/blind_docking_60.prm

>  <SCORE>
-9.17052

>  <SCORE.INTER>
-30.0443

>  <SCORE.INTER.CONST>
1

>  <SCORE.INTER.POLAR>
-5.97379

>  <SCORE.INTER.ROT>
9

>  <SCORE.INTER.SOLV>
42.2778

>  <SCORE.INTER.VDW>
-23.8095

>  <SCORE.INTER.norm>
-0.715341

>  <SCORE.INTRA>
13.1835

>  <SCORE.INTRA.DIHEDRAL>
11.6483

>  <SCORE.INTRA.DIHEDRAL.0>
22.4324

>  <SCORE.INTRA.POLAR>
-1.33773

>  <SCORE.INTRA.POLAR.0>
-1.83749

>  <SCORE.INTRA.REPUL>
0.0412552

>  <SCORE.INTRA.REPUL.0>
0

>  <SCORE.INTRA.SOLV>
4.69112

>  <SCORE.INTRA.SOLV.lig_0>
-160.638

>  <SCORE.INTRA.VDW>
9.35579

>  <SCORE.INTRA.VDW.0>
-7.61953

>  <SCORE.INTRA.norm>
0.313893

>  <SCORE.RESTR>
7.6903

>  <SCORE.RESTR.CAVITY>
7.6903

>  <SCORE.RESTR.norm>
0.183102

>  <SCORE.SYSTEM>
0

>  <SCORE.SYSTEM.CONST>
0

>  <SCORE.SYSTEM.DIHEDRAL>
0

>  <SCORE.SYSTEM.SOLV>
0

>  <SCORE.SYSTEM.norm>
0

>  <SCORE.heavy>
42

>  <SCORE.norm>
-0.218346

>  <RMSD>
8.582

$$$$
1NEM.B
 OpenBabel11021811403D
libRbt.so/2013.1/901 2013/11/27
 42 45  0  0  0  0  0  0  0  0999 V2000
   -3.0855   -1.9899   -0.2431 O   0  0  0  0  0  0  0  0  0  0  0  0
   -2.8924   -2.7745    0.9356 C   0  0  0  0  0  0  0  0  0  0  0  0
   -1.4658   -3.3038    1.0749 C   0  0  1  0  0  0  0  0  0  0  0  0
   -0.5351   -2.4063    0.4769 O   0  0  0  0  0  0  0  0  0  0  0  0
   -0.9677   -3.4158    2.5070 C   0  0  1  0  0  0  0  0  0  0  0  0
   -1.6479   -4.5200    3.1082 O   0  0  0  0  0  0  0  0  0  0  0  0
    0.5121   -3.6027    2.2294 C   0  0  1  0  0  0  0  0  0  0  0  0
    0.7958   -4.8794    1.6475 O   0  0  0  0  0  0  0  0  0  0  0  0
    0.7002   -2.4937    1.1876 C   0  0  2  0  0  0  0  0  0  0  0  0
   -3.0140   -4.3453    3.3539 C   0  0  2  0  0  0  0  0  0  0  0  0
   -3.1962   -3.5078    4.6270 C   0  0  2  0  0  0  0  0  0  0  0  0
   -2.4374   -4.1166    5.7512 N   0  3  0  0  0  0  0  0  0  0  0  0
   -4.6815   -3.3486    4.9672 C   0  0  1  0  0  0  0  0  0  0  0  0
   -5.2995   -2.4893    4.0182 O   0  0  0  0  0  0  0  0  0  0  0  0
   -5.3954   -4.7038    4.9745 C   0  0  2  0  0  0  0  0  0  0  0  0
   -4.9447   -5.4935    6.0679 O   0  0  0  0  0  0  0  0  0  0  0  0
   -5.1273   -5.4323    3.6607 C   0  0  1  0  0  0  0  0  0  0  0  0
   -3.7070   -5.5812    3.4693 O   0  0  0  0  0  0  0  0  0  0  0  0
   -5.7553   -6.8137    3.6026 C   0  0  0  0  0  0  0  0  0  0  0  0
   -5.0364   -7.7838    4.4582 N   0  3  0  0  0  0  0  0  0  0  0  0
    3.5233    4.0692   -2.0648 C   0  0  0  0  0  0  0  0  0  0  0  0
    1.2511    2.5474    0.4348 C   0  0  2  0  0  0  0  0  0  0  0  0
   -0.0818    2.6016   -0.3079 C   0  0  2  0  0  0  0  0  0  0  0  0
   -1.0422    1.6442    0.2910 N   0  3  0  0  0  0  0  0  0  0  0  0
    0.1221    2.2586   -1.7775 C   0  0  1  0  0  0  0  0  0  0  0  0
   -1.1090    2.3880   -2.4718 O   0  0  0  0  0  0  0  0  0  0  0  0
    1.1665    3.1952   -2.3807 C   0  0  2  0  0  0  0  0  0  0  0  0
    1.4133    2.8371   -3.7343 O   0  0  0  0  0  0  0  0  0  0  0  0
    4.7427    4.0074   -1.2268 N   0  3  0  0  0  0  0  0  0  0  0  0
    2.4622    3.0978   -1.5777 C   0  0  2  0  0  0  0  0  0  0  0  0
    2.2093    3.3974   -0.1899 O   0  0  0  0  0  0  0  0  0  0  0  0
    4.2189   -0.5957    3.4052 C   0  0  2  0  0  0  0  0  0  0  0  0
    4.7616   -1.0211    4.7158 N   0  3  0  0  0  0  0  0  0  0  0  0
    4.1681    0.9262    3.3314 C   0  0  0  0  0  0  0  0  0  0  0  0
    3.6097    1.3782    1.9893 C   0  0  2  0  0  0  0  0  0  0  0  0
    3.5891    2.8341    1.9825 N   0  3  0  0  0  0  0  0  0  0  0  0
    2.2045    0.8128    1.7967 C   0  0  1  0  0  0  0  0  0  0  0  0
    1.6945    1.2217    0.5126 O   0  0  0  0  0  0  0  0  0  0  0  0
    2.2189   -0.7201    1.8755 C   0  0  2  0  0  0  0  0  0  0  0  0
    0.8685   -1.2146    1.7949 O   0  0  0  0  0  0  0  0  0  0  0  0
    2.8359   -1.2063    3.1845 C   0  0  1  0  0  0  0  0  0  0  0  0
    2.9424   -2.6236    3.1611 O   0  0  0  0  0  0  0  0  0  0  0  0
  1  2  1  0  0  0  0
  3  2  1  1  0  0  0
  3  5  1  0  0  0  0
  3  4  1  0  0  0  0
  4  9  1  0  0  0  0
  5  7  1  0  0  0  0
  5  6  1  6  0  0  0
  7  9  1  0  0  0  0
  7  8  1  6  0  0  0
  9 40  1  1  0  0  0
 10  6  1  1  0  0  0
 10 11  1  0  0  0  0
 10 18  1  0  0  0  0
 11 13  1  0  0  0  0
 11 12  1  1  0  0  0
 13 15  1  0  0  0  0
 13 14  1  6  0  0  0
 15 17  1  0  0  0  0
 15 16  1  1  0  0  0
 17 19  1  1  0  0  0
 17 18  1  0  0  0  0
 19 20  1  0  0  0  0
 21 29  1  0  0  0  0
 22 23  1  0  0  0  0
 22 31  1  0  0  0  0
 22 38  1  6  0  0  0
 23 25  1  0  0  0  0
 23 24  1  1  0  0  0
 25 27  1  0  0  0  0
 25 26  1  6  0  0  0
 27 30  1  0  0  0  0
 27 28  1  6  0  0  0
 30 21  1  6  0  0  0
 30 31  1  0  0  0  0
 32 34  1  0  0  0  0
 32 41  1  0  0  0  0
 32 33  1  1  0  0  0
 34 35  1  0  0  0  0
 35 37  1  0  0  0  0
 35 36  1  1  0  0  0
 37 39  1  0  0  0  0
 37 38  1  6  0  0  0
 39 41  1  0  0  0  0
 39 40  1  1  0  0  0
 41 42  1  6  0  0  0
M  CHG  6  12   1  20   1  24   1  29   1  33   1  36   1
M  END
>  <CHROM.1>
34.72916071,30.42371390,-69.85049431,-78.97516987,-59.29297643,-144.29234073
76.60454129,59.23469333,63.32569996,-73.17207686,-52.63050230,176.96160050
-67.64763999,-135.63357622,69.67827213,-71.93760410,64.35822145,141.18681451
51.18590657,-76.72093628,149.12915700,-56.69744951,-0.23298376,-1.23646659
1.77944990,2.25667633,0.34772717,2.33667816

>  <Name>
1NEM.B

>  <RI>
0

>  <Rbt.Current_Directory>
/home/itssahil/PROJECTS/Mol_Feturizer/New_Systems/rnas/1nem

>  <Rbt.Executable>
rbdock ($Id: //depot/dev/client3/rdock/2013.1/src/exe/rbdock.cxx#4 $)

>  <Rbt.Library>
libRbt.so (2013.1, Build901 2013/11/27)

>  <Rbt.Parameter_File>
/export/apps/rDock/src/rDock_2013.1_src/data/scripts/dock_solv.prm

>  <Rbt.Receptor>
prm/pocket_docking_5.prm

>  <SCORE>
-36.1154

>  <SCORE.INTER>
-45.8463

>  <SCORE.INTER.CONST>
1

>  <SCORE.INTER.POLAR>
-7.29793

>  <SCORE.INTER.ROT>
9

>  <SCORE.INTER.SOLV>
35.679

>  <SCORE.INTER.VDW>
-27.7307

>  <SCORE.INTER.norm>
-1.09158

>  <SCORE.INTRA>
9.72395

>  <SCORE.INTRA.DIHEDRAL>
6.87771

>  <SCORE.INTRA.DIHEDRAL.0>
22.4324

>  <SCORE.INTRA.POLAR>
0.107751

>  <SCORE.INTRA.POLAR.0>
-1.83749

>  <SCORE.INTRA.REPUL>
0

>  <SCORE.INTRA.REPUL.0>
0

>  <SCORE.INTRA.SOLV>
1.42159

>  <SCORE.INTRA.SOLV.lig_0>
-160.638

>  <SCORE.INTRA.VDW>
5.20795

>  <SCORE.INTRA.VDW.0>
-7.61953

>  <SCORE.INTRA.norm>
0.231523

>  <SCORE.RESTR>
0.00688971

>  <SCORE.RESTR.CAVITY>
0.00688971

>  <SCORE.RESTR.norm>
0.000164041

>  <SCORE.SYSTEM>
0

>  <SCORE.SYSTEM.CONST>
0

>  <SCORE.SYSTEM.DIHEDRAL>
0

>  <SCORE.SYSTEM.SOLV>
0

>  <SCORE.SYSTEM.norm>
0

>  <SCORE.heavy>
42

>  <SCORE.norm>
-0.859891

>  <RMSD>
8.603

$$$$
1NEM.B
 OpenBabel11021811403D
libRbt.so/2013.1/901 2013/11/27
 42 45  0  0  0  0  0  0  0  0999 V2000
   -1.5285   -4.2203    0.9658 O   0  0  0  0  0  0  0  0  0  0  0  0
   -0.4807   -3.2830    1.2226 C   0  0  0  0  0  0  0  0  0  0  0  0
   -0.8882   -1.8378    0.9398 C   0  0  1  0  0  0  0  0  0  0  0  0
    0.2048   -0.9528    1.1671 O   0  0  0  0  0  0  0  0  0  0  0  0
   -1.2666   -1.5565   -0.5056 C   0  0  1  0  0  0  0  0  0  0  0  0
   -2.5367   -2.1693   -0.7391 O   0  0  0  0  0  0  0  0  0  0  0  0
   -1.2441   -0.0400   -0.4659 C   0  0  1  0  0  0  0  0  0  0  0  0
   -2.3266    0.4965    0.3019 O   0  0  0  0  0  0  0  0  0  0  0  0
    0.0812    0.1584    0.2792 C   0  0  2  0  0  0  0  0  0  0  0  0
   -3.4712   -2.0698    0.2974 C   0  0  2  0  0  0  0  0  0  0  0  0
   -4.0159   -3.4671    0.6234 C   0  0  2  0  0  0  0  0  0  0  0  0
   -4.5280   -4.1163   -0.6122 N   0  3  0  0  0  0  0  0  0  0  0  0
   -5.0922   -3.3927    1.7113 C   0  0  1  0  0  0  0  0  0  0  0  0
   -4.4901   -3.0676    2.9573 O   0  0  0  0  0  0  0  0  0  0  0  0
   -6.1559   -2.3459    1.3661 C   0  0  2  0  0  0  0  0  0  0  0  0
   -6.9232   -2.7720    0.2472 O   0  0  0  0  0  0  0  0  0  0  0  0
   -5.4822   -1.0118    1.0578 C   0  0  1  0  0  0  0  0  0  0  0  0
   -4.5366   -1.1823   -0.0159 O   0  0  0  0  0  0  0  0  0  0  0  0
   -6.4623    0.0744    0.6511 C   0  0  0  0  0  0  0  0  0  0  0  0
   -6.6947    0.0897   -0.8103 N   0  3  0  0  0  0  0  0  0  0  0  0
   -1.1837    5.5609   -0.7295 C   0  0  0  0  0  0  0  0  0  0  0  0
    0.7847    2.5347   -1.5628 C   0  0  2  0  0  0  0  0  0  0  0  0
    0.8940    2.6636   -3.0802 C   0  0  2  0  0  0  0  0  0  0  0  0
    2.0133    1.8339   -3.5864 N   0  3  0  0  0  0  0  0  0  0  0  0
    1.1286    4.1175   -3.4678 C   0  0  1  0  0  0  0  0  0  0  0  0
    1.1508    4.2356   -4.8820 O   0  0  0  0  0  0  0  0  0  0  0  0
    0.0169    4.9874   -2.8853 C   0  0  2  0  0  0  0  0  0  0  0  0
    0.2659    6.3550   -3.1842 O   0  0  0  0  0  0  0  0  0  0  0  0
   -1.5055    5.0325    0.6160 N   0  3  0  0  0  0  0  0  0  0  0  0
   -0.0411    4.7934   -1.3713 C   0  0  2  0  0  0  0  0  0  0  0  0
   -0.2296    3.3986   -1.0569 O   0  0  0  0  0  0  0  0  0  0  0  0
    4.0731    0.3405    1.8323 C   0  0  2  0  0  0  0  0  0  0  0  0
    4.3738   -0.4090    3.0738 N   0  3  0  0  0  0  0  0  0  0  0  0
    3.8885    1.8203    2.1487 C   0  0  0  0  0  0  0  0  0  0  0  0
    3.5764    2.6034    0.8811 C   0  0  2  0  0  0  0  0  0  0  0  0
    3.4139    4.0025    1.2500 N   0  3  0  0  0  0  0  0  0  0  0  0
    2.3038    2.0587    0.2367 C   0  0  1  0  0  0  0  0  0  0  0  0
    2.0311    2.7862   -0.9768 O   0  0  0  0  0  0  0  0  0  0  0  0
    2.4531    0.5655   -0.0861 C   0  0  2  0  0  0  0  0  0  0  0  0
    1.2038    0.0601   -0.5945 O   0  0  0  0  0  0  0  0  0  0  0  0
    2.8324   -0.2390    1.1547 C   0  0  1  0  0  0  0  0  0  0  0  0
    3.0810   -1.5893    0.7869 O   0  0  0  0  0  0  0  0  0  0  0  0
  1  2  1  0  0  0  0
  3  2  1  6  0  0  0
  3  5  1  0  0  0  0
  3  4  1  0  0  0  0
  4  9  1  0  0  0  0
  5  7  1  0  0  0  0
  5  6  1  1  0  0  0
  7  9  1  0  0  0  0
  7  8  1  1  0  0  0
  9 40  1  6  0  0  0
 10  6  1  6  0  0  0
 10 11  1  0  0  0  0
 10 18  1  0  0  0  0
 11 13  1  0  0  0  0
 11 12  1  6  0  0  0
 13 15  1  0  0  0  0
 13 14  1  1  0  0  0
 15 17  1  0  0  0  0
 15 16  1  6  0  0  0
 17 19  1  6  0  0  0
 17 18  1  0  0  0  0
 19 20  1  0  0  0  0
 21 29  1  0  0  0  0
 22 23  1  0  0  0  0
 22 31  1  0  0  0  0
 22 38  1  1  0  0  0
 23 25  1  0  0  0  0
 23 24  1  1  0  0  0
 25 27  1  0  0  0  0
 25 26  1  6  0  0  0
 27 30  1  0  0  0  0
 27 28  1  1  0  0  0
 30 21  1  6  0  0  0
 30 31  1  0  0  0  0
 32 34  1  0  0  0  0
 32 41  1  0  0  0  0
 32 33  1  1  0  0  0
 34 35  1  0  0  0  0
 35 37  1  0  0  0  0
 35 36  1  1  0  0  0
 37 39  1  0  0  0  0
 37 38  1  6  0  0  0
 39 41  1  0  0  0  0
 39 40  1  1  0  0  0
 41 42  1  6  0  0  0
M  CHG  6  12   1  20   1  24   1  29   1  33   1  36   1
M  END
>  <CHROM.1>
134.91290469,-177.97047021,39.98288134,-128.33297964,-178.17431765,-80.94708455
-80.86195330,-166.72347323,167.25951640,-89.45573638,-35.05753100,161.22175737
-31.35068470,-148.03908127,-178.99821188,-66.38464070,-58.17380352,-53.23255388
66.86482868,-170.46255564,-60.32295430,176.55435753,-0.77043650,0.48989821
-0.12606373,-2.42669688,-0.19548095,-0.51347315

>  <Name>
1NEM.B

>  <RI>
0

>  <Rbt.Current_Directory>
/home/itssahil/PROJECTS/Mol_Feturizer/New_Systems/rnas/1nem

>  <Rbt.Executable>
rbdock ($Id: //depot/dev/client3/rdock/2013.1/src/exe/rbdock.cxx#4 $)

>  <Rbt.Library>
libRbt.so (2013.1, Build901 2013/11/27)

>  <Rbt.Parameter_File>
/export/apps/rDock/src/rDock_2013.1_src/data/scripts/dock_solv.prm

>  <Rbt.Receptor>
prm/pocket_docking_4.prm

>  <SCORE>
370.77

>  <SCORE.INTER>
356.657

>  <SCORE.INTER.CONST>
1

>  <SCORE.INTER.POLAR>
-2.97883

>  <SCORE.INTER.ROT>
9

>  <SCORE.INTER.SOLV>
45.4742

>  <SCORE.INTER.VDW>
222.943

>  <SCORE.INTER.norm>
8.49183

>  <SCORE.INTRA>
10.6699

>  <SCORE.INTRA.DIHEDRAL>
9.28856

>  <SCORE.INTRA.DIHEDRAL.0>
22.4324

>  <SCORE.INTRA.POLAR>
0.313894

>  <SCORE.INTRA.POLAR.0>
-1.83749

>  <SCORE.INTRA.REPUL>
0

>  <SCORE.INTRA.REPUL.0>
0

>  <SCORE.INTRA.SOLV>
-2.41001

>  <SCORE.INTRA.SOLV.lig_0>
-160.638

>  <SCORE.INTRA.VDW>
6.16342

>  <SCORE.INTRA.VDW.0>
-7.61953

>  <SCORE.INTRA.norm>
0.254046

>  <SCORE.RESTR>
3.44279

>  <SCORE.RESTR.CAVITY>
3.44279

>  <SCORE.RESTR.norm>
0.0819712

>  <SCORE.SYSTEM>
0

>  <SCORE.SYSTEM.CONST>
0

>  <SCORE.SYSTEM.DIHEDRAL>
0

>  <SCORE.SYSTEM.SOLV>
0

>  <SCORE.SYSTEM.norm>
0

>  <SCORE.heavy>
42

>  <SCORE.norm>
8.82785

>  <RMSD>
8.606

$$$$
1NEM.B
 OpenBabel11021811403D
libRbt.so/2013.1/901 2013/11/27
 42 45  0  0  0  0  0  0  0  0999 V2000
   -4.5555    0.5878    2.5512 O   0  0  0  0  0  0  0  0  0  0  0  0
   -5.3275    0.0245    1.4886 C   0  0  0  0  0  0  0  0  0  0  0  0
   -4.5772   -1.0565    0.7119 C   0  0  1  0  0  0  0  0  0  0  0  0
   -3.4559   -0.5008    0.0311 O   0  0  0  0  0  0  0  0  0  0  0  0
   -3.9546   -2.1418    1.5757 C   0  0  1  0  0  0  0  0  0  0  0  0
   -5.0210   -2.9564    2.0682 O   0  0  0  0  0  0  0  0  0  0  0  0
   -3.0425   -2.7741    0.5412 C   0  0  1  0  0  0  0  0  0  0  0  0
   -3.7748   -3.4862   -0.4617 O   0  0  0  0  0  0  0  0  0  0  0  0
   -2.4369   -1.4973   -0.0536 C   0  0  2  0  0  0  0  0  0  0  0  0
   -4.6575   -3.9947    2.9326 C   0  0  2  0  0  0  0  0  0  0  0  0
   -5.8743   -4.8968    3.1797 C   0  0  2  0  0  0  0  0  0  0  0  0
   -7.0286   -4.0816    3.6416 N   0  3  0  0  0  0  0  0  0  0  0  0
   -5.5340   -6.0110    4.1748 C   0  0  1  0  0  0  0  0  0  0  0  0
   -4.6559   -6.9463    3.5627 O   0  0  0  0  0  0  0  0  0  0  0  0
   -4.8802   -5.4431    5.4383 C   0  0  2  0  0  0  0  0  0  0  0  0
   -5.8237   -4.6850    6.1846 O   0  0  0  0  0  0  0  0  0  0  0  0
   -3.6945   -4.5636    5.0517 C   0  0  1  0  0  0  0  0  0  0  0  0
   -4.1354   -3.5166    4.1655 O   0  0  0  0  0  0  0  0  0  0  0  0
   -3.0169   -3.9131    6.2450 C   0  0  0  0  0  0  0  0  0  0  0  0
   -2.7070   -4.8955    7.3074 N   0  3  0  0  0  0  0  0  0  0  0  0
    1.0374    4.6914    1.7821 C   0  0  0  0  0  0  0  0  0  0  0  0
   -0.8228    1.8829    0.2397 C   0  0  2  0  0  0  0  0  0  0  0  0
   -1.6630    2.6219   -0.7990 C   0  0  2  0  0  0  0  0  0  0  0  0
   -2.1378    1.6792   -1.8399 N   0  3  0  0  0  0  0  0  0  0  0  0
   -0.8392    3.7228   -1.4535 C   0  0  1  0  0  0  0  0  0  0  0  0
   -1.6530    4.4515   -2.3597 O   0  0  0  0  0  0  0  0  0  0  0  0
   -0.2859    4.6550   -0.3779 C   0  0  2  0  0  0  0  0  0  0  0  0
    0.5413    5.6454   -0.9749 O   0  0  0  0  0  0  0  0  0  0  0  0
    2.1141    5.6100    1.3462 N   0  3  0  0  0  0  0  0  0  0  0  0
    0.5269    3.8441    0.6296 C   0  0  2  0  0  0  0  0  0  0  0  0
   -0.2866    2.7956    1.1939 O   0  0  0  0  0  0  0  0  0  0  0  0
    2.0717   -2.5353    0.5579 C   0  0  2  0  0  0  0  0  0  0  0  0
    2.6942   -3.6214    1.3492 N   0  3  0  0  0  0  0  0  0  0  0  0
    2.8523   -1.2395    0.7471 C   0  0  0  0  0  0  0  0  0  0  0  0
    2.2219   -0.1128   -0.0594 C   0  0  2  0  0  0  0  0  0  0  0  0
    3.0116    1.0903    0.1625 N   0  3  0  0  0  0  0  0  0  0  0  0
    0.7760    0.0953    0.3849 C   0  0  1  0  0  0  0  0  0  0  0  0
    0.1781    1.1438   -0.4022 O   0  0  0  0  0  0  0  0  0  0  0  0
   -0.0366   -1.1960    0.2163 C   0  0  2  0  0  0  0  0  0  0  0  0
   -1.3634   -0.9965    0.7401 O   0  0  0  0  0  0  0  0  0  0  0  0
    0.6080   -2.3628    0.9605 C   0  0  1  0  0  0  0  0  0  0  0  0
   -0.1053   -3.5590    0.6761 O   0  0  0  0  0  0  0  0  0  0  0  0
  1  2  1  0  0  0  0
  3  2  1  1  0  0  0
  3  5  1  0  0  0  0
  3  4  1  0  0  0  0
  4  9  1  0  0  0  0
  5  7  1  0  0  0  0
  5  6  1  6  0  0  0
  7  9  1  0  0  0  0
  7  8  1  6  0  0  0
  9 40  1  1  0  0  0
 10  6  1  6  0  0  0
 10 11  1  0  0  0  0
 10 18  1  0  0  0  0
 11 13  1  0  0  0  0
 11 12  1  1  0  0  0
 13 15  1  0  0  0  0
 13 14  1  6  0  0  0
 15 17  1  0  0  0  0
 15 16  1  6  0  0  0
 17 19  1  1  0  0  0
 17 18  1  0  0  0  0
 19 20  1  0  0  0  0
 21 29  1  0  0  0  0
 22 23  1  0  0  0  0
 22 31  1  0  0  0  0
 22 38  1  6  0  0  0
 23 25  1  0  0  0  0
 23 24  1  6  0  0  0
 25 27  1  0  0  0  0
 25 26  1  6  0  0  0
 27 30  1  0  0  0  0
 27 28  1  6  0  0  0
 30 21  1  1  0  0  0
 30 31  1  0  0  0  0
 32 34  1  0  0  0  0
 32 41  1  0  0  0  0
 32 33  1  1  0  0  0
 34 35  1  0  0  0  0
 35 37  1  0  0  0  0
 35 36  1  1  0  0  0
 37 39  1  0  0  0  0
 37 38  1  6  0  0  0
 39 41  1  0  0  0  0
 39 40  1  1  0  0  0
 41 42  1  6  0  0  0
M  CHG  6  12   1  20   1  24   1  29   1  33   1  36   1
M  END
>  <CHROM.1>
59.85274664,-65.13232004,-177.73947278,-170.88521285,95.39074982,-139.74006752
-78.19070907,-72.48375832,178.99451839,49.90924043,-58.37228843,-71.17467764
-170.60533071,-161.75405358,172.41045396,-51.12357698,62.21993261,-156.83120561
-47.58547007,-150.25757073,135.99100104,-24.55081002,-1.87932331,-0.90469597
1.50950148,2.09916206,-0.10768688,2.68756316

>  <Name>
1NEM.B

>  <RI>
0

>  <Rbt.Current_Directory>
/home/itssahil/PROJECTS/Mol_Feturizer/New_Systems/rnas/1nem

>  <Rbt.Executable>
rbdock ($Id: //depot/dev/client3/rdock/2013.1/src/exe/rbdock.cxx#4 $)

>  <Rbt.Library>
libRbt.so (2013.1, Build901 2013/11/27)

>  <Rbt.Parameter_File>
/export/apps/rDock/src/rDock_2013.1_src/data/scripts/dock_solv.prm

>  <Rbt.Receptor>
prm/pocket_docking_6.prm

>  <SCORE>
-39.2412

>  <SCORE.INTER>
-42.9901

>  <SCORE.INTER.CONST>
1

>  <SCORE.INTER.POLAR>
-7.02848

>  <SCORE.INTER.ROT>
9

>  <SCORE.INTER.SOLV>
35.1921

>  <SCORE.INTER.VDW>
-26.5625

>  <SCORE.INTER.norm>
-1.02357

>  <SCORE.INTRA>
3.74881

>  <SCORE.INTRA.DIHEDRAL>
8.73164

>  <SCORE.INTRA.DIHEDRAL.0>
22.4324

>  <SCORE.INTRA.POLAR>
-0.490237

>  <SCORE.INTRA.POLAR.0>
-1.83749

>  <SCORE.INTRA.REPUL>
0

>  <SCORE.INTRA.REPUL.0>
0

>  <SCORE.INTRA.SOLV>
-2.87144

>  <SCORE.INTRA.SOLV.lig_0>
-160.638

>  <SCORE.INTRA.VDW>
2.48551

>  <SCORE.INTRA.VDW.0>
-7.61953

>  <SCORE.INTRA.norm>
0.0892573

>  <SCORE.RESTR>
0

>  <SCORE.RESTR.CAVITY>
0

>  <SCORE.RESTR.norm>
0

>  <SCORE.SYSTEM>
0

>  <SCORE.SYSTEM.CONST>
0

>  <SCORE.SYSTEM.DIHEDRAL>
0

>  <SCORE.SYSTEM.SOLV>
0

>  <SCORE.SYSTEM.norm>
0

>  <SCORE.heavy>
42

>  <SCORE.norm>
-0.934315

>  <RMSD>
8.631

$$$$
1NEM.B
 OpenBabel11021811403D
libRbt.so/2013.1/901 2013/11/27
 42 45  0  0  0  0  0  0  0  0999 V2000
    1.6682    0.1515   -0.0053 O   0  0  0  0  0  0  0  0  0  0  0  0
    1.0295   -1.0059    0.5376 C   0  0  0  0  0  0  0  0  0  0  0  0
    1.9477   -1.8273    1.4416 C   0  0  1  0  0  0  0  0  0  0  0  0
    3.0924   -1.0683    1.8197 O   0  0  0  0  0  0  0  0  0  0  0  0
    1.3367   -2.2208    2.7770 C   0  0  1  0  0  0  0  0  0  0  0  0
    0.3604   -3.2317    2.5159 O   0  0  0  0  0  0  0  0  0  0  0  0
    2.5979   -2.6671    3.4926 C   0  0  1  0  0  0  0  0  0  0  0  0
    3.1181   -3.8894    2.9591 O   0  0  0  0  0  0  0  0  0  0  0  0
    3.5119   -1.4951    3.1161 C   0  0  2  0  0  0  0  0  0  0  0  0
   -0.9766   -2.8199    2.5348 C   0  0  2  0  0  0  0  0  0  0  0  0
   -1.8574   -3.9821    3.0130 C   0  0  2  0  0  0  0  0  0  0  0  0
   -1.5938   -5.1935    2.1924 N   0  3  0  0  0  0  0  0  0  0  0  0
   -3.3385   -3.5911    2.9856 C   0  0  1  0  0  0  0  0  0  0  0  0
   -3.6019   -2.6450    4.0133 O   0  0  0  0  0  0  0  0  0  0  0  0
   -3.7285   -2.9974    1.6284 C   0  0  2  0  0  0  0  0  0  0  0  0
   -3.6888   -4.0000    0.6209 O   0  0  0  0  0  0  0  0  0  0  0  0
   -2.7732   -1.8622    1.2712 C   0  0  1  0  0  0  0  0  0  0  0  0
   -1.4180   -2.3515    1.2672 O   0  0  0  0  0  0  0  0  0  0  0  0
   -3.0539   -1.2486   -0.0892 C   0  0  0  0  0  0  0  0  0  0  0  0
   -4.2746   -0.4122   -0.0767 N   0  3  0  0  0  0  0  0  0  0  0  0
    3.2756    2.4464    7.2789 C   0  0  0  0  0  0  0  0  0  0  0  0
    6.3850    0.8809    6.0108 C   0  0  2  0  0  0  0  0  0  0  0  0
    6.9233    0.2258    7.2805 C   0  0  2  0  0  0  0  0  0  0  0  0
    7.9013   -0.8338    6.9362 N   0  3  0  0  0  0  0  0  0  0  0  0
    5.7806   -0.3837    8.0815 C   0  0  1  0  0  0  0  0  0  0  0  0
    6.2835   -0.9207    9.2953 O   0  0  0  0  0  0  0  0  0  0  0  0
    4.7336    0.6884    8.3752 C   0  0  2  0  0  0  0  0  0  0  0  0
    3.6307    0.1121    9.0629 O   0  0  0  0  0  0  0  0  0  0  0  0
    3.9097    3.5822    7.9866 N   0  3  0  0  0  0  0  0  0  0  0  0
    4.2560    1.3068    7.0627 C   0  0  2  0  0  0  0  0  0  0  0  0
    5.3774    1.8377    6.3276 O   0  0  0  0  0  0  0  0  0  0  0  0
    4.7683    2.4700    1.9559 C   0  0  2  0  0  0  0  0  0  0  0  0
    4.4642    2.9528    0.5893 N   0  3  0  0  0  0  0  0  0  0  0  0
    6.2189    2.0078    2.0345 C   0  0  0  0  0  0  0  0  0  0  0  0
    6.5453    1.5063    3.4343 C   0  0  2  0  0  0  0  0  0  0  0  0
    7.9386    1.0834    3.4428 N   0  3  0  0  0  0  0  0  0  0  0  0
    5.6217    0.3457    3.7965 C   0  0  1  0  0  0  0  0  0  0  0  0
    5.9180   -0.1045    5.1328 O   0  0  0  0  0  0  0  0  0  0  0  0
    4.1503    0.7756    3.7173 C   0  0  2  0  0  0  0  0  0  0  0  0
    3.3061   -0.3655    3.9616 O   0  0  0  0  0  0  0  0  0  0  0  0
    3.8083    1.3463    2.3433 C   0  0  1  0  0  0  0  0  0  0  0  0
    2.4768    1.8440    2.3543 O   0  0  0  0  0  0  0  0  0  0  0  0
  1  2  1  0  0  0  0
  3  2  1  6  0  0  0
  3  5  1  0  0  0  0
  3  4  1  0  0  0  0
  4  9  1  0  0  0  0
  5  7  1  0  0  0  0
  5  6  1  6  0  0  0
  7  9  1  0  0  0  0
  7  8  1  6  0  0  0
  9 40  1  1  0  0  0
 10  6  1  6  0  0  0
 10 11  1  0  0  0  0
 10 18  1  0  0  0  0
 11 13  1  0  0  0  0
 11 12  1  6  0  0  0
 13 15  1  0  0  0  0
 13 14  1  1  0  0  0
 15 17  1  0  0  0  0
 15 16  1  6  0  0  0
 17 19  1  6  0  0  0
 17 18  1  0  0  0  0
 19 20  1  0  0  0  0
 21 29  1  0  0  0  0
 22 23  1  0  0  0  0
 22 31  1  0  0  0  0
 22 38  1  6  0  0  0
 23 25  1  0  0  0  0
 23 24  1  6  0  0  0
 25 27  1  0  0  0  0
 25 26  1  1  0  0  0
 27 30  1  0  0  0  0
 27 28  1  6  0  0  0
 30 21  1  1  0  0  0
 30 31  1  0  0  0  0
 32 34  1  0  0  0  0
 32 41  1  0  0  0  0
 32 33  1  6  0  0  0
 34 35  1  0  0  0  0
 35 37  1  0  0  0  0
 35 36  1  6  0  0  0
 37 39  1  0  0  0  0
 37 38  1  1  0  0  0
 39 41  1  0  0  0  0
 39 40  1  6  0  0  0
 41 42  1  1  0  0  0
M  CHG  6  12   1  20   1  24   1  29   1  33   1  36   1
M  END
>  <CHROM.1>
61.58441388,15.81322091,-102.70353617,-148.87014173,81.23600577,-67.36643285
56.36633753,179.30332918,178.76794080,73.28848328,-39.66929481,64.14225468
-166.95103524,-168.48831723,53.20335744,-168.26545067,61.58929731,-61.25173609
67.81087190,30.76589130,-55.75522821,97.24375878,2.41489995,-0.61141578,3.67001146
-2.79897747,0.54000434,1.88503859

>  <Name>
1NEM.B

>  <RI>
0

>  <Rbt.Current_Directory>
/home/itssahil/PROJECTS/Mol_Feturizer/New_Systems/rnas/1nem

>  <Rbt.Executable>
rbdock ($Id: //depot/dev/client3/rdock/2013.1/src/exe/rbdock.cxx#4 $)

>  <Rbt.Library>
libRbt.so (2013.1, Build901 2013/11/27)

>  <Rbt.Parameter_File>
/export/apps/rDock/src/rDock_2013.1_src/data/scripts/dock_solv.prm

>  <Rbt.Receptor>
prm/pocket_docking_5.prm

>  <SCORE>
-25.3316

>  <SCORE.INTER>
-34.1593

>  <SCORE.INTER.CONST>
1

>  <SCORE.INTER.POLAR>
-4.39034

>  <SCORE.INTER.ROT>
9

>  <SCORE.INTER.SOLV>
26.3898

>  <SCORE.INTER.VDW>
-26.535

>  <SCORE.INTER.norm>
-0.813317

>  <SCORE.INTRA>
8.81174

>  <SCORE.INTRA.DIHEDRAL>
6.10694

>  <SCORE.INTRA.DIHEDRAL.0>
22.4324

>  <SCORE.INTRA.POLAR>
0.369699

>  <SCORE.INTRA.POLAR.0>
-1.83749

>  <SCORE.INTRA.REPUL>
0.0722126

>  <SCORE.INTRA.REPUL.0>
0

>  <SCORE.INTRA.SOLV>
-4.36584

>  <SCORE.INTRA.SOLV.lig_0>
-160.638

>  <SCORE.INTRA.VDW>
6.32314

>  <SCORE.INTRA.VDW.0>
-7.61953

>  <SCORE.INTRA.norm>
0.209803

>  <SCORE.RESTR>
0.0159786

>  <SCORE.RESTR.CAVITY>
0.0159786

>  <SCORE.RESTR.norm>
0.000380444

>  <SCORE.SYSTEM>
0

>  <SCORE.SYSTEM.CONST>
0

>  <SCORE.SYSTEM.DIHEDRAL>
0

>  <SCORE.SYSTEM.SOLV>
0

>  <SCORE.SYSTEM.norm>
0

>  <SCORE.heavy>
42

>  <SCORE.norm>
-0.603134

>  <RMSD>
8.634

$$$$
1NEM.B
 OpenBabel11021811403D
libRbt.so/2013.1/901 2013/11/27
 42 45  0  0  0  0  0  0  0  0999 V2000
    3.3386   -2.5807   -0.1073 O   0  0  0  0  0  0  0  0  0  0  0  0
    2.0093   -2.1118    0.1277 C   0  0  0  0  0  0  0  0  0  0  0  0
    1.9681   -0.7803    0.8761 C   0  0  1  0  0  0  0  0  0  0  0  0
    2.5261   -0.9178    2.1796 O   0  0  0  0  0  0  0  0  0  0  0  0
    2.8090    0.3233    0.2543 C   0  0  1  0  0  0  0  0  0  0  0  0
    2.1417    0.7455   -0.9372 O   0  0  0  0  0  0  0  0  0  0  0  0
    2.8091    1.3028    1.4129 C   0  0  1  0  0  0  0  0  0  0  0  0
    1.5238    1.8992    1.6165 O   0  0  0  0  0  0  0  0  0  0  0  0
    3.1237    0.3246    2.5508 C   0  0  2  0  0  0  0  0  0  0  0  0
    2.7467    1.7871   -1.6489 C   0  0  2  0  0  0  0  0  0  0  0  0
    1.8035    2.2505   -2.7674 C   0  0  2  0  0  0  0  0  0  0  0  0
    1.3899    1.0901   -3.5996 N   0  3  0  0  0  0  0  0  0  0  0  0
    2.4576    3.3485   -3.6123 C   0  0  1  0  0  0  0  0  0  0  0  0
    2.5449    4.5472   -2.8532 O   0  0  0  0  0  0  0  0  0  0  0  0
    3.8566    2.9304   -4.0752 C   0  0  2  0  0  0  0  0  0  0  0  0
    3.7683    1.8709   -5.0195 O   0  0  0  0  0  0  0  0  0  0  0  0
    4.6844    2.4878   -2.8719 C   0  0  1  0  0  0  0  0  0  0  0  0
    4.0092    1.4154   -2.1864 O   0  0  0  0  0  0  0  0  0  0  0  0
    6.0740    2.0032   -3.2464 C   0  0  0  0  0  0  0  0  0  0  0  0
    6.9726    1.9417   -2.0722 N   0  3  0  0  0  0  0  0  0  0  0  0
    5.9581    0.1289    8.4323 C   0  0  0  0  0  0  0  0  0  0  0  0
    3.7132    0.8197    5.5669 C   0  0  2  0  0  0  0  0  0  0  0  0
    2.4854    1.3771    6.2830 C   0  0  2  0  0  0  0  0  0  0  0  0
    1.6435    2.1458    5.3354 N   0  3  0  0  0  0  0  0  0  0  0  0
    2.9131    2.2850    7.4284 C   0  0  1  0  0  0  0  0  0  0  0  0
    1.7661    2.7343    8.1335 O   0  0  0  0  0  0  0  0  0  0  0  0
    3.8410    1.5189    8.3685 C   0  0  2  0  0  0  0  0  0  0  0  0
    4.3000    2.3797    9.4028 O   0  0  0  0  0  0  0  0  0  0  0  0
    5.3744   -1.2050    8.7022 N   0  3  0  0  0  0  0  0  0  0  0  0
    5.0331    0.9801    7.5799 C   0  0  2  0  0  0  0  0  0  0  0  0
    4.5744    0.1565    6.4886 O   0  0  0  0  0  0  0  0  0  0  0  0
    7.7223    2.0009    2.2799 C   0  0  2  0  0  0  0  0  0  0  0  0
    9.0087    1.6472    1.6369 N   0  3  0  0  0  0  0  0  0  0  0  0
    7.9373    2.2620    3.7664 C   0  0  0  0  0  0  0  0  0  0  0  0
    6.6219    2.6248    4.4414 C   0  0  2  0  0  0  0  0  0  0  0  0
    6.8951    2.8621    5.8518 N   0  3  0  0  0  0  0  0  0  0  0  0
    5.6189    1.4872    4.2649 C   0  0  1  0  0  0  0  0  0  0  0  0
    4.3682    1.8500    4.8819 O   0  0  0  0  0  0  0  0  0  0  0  0
    5.3870    1.1918    2.7766 C   0  0  2  0  0  0  0  0  0  0  0  0
    4.5195    0.0493    2.6466 O   0  0  0  0  0  0  0  0  0  0  0  0
    6.6985    0.8891    2.0562 C   0  0  1  0  0  0  0  0  0  0  0  0
    6.4526    0.7452    0.6636 O   0  0  0  0  0  0  0  0  0  0  0  0
  1  2  1  0  0  0  0
  3  2  1  6  0  0  0
  3  5  1  0  0  0  0
  3  4  1  0  0  0  0
  4  9  1  0  0  0  0
  5  7  1  0  0  0  0
  5  6  1  6  0  0  0
  7  9  1  0  0  0  0
  7  8  1  1  0  0  0
  9 40  1  6  0  0  0
 10  6  1  6  0  0  0
 10 11  1  0  0  0  0
 10 18  1  0  0  0  0
 11 13  1  0  0  0  0
 11 12  1  6  0  0  0
 13 15  1  0  0  0  0
 13 14  1  1  0  0  0
 15 17  1  0  0  0  0
 15 16  1  6  0  0  0
 17 19  1  6  0  0  0
 17 18  1  0  0  0  0
 19 20  1  0  0  0  0
 21 29  1  0  0  0  0
 22 23  1  0  0  0  0
 22 31  1  0  0  0  0
 22 38  1  1  0  0  0
 23 25  1  0  0  0  0
 23 24  1  6  0  0  0
 25 27  1  0  0  0  0
 25 26  1  1  0  0  0
 27 30  1  0  0  0  0
 27 28  1  1  0  0  0
 30 21  1  1  0  0  0
 30 31  1  0  0  0  0
 32 34  1  0  0  0  0
 32 41  1  0  0  0  0
 32 33  1  1  0  0  0
 34 35  1  0  0  0  0
 35 37  1  0  0  0  0
 35 36  1  1  0  0  0
 37 39  1  0  0  0  0
 37 38  1  6  0  0  0
 39 41  1  0  0  0  0
 39 40  1  1  0  0  0
 41 42  1  6  0  0  0
M  CHG  6  12   1  20   1  24   1  29   1  33   1  36   1
M  END
>  <CHROM.1>
57.97090075,-63.50589217,178.62734187,-171.63530659,-178.34638426,169.30051940
163.30677655,-65.07436783,169.01668926,164.07508269,-79.91896871,74.83624687
-149.60894437,174.30822919,177.47163695,-175.35586479,-60.35270627,72.25651486
163.83209759,-140.39854104,91.98520349,60.70096646,4.17921532,1.29938565
2.16735841,1.67494694,-0.16703418,-1.50672796

>  <Name>
1NEM.B

>  <RI>
0

>  <Rbt.Current_Directory>
/home/itssahil/PROJECTS/Mol_Feturizer/New_Systems/rnas/1nem

>  <Rbt.Executable>
rbdock ($Id: //depot/dev/client3/rdock/2013.1/src/exe/rbdock.cxx#4 $)

>  <Rbt.Library>
libRbt.so (2013.1, Build901 2013/11/27)

>  <Rbt.Parameter_File>
/export/apps/rDock/src/rDock_2013.1_src/data/scripts/dock_solv.prm

>  <Rbt.Receptor>
prm/pocket_docking_6.prm

>  <SCORE>
-31.1499

>  <SCORE.INTER>
-29.2762

>  <SCORE.INTER.CONST>
1

>  <SCORE.INTER.POLAR>
-4.52745

>  <SCORE.INTER.ROT>
9

>  <SCORE.INTER.SOLV>
23.5155

>  <SCORE.INTER.VDW>
-21.8644

>  <SCORE.INTER.norm>
-0.697052

>  <SCORE.INTRA>
-1.8737

>  <SCORE.INTRA.DIHEDRAL>
-4.22683

>  <SCORE.INTRA.DIHEDRAL.0>
22.4324

>  <SCORE.INTRA.POLAR>
-0.193504

>  <SCORE.INTRA.POLAR.0>
-1.83749

>  <SCORE.INTRA.REPUL>
0

>  <SCORE.INTRA.REPUL.0>
0

>  <SCORE.INTRA.SOLV>
0.510532

>  <SCORE.INTRA.SOLV.lig_0>
-160.638

>  <SCORE.INTRA.VDW>
0.642365

>  <SCORE.INTRA.VDW.0>
-7.61953

>  <SCORE.INTRA.norm>
-0.0446119

>  <SCORE.RESTR>
0

>  <SCORE.RESTR.CAVITY>
0

>  <SCORE.RESTR.norm>
0

>  <SCORE.SYSTEM>
0

>  <SCORE.SYSTEM.CONST>
0

>  <SCORE.SYSTEM.DIHEDRAL>
0

>  <SCORE.SYSTEM.SOLV>
0

>  <SCORE.SYSTEM.norm>
0

>  <SCORE.heavy>
42

>  <SCORE.norm>
-0.741664

>  <RMSD>
8.653

$$$$
1NEM.B
 OpenBabel11021811403D
libRbt.so/2013.1/901 2013/11/27
 42 45  0  0  0  0  0  0  0  0999 V2000
   -2.3667    1.7073   -1.7858 O   0  0  0  0  0  0  0  0  0  0  0  0
   -2.8487    0.5510   -1.0982 C   0  0  0  0  0  0  0  0  0  0  0  0
   -1.7269   -0.3444   -0.5742 C   0  0  1  0  0  0  0  0  0  0  0  0
   -0.4588    0.1186   -1.0294 O   0  0  0  0  0  0  0  0  0  0  0  0
   -1.5716   -0.3475    0.9383 C   0  0  1  0  0  0  0  0  0  0  0  0
   -2.6758   -1.0782    1.4770 O   0  0  0  0  0  0  0  0  0  0  0  0
   -0.2101   -1.0097    1.0356 C   0  0  1  0  0  0  0  0  0  0  0  0
   -0.2554   -2.3941    0.6742 O   0  0  0  0  0  0  0  0  0  0  0  0
    0.5228   -0.2055   -0.0447 C   0  0  2  0  0  0  0  0  0  0  0  0
   -2.9649   -2.3024    0.8648 C   0  0  2  0  0  0  0  0  0  0  0  0
   -4.4750   -2.5642    0.9450 C   0  0  2  0  0  0  0  0  0  0  0  0
   -4.9385   -2.4509    2.3531 N   0  3  0  0  0  0  0  0  0  0  0  0
   -4.8248   -3.9285    0.3420 C   0  0  1  0  0  0  0  0  0  0  0  0
   -4.6586   -3.8839   -1.0690 O   0  0  0  0  0  0  0  0  0  0  0  0
   -3.9426   -5.0349    0.9286 C   0  0  2  0  0  0  0  0  0  0  0  0
   -4.2624   -5.2478    2.2977 O   0  0  0  0  0  0  0  0  0  0  0  0
   -2.4732   -4.6465    0.7914 C   0  0  1  0  0  0  0  0  0  0  0  0
   -2.2426   -3.3820    1.4426 O   0  0  0  0  0  0  0  0  0  0  0  0
   -1.5250   -5.6658    1.3981 C   0  0  0  0  0  0  0  0  0  0  0  0
   -0.1341   -5.1634    1.4509 N   0  3  0  0  0  0  0  0  0  0  0  0
    7.6666    0.2340    2.0150 C   0  0  0  0  0  0  0  0  0  0  0  0
    3.9764    0.3947    2.3048 C   0  0  2  0  0  0  0  0  0  0  0  0
    3.8136    0.7961    3.7688 C   0  0  2  0  0  0  0  0  0  0  0  0
    2.4646    1.3665    3.9976 N   0  3  0  0  0  0  0  0  0  0  0  0
    4.8681    1.8262    4.1509 C   0  0  1  0  0  0  0  0  0  0  0  0
    4.7555    2.1329    5.5321 O   0  0  0  0  0  0  0  0  0  0  0  0
    6.2580    1.2713    3.8475 C   0  0  2  0  0  0  0  0  0  0  0  0
    7.2447    2.2533    4.1367 O   0  0  0  0  0  0  0  0  0  0  0  0
    8.7843    1.2004    2.1140 N   0  3  0  0  0  0  0  0  0  0  0  0
    6.3389    0.8785    2.3736 C   0  0  2  0  0  0  0  0  0  0  0  0
    5.3003   -0.0701    2.0555 O   0  0  0  0  0  0  0  0  0  0  0  0
    2.8849    1.9802   -2.6713 C   0  0  2  0  0  0  0  0  0  0  0  0
    2.6343    1.6596   -4.0953 N   0  3  0  0  0  0  0  0  0  0  0  0
    4.2260    1.4012   -2.2350 C   0  0  0  0  0  0  0  0  0  0  0  0
    4.4960    1.7213   -0.7714 C   0  0  2  0  0  0  0  0  0  0  0  0
    5.7859    1.1447   -0.4195 N   0  3  0  0  0  0  0  0  0  0  0  0
    3.3841    1.1403    0.0989 C   0  0  1  0  0  0  0  0  0  0  0  0
    3.6322    1.4717    1.4791 O   0  0  0  0  0  0  0  0  0  0  0  0
    2.0166    1.6964   -0.3217 C   0  0  2  0  0  0  0  0  0  0  0  0
    0.9827    1.0516    0.4465 O   0  0  0  0  0  0  0  0  0  0  0  0
    1.7449    1.4494   -1.8035 C   0  0  1  0  0  0  0  0  0  0  0  0
    0.5302    2.0869   -2.1758 O   0  0  0  0  0  0  0  0  0  0  0  0
  1  2  1  0  0  0  0
  3  2  1  1  0  0  0
  3  5  1  0  0  0  0
  3  4  1  0  0  0  0
  4  9  1  0  0  0  0
  5  7  1  0  0  0  0
  5  6  1  1  0  0  0
  7  9  1  0  0  0  0
  7  8  1  6  0  0  0
  9 40  1  1  0  0  0
 10  6  1  1  0  0  0
 10 11  1  0  0  0  0
 10 18  1  0  0  0  0
 11 13  1  0  0  0  0
 11 12  1  1  0  0  0
 13 15  1  0  0  0  0
 13 14  1  6  0  0  0
 15 17  1  0  0  0  0
 15 16  1  1  0  0  0
 17 19  1  1  0  0  0
 17 18  1  0  0  0  0
 19 20  1  0  0  0  0
 21 29  1  0  0  0  0
 22 23  1  0  0  0  0
 22 31  1  0  0  0  0
 22 38  1  6  0  0  0
 23 25  1  0  0  0  0
 23 24  1  6  0  0  0
 25 27  1  0  0  0  0
 25 26  1  1  0  0  0
 27 30  1  0  0  0  0
 27 28  1  6  0  0  0
 30 21  1  1  0  0  0
 30 31  1  0  0  0  0
 32 34  1  0  0  0  0
 32 41  1  0  0  0  0
 32 33  1  6  0  0  0
 34 35  1  0  0  0  0
 35 37  1  0  0  0  0
 35 36  1  1  0  0  0
 37 39  1  0  0  0  0
 37 38  1  1  0  0  0
 39 41  1  0  0  0  0
 39 40  1  1  0  0  0
 41 42  1  6  0  0  0
M  CHG  6  12   1  20   1  24   1  29   1  33   1  36   1
M  END
>  <CHROM.1>
161.50081504,-6.44422587,46.83076446,-148.38483515,74.97208718,-83.99518943
-154.35131284,-84.38136481,-74.34851209,-170.57843252,30.97590944,-67.19304566
51.30350651,-163.66421949,75.78232169,-152.96031092,68.37778058,-84.91164327
143.67517818,-111.10766141,-84.28752846,174.22314407,1.09374080,-0.42750674
0.85085886,3.00910049,0.46758996,2.13145004

>  <Name>
1NEM.B

>  <RI>
0

>  <Rbt.Current_Directory>
/home/itssahil/PROJECTS/Mol_Feturizer/New_Systems/rnas/1nem

>  <Rbt.Executable>
rbdock ($Id: //depot/dev/client3/rdock/2013.1/src/exe/rbdock.cxx#4 $)

>  <Rbt.Library>
libRbt.so (2013.1, Build901 2013/11/27)

>  <Rbt.Parameter_File>
/export/apps/rDock/src/rDock_2013.1_src/data/scripts/dock_solv.prm

>  <Rbt.Receptor>
prm/pocket_docking_7.prm

>  <SCORE>
-20.7558

>  <SCORE.INTER>
-35.7653

>  <SCORE.INTER.CONST>
1

>  <SCORE.INTER.POLAR>
-7.11872

>  <SCORE.INTER.ROT>
9

>  <SCORE.INTER.SOLV>
24.355

>  <SCORE.INTER.VDW>
-17.8328

>  <SCORE.INTER.norm>
-0.851555

>  <SCORE.INTRA>
15.0095

>  <SCORE.INTRA.DIHEDRAL>
18.8535

>  <SCORE.INTRA.DIHEDRAL.0>
22.4324

>  <SCORE.INTRA.POLAR>
-2.01988

>  <SCORE.INTRA.POLAR.0>
-1.83749

>  <SCORE.INTRA.REPUL>
0

>  <SCORE.INTRA.REPUL.0>
0

>  <SCORE.INTRA.SOLV>
3.03848

>  <SCORE.INTRA.SOLV.lig_0>
-160.638

>  <SCORE.INTRA.VDW>
10.9311

>  <SCORE.INTRA.VDW.0>
-7.61953

>  <SCORE.INTRA.norm>
0.35737

>  <SCORE.RESTR>
0

>  <SCORE.RESTR.CAVITY>
0

>  <SCORE.RESTR.norm>
0

>  <SCORE.SYSTEM>
0

>  <SCORE.SYSTEM.CONST>
0

>  <SCORE.SYSTEM.DIHEDRAL>
0

>  <SCORE.SYSTEM.SOLV>
0

>  <SCORE.SYSTEM.norm>
0

>  <SCORE.heavy>
42

>  <SCORE.norm>
-0.494185

>  <RMSD>
8.655

$$$$
1NEM.B
 OpenBabel11021811403D
libRbt.so/2013.1/901 2013/11/27
 42 45  0  0  0  0  0  0  0  0999 V2000
   -3.5184    2.6411   -1.3367 O   0  0  0  0  0  0  0  0  0  0  0  0
   -2.9530    2.1085   -0.1372 C   0  0  0  0  0  0  0  0  0  0  0  0
   -2.6142    0.6223   -0.2440 C   0  0  1  0  0  0  0  0  0  0  0  0
   -1.2534    0.4422   -0.6251 O   0  0  0  0  0  0  0  0  0  0  0  0
   -2.7120   -0.1462    1.0642 C   0  0  1  0  0  0  0  0  0  0  0  0
   -4.1008   -0.2818    1.3743 O   0  0  0  0  0  0  0  0  0  0  0  0
   -1.9845   -1.4118    0.6507 C   0  0  1  0  0  0  0  0  0  0  0  0
   -2.7412   -2.1897   -0.2828 O   0  0  0  0  0  0  0  0  0  0  0  0
   -0.7780   -0.7744   -0.0485 C   0  0  2  0  0  0  0  0  0  0  0  0
   -4.4750   -1.4565    2.0356 C   0  0  2  0  0  0  0  0  0  0  0  0
   -5.9021   -1.2994    2.5778 C   0  0  2  0  0  0  0  0  0  0  0  0
   -6.0022   -0.0659    3.4017 N   0  3  0  0  0  0  0  0  0  0  0  0
   -6.3259   -2.5428    3.3665 C   0  0  1  0  0  0  0  0  0  0  0  0
   -6.5215   -3.6312    2.4733 O   0  0  0  0  0  0  0  0  0  0  0  0
   -5.2723   -2.9195    4.4126 C   0  0  2  0  0  0  0  0  0  0  0  0
   -5.2275   -1.9407    5.4432 O   0  0  0  0  0  0  0  0  0  0  0  0
   -3.9049   -3.0358    3.7452 C   0  0  1  0  0  0  0  0  0  0  0  0
   -3.5795   -1.7966    3.0862 O   0  0  0  0  0  0  0  0  0  0  0  0
   -2.7867   -3.3549    4.7219 C   0  0  0  0  0  0  0  0  0  0  0  0
   -3.0270   -4.6260    5.4405 N   0  3  0  0  0  0  0  0  0  0  0  0
    5.8173    1.6065    4.7029 C   0  0  0  0  0  0  0  0  0  0  0  0
    2.5495    1.4205    2.9668 C   0  0  2  0  0  0  0  0  0  0  0  0
    2.4979    2.7880    2.2898 C   0  0  2  0  0  0  0  0  0  0  0  0
    1.5179    2.7734    1.1777 N   0  3  0  0  0  0  0  0  0  0  0  0
    3.8719    3.1567    1.7464 C   0  0  1  0  0  0  0  0  0  0  0  0
    3.8290    4.4614    1.1891 O   0  0  0  0  0  0  0  0  0  0  0  0
    4.8995    3.1008    2.8746 C   0  0  2  0  0  0  0  0  0  0  0  0
    6.1966    3.3762    2.3616 O   0  0  0  0  0  0  0  0  0  0  0  0
    5.3716    0.5616    5.6529 N   0  3  0  0  0  0  0  0  0  0  0  0
    4.8816    1.7125    3.5113 C   0  0  2  0  0  0  0  0  0  0  0  0
    3.5537    1.3979    3.9778 O   0  0  0  0  0  0  0  0  0  0  0  0
    1.7987   -3.7035    1.6882 C   0  0  2  0  0  0  0  0  0  0  0  0
    1.1898   -5.0228    1.9746 N   0  3  0  0  0  0  0  0  0  0  0  0
    2.6025   -3.2279    2.8931 C   0  0  0  0  0  0  0  0  0  0  0  0
    3.2328   -1.8708    2.6136 C   0  0  2  0  0  0  0  0  0  0  0  0
    3.9839   -1.4758    3.7968 N   0  3  0  0  0  0  0  0  0  0  0  0
    2.1431   -0.8500    2.2945 C   0  0  1  0  0  0  0  0  0  0  0  0
    2.7495    0.4244    2.0036 O   0  0  0  0  0  0  0  0  0  0  0  0
    1.3074   -1.3044    1.0898 C   0  0  2  0  0  0  0  0  0  0  0  0
    0.2270   -0.3750    0.8809 O   0  0  0  0  0  0  0  0  0  0  0  0
    0.7153   -2.6938    1.3128 C   0  0  1  0  0  0  0  0  0  0  0  0
    0.0565   -3.1243    0.1291 O   0  0  0  0  0  0  0  0  0  0  0  0
  1  2  1  0  0  0  0
  3  2  1  1  0  0  0
  3  5  1  0  0  0  0
  3  4  1  0  0  0  0
  4  9  1  0  0  0  0
  5  7  1  0  0  0  0
  5  6  1  6  0  0  0
  7  9  1  0  0  0  0
  7  8  1  6  0  0  0
  9 40  1  1  0  0  0
 10  6  1  1  0  0  0
 10 11  1  0  0  0  0
 10 18  1  0  0  0  0
 11 13  1  0  0  0  0
 11 12  1  1  0  0  0
 13 15  1  0  0  0  0
 13 14  1  6  0  0  0
 15 17  1  0  0  0  0
 15 16  1  1  0  0  0
 17 19  1  1  0  0  0
 17 18  1  0  0  0  0
 19 20  1  0  0  0  0
 21 29  1  0  0  0  0
 22 23  1  0  0  0  0
 22 31  1  0  0  0  0
 22 38  1  6  0  0  0
 23 25  1  0  0  0  0
 23 24  1  6  0  0  0
 25 27  1  0  0  0  0
 25 26  1  1  0  0  0
 27 30  1  0  0  0  0
 27 28  1  6  0  0  0
 30 21  1  1  0  0  0
 30 31  1  0  0  0  0
 32 34  1  0  0  0  0
 32 41  1  0  0  0  0
 32 33  1  1  0  0  0
 34 35  1  0  0  0  0
 35 37  1  0  0  0  0
 35 36  1  1  0  0  0
 37 39  1  0  0  0  0
 37 38  1  6  0  0  0
 39 41  1  0  0  0  0
 39 40  1  1  0  0  0
 41 42  1  6  0  0  0
M  CHG  6  12   1  20   1  24   1  29   1  33   1  36   1
M  END
>  <CHROM.1>
76.52105041,94.14389291,146.84654098,166.85435395,156.64476983,-149.13249077
-84.30221384,-163.67269768,-171.66519130,58.95273216,-67.55004887,153.90508679
-36.62240242,-148.21208168,179.21991864,179.51623473,-65.06206535,93.00414042
-20.14931376,-109.95527608,-169.35422227,-33.92268805,-0.26171229,-0.53795887
2.25207428,2.81544057,0.22530910,2.59655039

>  <Name>
1NEM.B

>  <RI>
0

>  <Rbt.Current_Directory>
/home/itssahil/PROJECTS/Mol_Feturizer/New_Systems/rnas/1nem

>  <Rbt.Executable>
rbdock ($Id: //depot/dev/client3/rdock/2013.1/src/exe/rbdock.cxx#4 $)

>  <Rbt.Library>
libRbt.so (2013.1, Build901 2013/11/27)

>  <Rbt.Parameter_File>
/export/apps/rDock/src/rDock_2013.1_src/data/scripts/dock_solv.prm

>  <Rbt.Receptor>
prm/pocket_docking_5.prm

>  <SCORE>
-29.8933

>  <SCORE.INTER>
-48.6748

>  <SCORE.INTER.CONST>
1

>  <SCORE.INTER.POLAR>
-7.24285

>  <SCORE.INTER.ROT>
9

>  <SCORE.INTER.SOLV>
41.2981

>  <SCORE.INTER.VDW>
-31.673

>  <SCORE.INTER.norm>
-1.15892

>  <SCORE.INTRA>
18.7815

>  <SCORE.INTRA.DIHEDRAL>
18.5616

>  <SCORE.INTRA.DIHEDRAL.0>
22.4324

>  <SCORE.INTRA.POLAR>
-0.0502905

>  <SCORE.INTRA.POLAR.0>
-1.83749

>  <SCORE.INTRA.REPUL>
0

>  <SCORE.INTRA.REPUL.0>
0

>  <SCORE.INTRA.SOLV>
2.44378

>  <SCORE.INTRA.SOLV.lig_0>
-160.638

>  <SCORE.INTRA.VDW>
8.44979

>  <SCORE.INTRA.VDW.0>
-7.61953

>  <SCORE.INTRA.norm>
0.447179

>  <SCORE.RESTR>
0

>  <SCORE.RESTR.CAVITY>
0

>  <SCORE.RESTR.norm>
0

>  <SCORE.SYSTEM>
0

>  <SCORE.SYSTEM.CONST>
0

>  <SCORE.SYSTEM.DIHEDRAL>
0

>  <SCORE.SYSTEM.SOLV>
0

>  <SCORE.SYSTEM.norm>
0

>  <SCORE.heavy>
42

>  <SCORE.norm>
-0.711744

>  <RMSD>
8.679

$$$$
1NEM.B
 OpenBabel11021811403D
libRbt.so/2013.1/901 2013/11/27
 42 45  0  0  0  0  0  0  0  0999 V2000
   -5.1504    0.0327    3.5848 O   0  0  0  0  0  0  0  0  0  0  0  0
   -4.9406    0.7400    2.3609 C   0  0  0  0  0  0  0  0  0  0  0  0
   -4.4684   -0.1624    1.2218 C   0  0  1  0  0  0  0  0  0  0  0  0
   -3.3653    0.4251    0.5382 O   0  0  0  0  0  0  0  0  0  0  0  0
   -3.9229   -1.5106    1.6649 C   0  0  1  0  0  0  0  0  0  0  0  0
   -5.0356   -2.2990    2.0934 O   0  0  0  0  0  0  0  0  0  0  0  0
   -3.2533   -1.9326    0.3705 C   0  0  1  0  0  0  0  0  0  0  0  0
   -4.2042   -2.2462   -0.6525 O   0  0  0  0  0  0  0  0  0  0  0  0
   -2.5324   -0.6210    0.0375 C   0  0  2  0  0  0  0  0  0  0  0  0
   -4.8929   -2.9543    3.3212 C   0  0  2  0  0  0  0  0  0  0  0  0
   -4.8458   -4.4698    3.0835 C   0  0  2  0  0  0  0  0  0  0  0  0
   -6.0251   -4.8982    2.2860 N   0  3  0  0  0  0  0  0  0  0  0  0
   -4.7553   -5.2277    4.4120 C   0  0  1  0  0  0  0  0  0  0  0  0
   -3.4709   -5.0300    4.9881 O   0  0  0  0  0  0  0  0  0  0  0  0
   -5.8355   -4.7579    5.3912 C   0  0  2  0  0  0  0  0  0  0  0  0
   -7.1225   -5.1542    4.9342 O   0  0  0  0  0  0  0  0  0  0  0  0
   -5.7771   -3.2393    5.5300 C   0  0  1  0  0  0  0  0  0  0  0  0
   -5.9318   -2.6272    4.2349 O   0  0  0  0  0  0  0  0  0  0  0  0
   -6.8525   -2.6795    6.4444 C   0  0  0  0  0  0  0  0  0  0  0  0
   -6.5163   -2.8688    7.8730 N   0  3  0  0  0  0  0  0  0  0  0  0
    2.4186    3.3854    1.0127 C   0  0  0  0  0  0  0  0  0  0  0  0
    0.1870    1.1242   -0.8937 C   0  0  2  0  0  0  0  0  0  0  0  0
    0.1436    1.8272   -2.2482 C   0  0  2  0  0  0  0  0  0  0  0  0
   -0.3030    0.8845   -3.3016 N   0  3  0  0  0  0  0  0  0  0  0  0
    1.5229    2.3651   -2.6047 C   0  0  1  0  0  0  0  0  0  0  0  0
    1.4527    3.0826   -3.8273 O   0  0  0  0  0  0  0  0  0  0  0  0
    2.0195    3.2792   -1.4869 C   0  0  2  0  0  0  0  0  0  0  0  0
    3.3355    3.7307   -1.7797 O   0  0  0  0  0  0  0  0  0  0  0  0
    1.4344    3.2928    2.1153 N   0  3  0  0  0  0  0  0  0  0  0  0
    2.0199    2.5134   -0.1652 C   0  0  2  0  0  0  0  0  0  0  0  0
    0.7018    1.9965    0.1089 O   0  0  0  0  0  0  0  0  0  0  0  0
    0.9085   -3.4221    1.5927 C   0  0  2  0  0  0  0  0  0  0  0  0
    1.0161   -4.2383    2.8237 N   0  3  0  0  0  0  0  0  0  0  0  0
    2.2344   -2.7235    1.3132 C   0  0  0  0  0  0  0  0  0  0  0  0
    2.1380   -1.8783    0.0508 C   0  0  2  0  0  0  0  0  0  0  0  0
    3.4307   -1.2424   -0.1600 N   0  3  0  0  0  0  0  0  0  0  0  0
    1.0365   -0.8331    0.2109 C   0  0  1  0  0  0  0  0  0  0  0  0
    0.9327   -0.0561   -0.9982 O   0  0  0  0  0  0  0  0  0  0  0  0
   -0.3126   -1.5041    0.5038 C   0  0  2  0  0  0  0  0  0  0  0  0
   -1.3055   -0.4907    0.7522 O   0  0  0  0  0  0  0  0  0  0  0  0
   -0.2304   -2.4127    1.7278 C   0  0  1  0  0  0  0  0  0  0  0  0
   -1.4610   -3.1061    1.8874 O   0  0  0  0  0  0  0  0  0  0  0  0
  1  2  1  0  0  0  0
  3  2  1  1  0  0  0
  3  5  1  0  0  0  0
  3  4  1  0  0  0  0
  4  9  1  0  0  0  0
  5  7  1  0  0  0  0
  5  6  1  6  0  0  0
  7  9  1  0  0  0  0
  7  8  1  6  0  0  0
  9 40  1  1  0  0  0
 10  6  1  6  0  0  0
 10 11  1  0  0  0  0
 10 18  1  0  0  0  0
 11 13  1  0  0  0  0
 11 12  1  1  0  0  0
 13 15  1  0  0  0  0
 13 14  1  1  0  0  0
 15 17  1  0  0  0  0
 15 16  1  6  0  0  0
 17 19  1  1  0  0  0
 17 18  1  0  0  0  0
 19 20  1  0  0  0  0
 21 29  1  0  0  0  0
 22 23  1  0  0  0  0
 22 31  1  0  0  0  0
 22 38  1  6  0  0  0
 23 25  1  0  0  0  0
 23 24  1  6  0  0  0
 25 27  1  0  0  0  0
 25 26  1  6  0  0  0
 27 30  1  0  0  0  0
 27 28  1  6  0  0  0
 30 21  1  1  0  0  0
 30 31  1  0  0  0  0
 32 34  1  0  0  0  0
 32 41  1  0  0  0  0
 32 33  1  1  0  0  0
 34 35  1  0  0  0  0
 35 37  1  0  0  0  0
 35 36  1  1  0  0  0
 37 39  1  0  0  0  0
 37 38  1  6  0  0  0
 39 41  1  0  0  0  0
 39 40  1  1  0  0  0
 41 42  1  6  0  0  0
M  CHG  6  12   1  20   1  24   1  29   1  33   1  36   1
M  END
>  <CHROM.1>
-64.00905910,-133.30572583,-132.29718759,-112.82664368,-161.71136573,175.43058774
61.85630239,65.01238232,59.45145706,77.94388897,-1.99954667,128.48924302
-56.48969700,-179.06333178,-67.94221643,67.18914630,-59.13658006,-149.75339106
150.29759771,-165.99835687,130.90310745,57.42071915,-1.81696192,-1.09890348
1.45228762,2.36422003,-0.29786105,2.61559073

>  <Name>
1NEM.B

>  <RI>
0

>  <Rbt.Current_Directory>
/home/itssahil/PROJECTS/Mol_Feturizer/New_Systems/rnas/1nem

>  <Rbt.Executable>
rbdock ($Id: //depot/dev/client3/rdock/2013.1/src/exe/rbdock.cxx#4 $)

>  <Rbt.Library>
libRbt.so (2013.1, Build901 2013/11/27)

>  <Rbt.Parameter_File>
/export/apps/rDock/src/rDock_2013.1_src/data/scripts/dock_solv.prm

>  <Rbt.Receptor>
prm/pocket_docking_4.prm

>  <SCORE>
-30.9011

>  <SCORE.INTER>
-45.8911

>  <SCORE.INTER.CONST>
1

>  <SCORE.INTER.POLAR>
-7.3398

>  <SCORE.INTER.ROT>
9

>  <SCORE.INTER.SOLV>
34.6275

>  <SCORE.INTER.VDW>
-27.2706

>  <SCORE.INTER.norm>
-1.09265

>  <SCORE.INTRA>
14.3814

>  <SCORE.INTRA.DIHEDRAL>
18.9051

>  <SCORE.INTRA.DIHEDRAL.0>
22.4324

>  <SCORE.INTRA.POLAR>
1.10145

>  <SCORE.INTRA.POLAR.0>
-1.83749

>  <SCORE.INTRA.REPUL>
0

>  <SCORE.INTRA.REPUL.0>
0

>  <SCORE.INTRA.SOLV>
-6.47993

>  <SCORE.INTRA.SOLV.lig_0>
-160.638

>  <SCORE.INTRA.VDW>
4.42387

>  <SCORE.INTRA.VDW.0>
-7.61953

>  <SCORE.INTRA.norm>
0.342415

>  <SCORE.RESTR>
0.608545

>  <SCORE.RESTR.CAVITY>
0.608545

>  <SCORE.RESTR.norm>
0.0144892

>  <SCORE.SYSTEM>
0

>  <SCORE.SYSTEM.CONST>
0

>  <SCORE.SYSTEM.DIHEDRAL>
0

>  <SCORE.SYSTEM.SOLV>
0

>  <SCORE.SYSTEM.norm>
0

>  <SCORE.heavy>
42

>  <SCORE.norm>
-0.735741

>  <RMSD>
8.680

$$$$
1NEM.B
 OpenBabel11021811403D
libRbt.so/2013.1/901 2013/11/27
 42 45  0  0  0  0  0  0  0  0999 V2000
   -4.7932    0.6033    1.6218 O   0  0  0  0  0  0  0  0  0  0  0  0
   -5.5640   -0.4345    1.0129 C   0  0  0  0  0  0  0  0  0  0  0  0
   -4.7710   -1.7234    0.8017 C   0  0  1  0  0  0  0  0  0  0  0  0
   -3.6356   -1.4863   -0.0254 O   0  0  0  0  0  0  0  0  0  0  0  0
   -4.1621   -2.3081    2.0661 C   0  0  1  0  0  0  0  0  0  0  0  0
   -5.2322   -2.8586    2.8376 O   0  0  0  0  0  0  0  0  0  0  0  0
   -3.2054   -3.3002    1.4318 C   0  0  1  0  0  0  0  0  0  0  0  0
   -3.8917   -4.3977    0.8205 O   0  0  0  0  0  0  0  0  0  0  0  0
   -2.5992   -2.3911    0.3562 C   0  0  2  0  0  0  0  0  0  0  0  0
   -4.9553   -3.1146    4.1848 C   0  0  2  0  0  0  0  0  0  0  0  0
   -4.0142   -4.3226    4.2874 C   0  0  2  0  0  0  0  0  0  0  0  0
   -4.5818   -5.4765    3.5415 N   0  3  0  0  0  0  0  0  0  0  0  0
   -3.7382   -4.6760    5.7524 C   0  0  1  0  0  0  0  0  0  0  0  0
   -2.9168   -3.6750    6.3388 O   0  0  0  0  0  0  0  0  0  0  0  0
   -5.0423   -4.8005    6.5463 C   0  0  2  0  0  0  0  0  0  0  0  0
   -5.7733   -5.9431    6.1194 O   0  0  0  0  0  0  0  0  0  0  0  0
   -5.8834   -3.5420    6.3523 C   0  0  1  0  0  0  0  0  0  0  0  0
   -6.1338   -3.3372    4.9482 O   0  0  0  0  0  0  0  0  0  0  0  0
   -7.2238   -3.6017    7.0635 C   0  0  0  0  0  0  0  0  0  0  0  0
   -7.1533   -3.0242    8.4242 N   0  3  0  0  0  0  0  0  0  0  0  0
    2.5793    2.7065   -2.9670 C   0  0  0  0  0  0  0  0  0  0  0  0
    0.5344    1.4567   -0.1415 C   0  0  2  0  0  0  0  0  0  0  0  0
   -0.7902    2.1712   -0.3985 C   0  0  2  0  0  0  0  0  0  0  0  0
   -1.8910    1.4850    0.3190 N   0  3  0  0  0  0  0  0  0  0  0  0
   -1.0953    2.1902   -1.8903 C   0  0  1  0  0  0  0  0  0  0  0  0
   -2.2880    2.9236   -2.1230 O   0  0  0  0  0  0  0  0  0  0  0  0
    0.0698    2.8298   -2.6421 C   0  0  2  0  0  0  0  0  0  0  0  0
   -0.1767    2.7888   -4.0418 O   0  0  0  0  0  0  0  0  0  0  0  0
    2.5908    2.4986   -4.4332 N   0  3  0  0  0  0  0  0  0  0  0  0
    1.3580    2.0731   -2.3237 C   0  0  2  0  0  0  0  0  0  0  0  0
    1.5829    2.0544   -0.8994 O   0  0  0  0  0  0  0  0  0  0  0  0
    1.6305   -3.4305    1.6087 C   0  0  2  0  0  0  0  0  0  0  0  0
    1.9855   -4.3586    2.7069 N   0  3  0  0  0  0  0  0  0  0  0  0
    2.5412   -2.2084    1.6445 C   0  0  0  0  0  0  0  0  0  0  0  0
    2.1860   -1.2437    0.5217 C   0  0  2  0  0  0  0  0  0  0  0  0
    3.0887   -0.1047    0.6102 N   0  3  0  0  0  0  0  0  0  0  0  0
    0.7323   -0.7987    0.6625 C   0  0  1  0  0  0  0  0  0  0  0  0
    0.3959    0.0916   -0.4195 O   0  0  0  0  0  0  0  0  0  0  0  0
   -0.2121   -2.0086    0.6403 C   0  0  2  0  0  0  0  0  0  0  0  0
   -1.5614   -1.5649    0.8794 O   0  0  0  0  0  0  0  0  0  0  0  0
    0.1605   -3.0278    1.7140 C   0  0  1  0  0  0  0  0  0  0  0  0
   -0.6575   -4.1821    1.5766 O   0  0  0  0  0  0  0  0  0  0  0  0
  1  2  1  0  0  0  0
  3  2  1  1  0  0  0
  3  5  1  0  0  0  0
  3  4  1  0  0  0  0
  4  9  1  0  0  0  0
  5  7  1  0  0  0  0
  5  6  1  1  0  0  0
  7  9  1  0  0  0  0
  7  8  1  6  0  0  0
  9 40  1  1  0  0  0
 10  6  1  6  0  0  0
 10 11  1  0  0  0  0
 10 18  1  0  0  0  0
 11 13  1  0  0  0  0
 11 12  1  1  0  0  0
 13 15  1  0  0  0  0
 13 14  1  1  0  0  0
 15 17  1  0  0  0  0
 15 16  1  6  0  0  0
 17 19  1  1  0  0  0
 17 18  1  0  0  0  0
 19 20  1  0  0  0  0
 21 29  1  0  0  0  0
 22 23  1  0  0  0  0
 22 31  1  0  0  0  0
 22 38  1  6  0  0  0
 23 25  1  0  0  0  0
 23 24  1  1  0  0  0
 25 27  1  0  0  0  0
 25 26  1  1  0  0  0
 27 30  1  0  0  0  0
 27 28  1  6  0  0  0
 30 21  1  6  0  0  0
 30 31  1  0  0  0  0
 32 34  1  0  0  0  0
 32 41  1  0  0  0  0
 32 33  1  1  0  0  0
 34 35  1  0  0  0  0
 35 37  1  0  0  0  0
 35 36  1  1  0  0  0
 37 39  1  0  0  0  0
 37 38  1  6  0  0  0
 39 41  1  0  0  0  0
 39 40  1  1  0  0  0
 41 42  1  6  0  0  0
M  CHG  6  12   1  20   1  24   1  29   1  33   1  36   1
M  END
>  <CHROM.1>
175.86171835,-59.11357742,-163.02989984,-71.71794618,171.49805331,-145.77142924
-63.21742600,176.50529813,59.47017054,92.11458604,53.62314127,-71.61431477
-65.28432648,-123.81654794,80.70789646,57.14767811,-47.96457786,-61.81472279
-54.19574796,-94.38053999,154.41951552,-50.02915698,-1.98224377,-1.46684922
1.55078897,2.18796293,-0.24705726,2.40412431

>  <Name>
1NEM.B

>  <RI>
0

>  <Rbt.Current_Directory>
/home/itssahil/PROJECTS/Mol_Feturizer/New_Systems/rnas/1nem

>  <Rbt.Executable>
rbdock ($Id: //depot/dev/client3/rdock/2013.1/src/exe/rbdock.cxx#4 $)

>  <Rbt.Library>
libRbt.so (2013.1, Build901 2013/11/27)

>  <Rbt.Parameter_File>
/export/apps/rDock/src/rDock_2013.1_src/data/scripts/dock_solv.prm

>  <Rbt.Receptor>
prm/pocket_docking_5.prm

>  <SCORE>
-36.426

>  <SCORE.INTER>
-34.554

>  <SCORE.INTER.CONST>
1

>  <SCORE.INTER.POLAR>
-4.92201

>  <SCORE.INTER.ROT>
9

>  <SCORE.INTER.SOLV>
25.9857

>  <SCORE.INTER.VDW>
-24.8912

>  <SCORE.INTER.norm>
-0.822714

>  <SCORE.INTRA>
-2.32564

>  <SCORE.INTRA.DIHEDRAL>
5.24325

>  <SCORE.INTRA.DIHEDRAL.0>
22.4324

>  <SCORE.INTRA.POLAR>
-2.14422

>  <SCORE.INTRA.POLAR.0>
-1.83749

>  <SCORE.INTRA.REPUL>
0.0495069

>  <SCORE.INTRA.REPUL.0>
0

>  <SCORE.INTRA.SOLV>
1.5186

>  <SCORE.INTRA.SOLV.lig_0>
-160.638

>  <SCORE.INTRA.VDW>
1.33627

>  <SCORE.INTRA.VDW.0>
-7.61953

>  <SCORE.INTRA.norm>
-0.0553723

>  <SCORE.RESTR>
0.453625

>  <SCORE.RESTR.CAVITY>
0.453625

>  <SCORE.RESTR.norm>
0.0108006

>  <SCORE.SYSTEM>
0

>  <SCORE.SYSTEM.CONST>
0

>  <SCORE.SYSTEM.DIHEDRAL>
0

>  <SCORE.SYSTEM.SOLV>
0

>  <SCORE.SYSTEM.norm>
0

>  <SCORE.heavy>
42

>  <SCORE.norm>
-0.867286

>  <RMSD>
8.680

$$$$
1NEM.B
 OpenBabel11021811403D
libRbt.so/2013.1/901 2013/11/27
 42 45  0  0  0  0  0  0  0  0999 V2000
   -5.6462    0.2921    1.7928 O   0  0  0  0  0  0  0  0  0  0  0  0
   -5.9227   -0.8675    2.5810 C   0  0  0  0  0  0  0  0  0  0  0  0
   -4.7519   -1.8479    2.6341 C   0  0  1  0  0  0  0  0  0  0  0  0
   -4.0361   -1.8447    1.4023 O   0  0  0  0  0  0  0  0  0  0  0  0
   -3.6816   -1.5031    3.6573 C   0  0  1  0  0  0  0  0  0  0  0  0
   -4.2266   -1.7758    4.9504 O   0  0  0  0  0  0  0  0  0  0  0  0
   -2.5844   -2.4337    3.1757 C   0  0  1  0  0  0  0  0  0  0  0  0
   -2.8937   -3.8088    3.4258 O   0  0  0  0  0  0  0  0  0  0  0  0
   -2.6655   -2.1388    1.6732 C   0  0  2  0  0  0  0  0  0  0  0  0
   -4.5607   -3.1089    5.2120 C   0  0  2  0  0  0  0  0  0  0  0  0
   -5.9920   -3.3764    4.7272 C   0  0  2  0  0  0  0  0  0  0  0  0
   -6.9244   -2.3776    5.3133 N   0  3  0  0  0  0  0  0  0  0  0  0
   -6.4198   -4.8106    5.0552 C   0  0  1  0  0  0  0  0  0  0  0  0
   -5.7071   -5.7222    4.2295 O   0  0  0  0  0  0  0  0  0  0  0  0
   -6.1613   -5.1415    6.5283 C   0  0  2  0  0  0  0  0  0  0  0  0
   -7.0369   -4.3944    7.3633 O   0  0  0  0  0  0  0  0  0  0  0  0
   -4.7104   -4.8240    6.8787 C   0  0  1  0  0  0  0  0  0  0  0  0
   -4.4327   -3.4402    6.5886 O   0  0  0  0  0  0  0  0  0  0  0  0
   -4.3789   -5.0721    8.3398 C   0  0  0  0  0  0  0  0  0  0  0  0
   -5.0913   -4.1335    9.2350 N   0  3  0  0  0  0  0  0  0  0  0  0
    0.7300    4.5175    1.1700 C   0  0  0  0  0  0  0  0  0  0  0  0
   -1.8326    1.9970    0.2714 C   0  0  2  0  0  0  0  0  0  0  0  0
   -2.7689    2.8282   -0.6024 C   0  0  2  0  0  0  0  0  0  0  0  0
   -3.6052    1.9416   -1.4462 N   0  3  0  0  0  0  0  0  0  0  0  0
   -1.9625    3.7612   -1.4959 C   0  0  1  0  0  0  0  0  0  0  0  0
   -2.8444    4.5821   -2.2461 O   0  0  0  0  0  0  0  0  0  0  0  0
   -1.0441    4.6258   -0.6352 C   0  0  2  0  0  0  0  0  0  0  0  0
   -0.2378    5.4510   -1.4662 O   0  0  0  0  0  0  0  0  0  0  0  0
    0.9503    3.7884    2.4400 N   0  3  0  0  0  0  0  0  0  0  0  0
   -0.1522    3.7273    0.2192 C   0  0  2  0  0  0  0  0  0  0  0  0
   -0.9616    2.8415    1.0192 O   0  0  0  0  0  0  0  0  0  0  0  0
    1.4540   -2.1840    0.2992 C   0  0  2  0  0  0  0  0  0  0  0  0
    2.4246   -3.0555    1.0005 N   0  3  0  0  0  0  0  0  0  0  0  0
    2.0685   -0.8102    0.0556 C   0  0  0  0  0  0  0  0  0  0  0  0
    1.0805    0.0978   -0.6632 C   0  0  2  0  0  0  0  0  0  0  0  0
    1.7259    1.3871   -0.8661 N   0  3  0  0  0  0  0  0  0  0  0  0
   -0.1870    0.2492    0.1747 C   0  0  1  0  0  0  0  0  0  0  0  0
   -1.1278    1.0867   -0.5252 O   0  0  0  0  0  0  0  0  0  0  0  0
   -0.8264   -1.1195    0.4470 C   0  0  2  0  0  0  0  0  0  0  0  0
   -1.9567   -0.9519    1.3239 O   0  0  0  0  0  0  0  0  0  0  0  0
    0.1625   -2.0763    1.1083 C   0  0  1  0  0  0  0  0  0  0  0  0
   -0.4299   -3.3629    1.2278 O   0  0  0  0  0  0  0  0  0  0  0  0
  1  2  1  0  0  0  0
  3  2  1  6  0  0  0
  3  5  1  0  0  0  0
  3  4  1  0  0  0  0
  4  9  1  0  0  0  0
  5  7  1  0  0  0  0
  5  6  1  1  0  0  0
  7  9  1  0  0  0  0
  7  8  1  6  0  0  0
  9 40  1  1  0  0  0
 10  6  1  1  0  0  0
 10 11  1  0  0  0  0
 10 18  1  0  0  0  0
 11 13  1  0  0  0  0
 11 12  1  1  0  0  0
 13 15  1  0  0  0  0
 13 14  1  6  0  0  0
 15 17  1  0  0  0  0
 15 16  1  1  0  0  0
 17 19  1  1  0  0  0
 17 18  1  0  0  0  0
 19 20  1  0  0  0  0
 21 29  1  0  0  0  0
 22 23  1  0  0  0  0
 22 31  1  0  0  0  0
 22 38  1  6  0  0  0
 23 25  1  0  0  0  0
 23 24  1  6  0  0  0
 25 27  1  0  0  0  0
 25 26  1  1  0  0  0
 27 30  1  0  0  0  0
 27 28  1  6  0  0  0
 30 21  1  1  0  0  0
 30 31  1  0  0  0  0
 32 34  1  0  0  0  0
 32 41  1  0  0  0  0
 32 33  1  1  0  0  0
 34 35  1  0  0  0  0
 35 37  1  0  0  0  0
 35 36  1  1  0  0  0
 37 39  1  0  0  0  0
 37 38  1  6  0  0  0
 39 41  1  0  0  0  0
 39 40  1  1  0  0  0
 41 42  1  6  0  0  0
M  CHG  6  12   1  20   1  24   1  29   1  33   1  36   1
M  END
>  <CHROM.1>
56.52198101,-33.91449899,62.93848002,-87.11391663,-85.38165200,-129.17397639
41.17136765,57.44893869,69.07597054,-66.92919215,172.01016164,146.39126743
62.13878029,179.03208068,16.46034686,-177.83395173,-177.54764628,97.41199245
-53.97501212,-139.92357655,179.89261268,129.51620554,-2.56593974,-0.77496127
2.29272703,2.10583056,-0.39152708,2.59359611

>  <Name>
1NEM.B

>  <RI>
0

>  <Rbt.Current_Directory>
/home/itssahil/PROJECTS/Mol_Feturizer/New_Systems/rnas/1nem

>  <Rbt.Executable>
rbdock ($Id: //depot/dev/client3/rdock/2013.1/src/exe/rbdock.cxx#4 $)

>  <Rbt.Library>
libRbt.so (2013.1, Build901 2013/11/27)

>  <Rbt.Parameter_File>
/export/apps/rDock/src/rDock_2013.1_src/data/scripts/dock_solv.prm

>  <Rbt.Receptor>
prm/pocket_docking_8.prm

>  <SCORE>
-26.8048

>  <SCORE.INTER>
-45.1766

>  <SCORE.INTER.CONST>
1

>  <SCORE.INTER.POLAR>
-6.48471

>  <SCORE.INTER.ROT>
9

>  <SCORE.INTER.SOLV>
31.4863

>  <SCORE.INTER.VDW>
-28.5975

>  <SCORE.INTER.norm>
-1.07563

>  <SCORE.INTRA>
18.3718

>  <SCORE.INTRA.DIHEDRAL>
15.2792

>  <SCORE.INTRA.DIHEDRAL.0>
22.4324

>  <SCORE.INTRA.POLAR>
0.486239

>  <SCORE.INTRA.POLAR.0>
-1.83749

>  <SCORE.INTRA.REPUL>
0.050224

>  <SCORE.INTRA.REPUL.0>
0

>  <SCORE.INTRA.SOLV>
1.46579

>  <SCORE.INTRA.SOLV.lig_0>
-160.638

>  <SCORE.INTRA.VDW>
8.09496

>  <SCORE.INTRA.VDW.0>
-7.61953

>  <SCORE.INTRA.norm>
0.437424

>  <SCORE.RESTR>
0

>  <SCORE.RESTR.CAVITY>
0

>  <SCORE.RESTR.norm>
0

>  <SCORE.SYSTEM>
0

>  <SCORE.SYSTEM.CONST>
0

>  <SCORE.SYSTEM.DIHEDRAL>
0

>  <SCORE.SYSTEM.SOLV>
0

>  <SCORE.SYSTEM.norm>
0

>  <SCORE.heavy>
42

>  <SCORE.norm>
-0.63821

>  <RMSD>
8.688

$$$$
1NEM.B
 OpenBabel11021811403D
libRbt.so/2013.1/901 2013/11/27
 42 45  0  0  0  0  0  0  0  0999 V2000
   -5.1494   -4.1210   -0.5836 O   0  0  0  0  0  0  0  0  0  0  0  0
   -4.6298   -3.8361    0.7167 C   0  0  0  0  0  0  0  0  0  0  0  0
   -3.2798   -4.5015    0.9805 C   0  0  1  0  0  0  0  0  0  0  0  0
   -2.2118   -3.5983    0.7101 O   0  0  0  0  0  0  0  0  0  0  0  0
   -3.0399   -4.8976    2.4287 C   0  0  1  0  0  0  0  0  0  0  0  0
   -3.8735   -6.0257    2.7042 O   0  0  0  0  0  0  0  0  0  0  0  0
   -1.5473   -5.1604    2.3585 C   0  0  1  0  0  0  0  0  0  0  0  0
   -1.2409   -6.3391    1.6061 O   0  0  0  0  0  0  0  0  0  0  0  0
   -1.1225   -3.9106    1.5786 C   0  0  2  0  0  0  0  0  0  0  0  0
   -5.2535   -5.8064    2.6349 C   0  0  2  0  0  0  0  0  0  0  0  0
   -5.6010   -4.5228    3.4010 C   0  0  2  0  0  0  0  0  0  0  0  0
   -5.0526   -4.5879    4.7813 N   0  3  0  0  0  0  0  0  0  0  0  0
   -7.1141   -4.2821    3.4039 C   0  0  1  0  0  0  0  0  0  0  0  0
   -7.5415   -3.9124    2.0995 O   0  0  0  0  0  0  0  0  0  0  0  0
   -7.8721   -5.5336    3.8574 C   0  0  2  0  0  0  0  0  0  0  0  0
   -7.6298   -5.7854    5.2358 O   0  0  0  0  0  0  0  0  0  0  0  0
   -7.4291   -6.7324    3.0234 C   0  0  1  0  0  0  0  0  0  0  0  0
   -6.0033   -6.9039    3.1393 O   0  0  0  0  0  0  0  0  0  0  0  0
   -8.0931   -8.0321    3.4427 C   0  0  0  0  0  0  0  0  0  0  0  0
   -7.5904   -9.1856    2.6639 N   0  3  0  0  0  0  0  0  0  0  0  0
    2.4539   -2.8366    2.0391 C   0  0  0  0  0  0  0  0  0  0  0  0
   -0.0319   -0.4482    0.6814 C   0  0  2  0  0  0  0  0  0  0  0  0
    0.8268    0.3421   -0.3029 C   0  0  2  0  0  0  0  0  0  0  0  0
   -0.0327    1.0360   -1.2915 N   0  3  0  0  0  0  0  0  0  0  0  0
    1.7825   -0.5919   -1.0332 C   0  0  1  0  0  0  0  0  0  0  0  0
    2.6272    0.1640   -1.8873 O   0  0  0  0  0  0  0  0  0  0  0  0
    2.6193   -1.3642   -0.0158 C   0  0  2  0  0  0  0  0  0  0  0  0
    3.4655   -2.2887   -0.6874 O   0  0  0  0  0  0  0  0  0  0  0  0
    1.6396   -3.9152    2.6445 N   0  3  0  0  0  0  0  0  0  0  0  0
    1.6939   -2.1139    0.9406 C   0  0  2  0  0  0  0  0  0  0  0  0
    0.7881   -1.1914    1.5794 O   0  0  0  0  0  0  0  0  0  0  0  0
   -4.2333   -0.8650    2.6065 C   0  0  2  0  0  0  0  0  0  0  0  0
   -5.4991   -1.1632    3.3152 N   0  3  0  0  0  0  0  0  0  0  0  0
   -4.4802   -0.8012    1.1035 C   0  0  0  0  0  0  0  0  0  0  0  0
   -3.1862   -0.4973    0.3615 C   0  0  2  0  0  0  0  0  0  0  0  0
   -3.4892   -0.4487   -1.0619 N   0  3  0  0  0  0  0  0  0  0  0  0
   -2.1515   -1.5794    0.6613 C   0  0  1  0  0  0  0  0  0  0  0  0
   -0.9212   -1.2695   -0.0219 O   0  0  0  0  0  0  0  0  0  0  0  0
   -1.8868   -1.6766    2.1702 C   0  0  2  0  0  0  0  0  0  0  0  0
   -0.9884   -2.7726    2.4273 O   0  0  0  0  0  0  0  0  0  0  0  0
   -3.1778   -1.9149    2.9494 C   0  0  1  0  0  0  0  0  0  0  0  0
   -2.9047   -1.8738    4.3438 O   0  0  0  0  0  0  0  0  0  0  0  0
  1  2  1  0  0  0  0
  3  2  1  1  0  0  0
  3  5  1  0  0  0  0
  3  4  1  0  0  0  0
  4  9  1  0  0  0  0
  5  7  1  0  0  0  0
  5  6  1  6  0  0  0
  7  9  1  0  0  0  0
  7  8  1  6  0  0  0
  9 40  1  1  0  0  0
 10  6  1  1  0  0  0
 10 11  1  0  0  0  0
 10 18  1  0  0  0  0
 11 13  1  0  0  0  0
 11 12  1  1  0  0  0
 13 15  1  0  0  0  0
 13 14  1  6  0  0  0
 15 17  1  0  0  0  0
 15 16  1  1  0  0  0
 17 19  1  1  0  0  0
 17 18  1  0  0  0  0
 19 20  1  0  0  0  0
 21 29  1  0  0  0  0
 22 23  1  0  0  0  0
 22 31  1  0  0  0  0
 22 38  1  6  0  0  0
 23 25  1  0  0  0  0
 23 24  1  6  0  0  0
 25 27  1  0  0  0  0
 25 26  1  6  0  0  0
 27 30  1  0  0  0  0
 27 28  1  6  0  0  0
 30 21  1  1  0  0  0
 30 31  1  0  0  0  0
 32 34  1  0  0  0  0
 32 41  1  0  0  0  0
 32 33  1  1  0  0  0
 34 35  1  0  0  0  0
 35 37  1  0  0  0  0
 35 36  1  6  0  0  0
 37 39  1  0  0  0  0
 37 38  1  6  0  0  0
 39 41  1  0  0  0  0
 39 40  1  6  0  0  0
 41 42  1  1  0  0  0
M  CHG  6  12   1  20   1  24   1  29   1  33   1  36   1
M  END
>  <CHROM.1>
-68.11359693,95.85642170,-64.03875891,-46.99638830,-170.77436470,-2.00743292
177.29340775,64.39824654,59.17325859,-176.98474103,-4.84539554,-159.72090598
-68.36498583,-152.25741020,57.33040159,-171.33241893,58.13608034,-131.81885987
143.75024464,87.98291583,-34.51559676,62.30969761,-2.77529557,-3.25237422
1.70017152,2.51845067,-0.17125807,2.78658897

>  <Name>
1NEM.B

>  <RI>
0

>  <Rbt.Current_Directory>
/home/itssahil/PROJECTS/Mol_Feturizer/New_Systems/rnas/1nem

>  <Rbt.Executable>
rbdock ($Id: //depot/dev/client3/rdock/2013.1/src/exe/rbdock.cxx#4 $)

>  <Rbt.Library>
libRbt.so (2013.1, Build901 2013/11/27)

>  <Rbt.Parameter_File>
/export/apps/rDock/src/rDock_2013.1_src/data/scripts/dock_solv.prm

>  <Rbt.Receptor>
prm/blind_docking_60.prm

>  <SCORE>
15.848

>  <SCORE.INTER>
-33.2055

>  <SCORE.INTER.CONST>
1

>  <SCORE.INTER.POLAR>
-5.67352

>  <SCORE.INTER.ROT>
9

>  <SCORE.INTER.SOLV>
37.0541

>  <SCORE.INTER.VDW>
-25.1766

>  <SCORE.INTER.norm>
-0.790607

>  <SCORE.INTRA>
38.7556

>  <SCORE.INTRA.DIHEDRAL>
10.9116

>  <SCORE.INTRA.DIHEDRAL.0>
22.4324

>  <SCORE.INTRA.POLAR>
0.87647

>  <SCORE.INTRA.POLAR.0>
-1.83749

>  <SCORE.INTRA.REPUL>
0

>  <SCORE.INTRA.REPUL.0>
0

>  <SCORE.INTRA.SOLV>
8.66154

>  <SCORE.INTRA.SOLV.lig_0>
-160.638

>  <SCORE.INTRA.VDW>
25.989

>  <SCORE.INTRA.VDW.0>
-7.61953

>  <SCORE.INTRA.norm>
0.922752

>  <SCORE.RESTR>
10.2979

>  <SCORE.RESTR.CAVITY>
10.2979

>  <SCORE.RESTR.norm>
0.245188

>  <SCORE.SYSTEM>
0

>  <SCORE.SYSTEM.CONST>
0

>  <SCORE.SYSTEM.DIHEDRAL>
0

>  <SCORE.SYSTEM.SOLV>
0

>  <SCORE.SYSTEM.norm>
0

>  <SCORE.heavy>
42

>  <SCORE.norm>
0.377333

>  <RMSD>
8.689

$$$$
1NEM.B
 OpenBabel11021811403D
libRbt.so/2013.1/901 2013/11/27
 42 45  0  0  0  0  0  0  0  0999 V2000
   -4.7878    1.1646    1.1906 O   0  0  0  0  0  0  0  0  0  0  0  0
   -3.3752    1.1510    0.9746 C   0  0  0  0  0  0  0  0  0  0  0  0
   -2.8478   -0.2193    0.5516 C   0  0  1  0  0  0  0  0  0  0  0  0
   -1.4421   -0.1702    0.3261 O   0  0  0  0  0  0  0  0  0  0  0  0
   -2.9918   -1.3070    1.6041 C   0  0  1  0  0  0  0  0  0  0  0  0
   -4.3789   -1.6439    1.6798 O   0  0  0  0  0  0  0  0  0  0  0  0
   -2.0746   -2.3503    0.9940 C   0  0  1  0  0  0  0  0  0  0  0  0
   -2.6252   -2.9242   -0.1963 O   0  0  0  0  0  0  0  0  0  0  0  0
   -0.8866   -1.4465    0.6439 C   0  0  2  0  0  0  0  0  0  0  0  0
   -4.6933   -2.8177    2.3730 C   0  0  2  0  0  0  0  0  0  0  0  0
   -6.1890   -3.1185    2.2066 C   0  0  2  0  0  0  0  0  0  0  0  0
   -6.9949   -1.9324    2.5993 N   0  3  0  0  0  0  0  0  0  0  0  0
   -6.5872   -4.3633    3.0062 C   0  0  1  0  0  0  0  0  0  0  0  0
   -6.0349   -5.5212    2.3940 O   0  0  0  0  0  0  0  0  0  0  0  0
   -6.1021   -4.2677    4.4560 C   0  0  2  0  0  0  0  0  0  0  0  0
   -6.8169   -3.2531    5.1502 O   0  0  0  0  0  0  0  0  0  0  0  0
   -4.6076   -3.9595    4.4779 C   0  0  1  0  0  0  0  0  0  0  0  0
   -4.3525   -2.7419    3.7511 O   0  0  0  0  0  0  0  0  0  0  0  0
   -4.0507   -3.7933    5.8809 C   0  0  0  0  0  0  0  0  0  0  0  0
   -4.5680   -2.5733    6.5396 N   0  3  0  0  0  0  0  0  0  0  0  0
    1.9842   -0.3670   -1.3461 C   0  0  0  0  0  0  0  0  0  0  0  0
    3.3632    0.3470    2.0178 C   0  0  2  0  0  0  0  0  0  0  0  0
    3.4898    1.8677    1.9670 C   0  0  2  0  0  0  0  0  0  0  0  0
    3.5804    2.4212    3.3392 N   0  3  0  0  0  0  0  0  0  0  0  0
    2.2846    2.4712    1.2583 C   0  0  1  0  0  0  0  0  0  0  0  0
    2.4512    3.8765    1.1488 O   0  0  0  0  0  0  0  0  0  0  0  0
    2.1434    1.8493   -0.1292 C   0  0  2  0  0  0  0  0  0  0  0  0
    0.9804    2.3567   -0.7707 O   0  0  0  0  0  0  0  0  0  0  0  0
    3.3154   -0.8760   -1.7485 N   0  3  0  0  0  0  0  0  0  0  0  0
    2.0383    0.3310    0.0017 C   0  0  2  0  0  0  0  0  0  0  0  0
    3.1841   -0.1863    0.7084 O   0  0  0  0  0  0  0  0  0  0  0  0
    2.3193   -4.1449    1.9028 C   0  0  2  0  0  0  0  0  0  0  0  0
    2.0597   -5.6005    1.9876 N   0  3  0  0  0  0  0  0  0  0  0  0
    3.1004   -3.6827    3.1276 C   0  0  0  0  0  0  0  0  0  0  0  0
    3.3727   -2.1867    3.0551 C   0  0  2  0  0  0  0  0  0  0  0  0
    4.1194   -1.8110    4.2474 N   0  3  0  0  0  0  0  0  0  0  0  0
    2.0525   -1.4238    2.9764 C   0  0  1  0  0  0  0  0  0  0  0  0
    2.3196   -0.0111    2.8796 O   0  0  0  0  0  0  0  0  0  0  0  0
    1.2356   -1.8735    1.7571 C   0  0  2  0  0  0  0  0  0  0  0  0
   -0.0443   -1.2129    1.7705 O   0  0  0  0  0  0  0  0  0  0  0  0
    1.0025   -3.3822    1.7666 C   0  0  1  0  0  0  0  0  0  0  0  0
    0.3534   -3.7695    0.5627 O   0  0  0  0  0  0  0  0  0  0  0  0
  1  2  1  0  0  0  0
  3  2  1  1  0  0  0
  3  5  1  0  0  0  0
  3  4  1  0  0  0  0
  4  9  1  0  0  0  0
  5  7  1  0  0  0  0
  5  6  1  6  0  0  0
  7  9  1  0  0  0  0
  7  8  1  6  0  0  0
  9 40  1  1  0  0  0
 10  6  1  6  0  0  0
 10 11  1  0  0  0  0
 10 18  1  0  0  0  0
 11 13  1  0  0  0  0
 11 12  1  1  0  0  0
 13 15  1  0  0  0  0
 13 14  1  6  0  0  0
 15 17  1  0  0  0  0
 15 16  1  1  0  0  0
 17 19  1  1  0  0  0
 17 18  1  0  0  0  0
 19 20  1  0  0  0  0
 21 29  1  0  0  0  0
 22 23  1  0  0  0  0
 22 31  1  0  0  0  0
 22 38  1  1  0  0  0
 23 25  1  0  0  0  0
 23 24  1  1  0  0  0
 25 27  1  0  0  0  0
 25 26  1  6  0  0  0
 27 30  1  0  0  0  0
 27 28  1  1  0  0  0
 30 21  1  6  0  0  0
 30 31  1  0  0  0  0
 32 34  1  0  0  0  0
 32 41  1  0  0  0  0
 32 33  1  1  0  0  0
 34 35  1  0  0  0  0
 35 37  1  0  0  0  0
 35 36  1  1  0  0  0
 37 39  1  0  0  0  0
 37 38  1  6  0  0  0
 39 41  1  0  0  0  0
 39 40  1  1  0  0  0
 41 42  1  6  0  0  0
M  CHG  6  12   1  20   1  24   1  29   1  33   1  36   1
M  END
>  <CHROM.1>
-160.84027703,178.91610834,166.60986754,-172.94786367,163.11505493,-137.53181812
82.06056212,65.57275098,54.12278076,-68.19030372,-83.17956109,97.74981892
34.32844863,177.44782832,-166.08994884,-60.76876666,49.17945443,69.83622859
74.23873850,42.41841955,175.35651763,-27.56440986,-0.86892240,-1.43606106
1.98385266,2.68780335,-0.04472951,2.67595639

>  <Name>
1NEM.B

>  <RI>
0

>  <Rbt.Current_Directory>
/home/itssahil/PROJECTS/Mol_Feturizer/New_Systems/rnas/1nem

>  <Rbt.Executable>
rbdock ($Id: //depot/dev/client3/rdock/2013.1/src/exe/rbdock.cxx#4 $)

>  <Rbt.Library>
libRbt.so (2013.1, Build901 2013/11/27)

>  <Rbt.Parameter_File>
/export/apps/rDock/src/rDock_2013.1_src/data/scripts/dock_solv.prm

>  <Rbt.Receptor>
prm/blind_docking_100.prm

>  <SCORE>
-25.0945

>  <SCORE.INTER>
-45.7178

>  <SCORE.INTER.CONST>
1

>  <SCORE.INTER.POLAR>
-9.47804

>  <SCORE.INTER.ROT>
9

>  <SCORE.INTER.SOLV>
48.6056

>  <SCORE.INTER.VDW>
-24.6869

>  <SCORE.INTER.norm>
-1.08852

>  <SCORE.INTRA>
10.5675

>  <SCORE.INTRA.DIHEDRAL>
3.27676

>  <SCORE.INTRA.DIHEDRAL.0>
22.4324

>  <SCORE.INTRA.POLAR>
0.620406

>  <SCORE.INTRA.POLAR.0>
-1.83749

>  <SCORE.INTRA.REPUL>
0.248428

>  <SCORE.INTRA.REPUL.0>
0

>  <SCORE.INTRA.SOLV>
-2.10691

>  <SCORE.INTRA.SOLV.lig_0>
-160.638

>  <SCORE.INTRA.VDW>
6.63101

>  <SCORE.INTRA.VDW.0>
-7.61953

>  <SCORE.INTRA.norm>
0.251606

>  <SCORE.RESTR>
10.0558

>  <SCORE.RESTR.CAVITY>
10.0558

>  <SCORE.RESTR.norm>
0.239423

>  <SCORE.SYSTEM>
0

>  <SCORE.SYSTEM.CONST>
0

>  <SCORE.SYSTEM.DIHEDRAL>
0

>  <SCORE.SYSTEM.SOLV>
0

>  <SCORE.SYSTEM.norm>
0

>  <SCORE.heavy>
42

>  <SCORE.norm>
-0.597489

>  <RMSD>
8.702

$$$$
1NEM.B
 OpenBabel11021811403D
libRbt.so/2013.1/901 2013/11/27
 42 45  0  0  0  0  0  0  0  0999 V2000
   -5.7966    0.3240    3.1719 O   0  0  0  0  0  0  0  0  0  0  0  0
   -5.1690   -0.9427    2.9628 C   0  0  0  0  0  0  0  0  0  0  0  0
   -4.5980   -1.1023    1.5546 C   0  0  1  0  0  0  0  0  0  0  0  0
   -3.6075   -0.1111    1.2976 O   0  0  0  0  0  0  0  0  0  0  0  0
   -3.8531   -2.4061    1.3161 C   0  0  1  0  0  0  0  0  0  0  0  0
   -4.8298   -3.4478    1.2525 O   0  0  0  0  0  0  0  0  0  0  0  0
   -3.1598   -2.0485    0.0148 C   0  0  1  0  0  0  0  0  0  0  0  0
   -4.0788   -1.9522   -1.0785 O   0  0  0  0  0  0  0  0  0  0  0  0
   -2.6440   -0.6557    0.3955 C   0  0  2  0  0  0  0  0  0  0  0  0
   -4.8990   -4.2992    2.3605 C   0  0  2  0  0  0  0  0  0  0  0  0
   -6.3339   -4.8236    2.5070 C   0  0  2  0  0  0  0  0  0  0  0  0
   -7.2919   -3.6871    2.5382 N   0  3  0  0  0  0  0  0  0  0  0  0
   -6.4664   -5.7099    3.7497 C   0  0  1  0  0  0  0  0  0  0  0  0
   -5.7781   -6.9355    3.5378 O   0  0  0  0  0  0  0  0  0  0  0  0
   -5.9013   -5.0110    4.9901 C   0  0  2  0  0  0  0  0  0  0  0  0
   -6.7204   -3.9059    5.3504 O   0  0  0  0  0  0  0  0  0  0  0  0
   -4.4792   -4.5349    4.7078 C   0  0  1  0  0  0  0  0  0  0  0  0
   -4.4778   -3.6635    3.5604 O   0  0  0  0  0  0  0  0  0  0  0  0
   -3.8583   -3.7802    5.8701 C   0  0  0  0  0  0  0  0  0  0  0  0
   -3.1705   -4.6887    6.8143 N   0  3  0  0  0  0  0  0  0  0  0  0
    0.7133    4.4923    2.0517 C   0  0  0  0  0  0  0  0  0  0  0  0
   -1.0982    1.8715    0.1604 C   0  0  2  0  0  0  0  0  0  0  0  0
   -1.8943    2.7197   -0.8285 C   0  0  2  0  0  0  0  0  0  0  0  0
   -2.3325    1.8922   -1.9777 N   0  3  0  0  0  0  0  0  0  0  0  0
   -1.0408    3.8747   -1.3351 C   0  0  1  0  0  0  0  0  0  0  0  0
   -1.8156    4.6988   -2.1924 O   0  0  0  0  0  0  0  0  0  0  0  0
   -0.5254    4.6875   -0.1495 C   0  0  2  0  0  0  0  0  0  0  0  0
    0.3287    5.7267   -0.6101 O   0  0  0  0  0  0  0  0  0  0  0  0
   -0.2299    4.2981    3.1768 N   0  3  0  0  0  0  0  0  0  0  0  0
    0.2440    3.7713    0.8000 C   0  0  2  0  0  0  0  0  0  0  0  0
   -0.5954    2.6776    1.2227 O   0  0  0  0  0  0  0  0  0  0  0  0
    1.8472   -2.4583    0.4886 C   0  0  2  0  0  0  0  0  0  0  0  0
    2.5772   -3.4847    1.2676 N   0  3  0  0  0  0  0  0  0  0  0  0
    2.6918   -1.1946    0.3715 C   0  0  0  0  0  0  0  0  0  0  0  0
    1.9524   -0.1291   -0.4256 C   0  0  2  0  0  0  0  0  0  0  0  0
    2.8093    1.0456   -0.5019 N   0  3  0  0  0  0  0  0  0  0  0  0
    0.6298    0.2052    0.2602 C   0  0  1  0  0  0  0  0  0  0  0  0
   -0.0765    1.1933   -0.5151 O   0  0  0  0  0  0  0  0  0  0  0  0
   -0.2420   -1.0501    0.4031 C   0  0  2  0  0  0  0  0  0  0  0  0
   -1.4325   -0.7221    1.1446 O   0  0  0  0  0  0  0  0  0  0  0  0
    0.4978   -2.1628    1.1414 C   0  0  1  0  0  0  0  0  0  0  0  0
   -0.2964   -3.3417    1.1413 O   0  0  0  0  0  0  0  0  0  0  0  0
  1  2  1  0  0  0  0
  3  2  1  1  0  0  0
  3  5  1  0  0  0  0
  3  4  1  0  0  0  0
  4  9  1  0  0  0  0
  5  7  1  0  0  0  0
  5  6  1  6  0  0  0
  7  9  1  0  0  0  0
  7  8  1  6  0  0  0
  9 40  1  1  0  0  0
 10  6  1  6  0  0  0
 10 11  1  0  0  0  0
 10 18  1  0  0  0  0
 11 13  1  0  0  0  0
 11 12  1  1  0  0  0
 13 15  1  0  0  0  0
 13 14  1  6  0  0  0
 15 17  1  0  0  0  0
 15 16  1  6  0  0  0
 17 19  1  1  0  0  0
 17 18  1  0  0  0  0
 19 20  1  0  0  0  0
 21 29  1  0  0  0  0
 22 23  1  0  0  0  0
 22 31  1  0  0  0  0
 22 38  1  6  0  0  0
 23 25  1  0  0  0  0
 23 24  1  6  0  0  0
 25 27  1  0  0  0  0
 25 26  1  6  0  0  0
 27 30  1  0  0  0  0
 27 28  1  6  0  0  0
 30 21  1  1  0  0  0
 30 31  1  0  0  0  0
 32 34  1  0  0  0  0
 32 41  1  0  0  0  0
 32 33  1  1  0  0  0
 34 35  1  0  0  0  0
 35 37  1  0  0  0  0
 35 36  1  1  0  0  0
 37 39  1  0  0  0  0
 37 38  1  6  0  0  0
 39 41  1  0  0  0  0
 39 40  1  1  0  0  0
 41 42  1  6  0  0  0
M  CHG  6  12   1  20   1  24   1  29   1  33   1  36   1
M  END
>  <CHROM.1>
-162.31271134,60.53153522,-106.41512758,150.61596463,81.38484400,-170.85743615
95.50456941,-51.65106218,-74.86299313,88.41095816,179.77807834,95.97213948
144.16882574,-171.25238522,177.75485420,66.14076066,-172.03669966,91.21450273
-177.61550049,-162.46429380,107.11394850,173.36108002,-2.26877632,-0.81251803
1.49321064,2.17858833,-0.22812989,2.80042439

>  <Name>
1NEM.B

>  <RI>
0

>  <Rbt.Current_Directory>
/home/itssahil/PROJECTS/Mol_Feturizer/New_Systems/rnas/1nem

>  <Rbt.Executable>
rbdock ($Id: //depot/dev/client3/rdock/2013.1/src/exe/rbdock.cxx#4 $)

>  <Rbt.Library>
libRbt.so (2013.1, Build901 2013/11/27)

>  <Rbt.Parameter_File>
/export/apps/rDock/src/rDock_2013.1_src/data/scripts/dock_solv.prm

>  <Rbt.Receptor>
prm/pocket_docking_5.prm

>  <SCORE>
-35.0849

>  <SCORE.INTER>
-48.7752

>  <SCORE.INTER.CONST>
1

>  <SCORE.INTER.POLAR>
-7.19298

>  <SCORE.INTER.ROT>
9

>  <SCORE.INTER.SOLV>
38.341

>  <SCORE.INTER.VDW>
-30.9206

>  <SCORE.INTER.norm>
-1.16131

>  <SCORE.INTRA>
13.5639

>  <SCORE.INTRA.DIHEDRAL>
14.0819

>  <SCORE.INTRA.DIHEDRAL.0>
22.4324

>  <SCORE.INTRA.POLAR>
1.48965

>  <SCORE.INTRA.POLAR.0>
-1.83749

>  <SCORE.INTRA.REPUL>
0

>  <SCORE.INTRA.REPUL.0>
0

>  <SCORE.INTRA.SOLV>
-5.9409

>  <SCORE.INTRA.SOLV.lig_0>
-160.638

>  <SCORE.INTRA.VDW>
4.42863

>  <SCORE.INTRA.VDW.0>
-7.61953

>  <SCORE.INTRA.norm>
0.322951

>  <SCORE.RESTR>
0.126352

>  <SCORE.RESTR.CAVITY>
0.126352

>  <SCORE.RESTR.norm>
0.00300838

>  <SCORE.SYSTEM>
0

>  <SCORE.SYSTEM.CONST>
0

>  <SCORE.SYSTEM.DIHEDRAL>
0

>  <SCORE.SYSTEM.SOLV>
0

>  <SCORE.SYSTEM.norm>
0

>  <SCORE.heavy>
42

>  <SCORE.norm>
-0.835355

>  <RMSD>
8.705

$$$$
1NEM.B
 OpenBabel11021811403D
libRbt.so/2013.1/901 2013/11/27
 42 45  0  0  0  0  0  0  0  0999 V2000
    2.3327    0.9015   -3.0251 O   0  0  0  0  0  0  0  0  0  0  0  0
    1.2520    0.4186   -2.2245 C   0  0  0  0  0  0  0  0  0  0  0  0
    1.6940   -0.5986   -1.1735 C   0  0  1  0  0  0  0  0  0  0  0  0
    3.0899   -0.4805   -0.9143 O   0  0  0  0  0  0  0  0  0  0  0  0
    1.0694   -0.4047    0.1991 C   0  0  1  0  0  0  0  0  0  0  0  0
   -0.3001   -0.8027    0.1026 O   0  0  0  0  0  0  0  0  0  0  0  0
    1.9819   -1.3103    1.0049 C   0  0  1  0  0  0  0  0  0  0  0  0
    1.7721   -2.6941    0.7047 O   0  0  0  0  0  0  0  0  0  0  0  0
    3.3317   -0.8468    0.4444 C   0  0  2  0  0  0  0  0  0  0  0  0
   -1.2507    0.2150    0.2359 C   0  0  2  0  0  0  0  0  0  0  0  0
   -2.6479   -0.4094    0.3508 C   0  0  2  0  0  0  0  0  0  0  0  0
   -2.8879   -1.3360   -0.7867 N   0  3  0  0  0  0  0  0  0  0  0  0
   -3.7255    0.6766    0.4333 C   0  0  1  0  0  0  0  0  0  0  0  0
   -3.6465    1.3333    1.6915 O   0  0  0  0  0  0  0  0  0  0  0  0
   -3.5640    1.7023   -0.6928 C   0  0  2  0  0  0  0  0  0  0  0  0
   -3.8660    1.1084   -1.9490 O   0  0  0  0  0  0  0  0  0  0  0  0
   -2.1345    2.2363   -0.6996 C   0  0  1  0  0  0  0  0  0  0  0  0
   -1.2082    1.1418   -0.8413 O   0  0  0  0  0  0  0  0  0  0  0  0
   -1.8689    3.2234   -1.8226 C   0  0  0  0  0  0  0  0  0  0  0  0
   -2.7955    4.3762   -1.7754 N   0  3  0  0  0  0  0  0  0  0  0  0
    5.5735    3.7365    2.9274 C   0  0  0  0  0  0  0  0  0  0  0  0
    7.2546    0.4357    2.8528 C   0  0  2  0  0  0  0  0  0  0  0  0
    7.3044    0.0973    4.3407 C   0  0  2  0  0  0  0  0  0  0  0  0
    7.5090   -1.3587    4.5293 N   0  3  0  0  0  0  0  0  0  0  0  0
    6.0061    0.5160    5.0178 C   0  0  1  0  0  0  0  0  0  0  0  0
    6.0950    0.2676    6.4124 O   0  0  0  0  0  0  0  0  0  0  0  0
    5.7528    2.0003    4.7635 C   0  0  2  0  0  0  0  0  0  0  0  0
    4.5079    2.3832    5.3337 O   0  0  0  0  0  0  0  0  0  0  0  0
    5.3239    3.9448    1.4826 N   0  3  0  0  0  0  0  0  0  0  0  0
    5.7326    2.2630    3.2589 C   0  0  2  0  0  0  0  0  0  0  0  0
    6.9675    1.8185    2.6613 O   0  0  0  0  0  0  0  0  0  0  0  0
    6.2020    1.6791   -1.4960 C   0  0  2  0  0  0  0  0  0  0  0  0
    6.0338    1.9435   -2.9435 N   0  3  0  0  0  0  0  0  0  0  0  0
    7.2825    0.6254   -1.2809 C   0  0  0  0  0  0  0  0  0  0  0  0
    7.4648    0.3417    0.2035 C   0  0  2  0  0  0  0  0  0  0  0  0
    8.5063   -0.6667    0.3402 N   0  3  0  0  0  0  0  0  0  0  0  0
    6.1489   -0.1501    0.8017 C   0  0  1  0  0  0  0  0  0  0  0  0
    6.3225   -0.3893    2.2121 O   0  0  0  0  0  0  0  0  0  0  0  0
    5.0352    0.8855    0.5930 C   0  0  2  0  0  0  0  0  0  0  0  0
    3.7882    0.3484    1.0738 O   0  0  0  0  0  0  0  0  0  0  0  0
    4.8729    1.2414   -0.8827 C   0  0  1  0  0  0  0  0  0  0  0  0
    3.9220    2.2894   -1.0160 O   0  0  0  0  0  0  0  0  0  0  0  0
  1  2  1  0  0  0  0
  3  2  1  6  0  0  0
  3  5  1  0  0  0  0
  3  4  1  0  0  0  0
  4  9  1  0  0  0  0
  5  7  1  0  0  0  0
  5  6  1  6  0  0  0
  7  9  1  0  0  0  0
  7  8  1  6  0  0  0
  9 40  1  1  0  0  0
 10  6  1  6  0  0  0
 10 11  1  0  0  0  0
 10 18  1  0  0  0  0
 11 13  1  0  0  0  0
 11 12  1  6  0  0  0
 13 15  1  0  0  0  0
 13 14  1  1  0  0  0
 15 17  1  0  0  0  0
 15 16  1  6  0  0  0
 17 19  1  6  0  0  0
 17 18  1  0  0  0  0
 19 20  1  0  0  0  0
 21 29  1  0  0  0  0
 22 23  1  0  0  0  0
 22 31  1  0  0  0  0
 22 38  1  6  0  0  0
 23 25  1  0  0  0  0
 23 24  1  6  0  0  0
 25 27  1  0  0  0  0
 25 26  1  1  0  0  0
 27 30  1  0  0  0  0
 27 28  1  6  0  0  0
 30 21  1  1  0  0  0
 30 31  1  0  0  0  0
 32 34  1  0  0  0  0
 32 41  1  0  0  0  0
 32 33  1  6  0  0  0
 34 35  1  0  0  0  0
 35 37  1  0  0  0  0
 35 36  1  6  0  0  0
 37 39  1  0  0  0  0
 37 38  1  1  0  0  0
 39 41  1  0  0  0  0
 39 40  1  6  0  0  0
 41 42  1  1  0  0  0
M  CHG  6  12   1  20   1  24   1  29   1  33   1  36   1
M  END
>  <CHROM.1>
54.91424648,20.65039867,-112.41515974,-170.29569382,67.30031474,-63.87654384
-76.58438402,51.74330080,-173.32010193,57.23554819,60.24223836,-170.23762479
-63.01350219,178.42081558,-126.31687166,-170.05819074,-59.75583055,-45.50697783
78.74195488,31.24989669,-60.26651479,-47.23527166,2.84371350,0.78602211,0.70660484
-2.77865562,-0.00643119,1.63955349

>  <Name>
1NEM.B

>  <RI>
0

>  <Rbt.Current_Directory>
/home/itssahil/PROJECTS/Mol_Feturizer/New_Systems/rnas/1nem

>  <Rbt.Executable>
rbdock ($Id: //depot/dev/client3/rdock/2013.1/src/exe/rbdock.cxx#4 $)

>  <Rbt.Library>
libRbt.so (2013.1, Build901 2013/11/27)

>  <Rbt.Parameter_File>
/export/apps/rDock/src/rDock_2013.1_src/data/scripts/dock_solv.prm

>  <Rbt.Receptor>
prm/pocket_docking_6.prm

>  <SCORE>
-27.7965

>  <SCORE.INTER>
-39.5865

>  <SCORE.INTER.CONST>
1

>  <SCORE.INTER.POLAR>
-6.11059

>  <SCORE.INTER.ROT>
9

>  <SCORE.INTER.SOLV>
35.9471

>  <SCORE.INTER.VDW>
-27.6047

>  <SCORE.INTER.norm>
-0.942535

>  <SCORE.INTRA>
11.79

>  <SCORE.INTRA.DIHEDRAL>
0.520562

>  <SCORE.INTRA.DIHEDRAL.0>
22.4324

>  <SCORE.INTRA.POLAR>
0.896853

>  <SCORE.INTRA.POLAR.0>
-1.83749

>  <SCORE.INTRA.REPUL>
0.0138131

>  <SCORE.INTRA.REPUL.0>
0

>  <SCORE.INTRA.SOLV>
-0.507435

>  <SCORE.INTRA.SOLV.lig_0>
-160.638

>  <SCORE.INTRA.VDW>
8.66502

>  <SCORE.INTRA.VDW.0>
-7.61953

>  <SCORE.INTRA.norm>
0.280713

>  <SCORE.RESTR>
0

>  <SCORE.RESTR.CAVITY>
0

>  <SCORE.RESTR.norm>
0

>  <SCORE.SYSTEM>
0

>  <SCORE.SYSTEM.CONST>
0

>  <SCORE.SYSTEM.DIHEDRAL>
0

>  <SCORE.SYSTEM.SOLV>
0

>  <SCORE.SYSTEM.norm>
0

>  <SCORE.heavy>
42

>  <SCORE.norm>
-0.661822

>  <RMSD>
8.759

$$$$
1NEM.B
 OpenBabel11021811403D
libRbt.so/2013.1/901 2013/11/27
 42 45  0  0  0  0  0  0  0  0999 V2000
   -3.9894    1.9883    1.7409 O   0  0  0  0  0  0  0  0  0  0  0  0
   -3.3430    0.7930    1.2988 C   0  0  0  0  0  0  0  0  0  0  0  0
   -2.3078    1.0428    0.2030 C   0  0  1  0  0  0  0  0  0  0  0  0
   -1.6988    2.3201    0.3674 O   0  0  0  0  0  0  0  0  0  0  0  0
   -1.1234    0.0898    0.2200 C   0  0  1  0  0  0  0  0  0  0  0  0
   -1.5934   -1.1801   -0.2379 O   0  0  0  0  0  0  0  0  0  0  0  0
   -0.1974    0.8455   -0.7145 C   0  0  1  0  0  0  0  0  0  0  0  0
   -0.6602    0.8225   -2.0689 O   0  0  0  0  0  0  0  0  0  0  0  0
   -0.3602    2.2513   -0.1245 C   0  0  2  0  0  0  0  0  0  0  0  0
   -2.3617   -1.9187    0.6684 C   0  0  2  0  0  0  0  0  0  0  0  0
   -1.4550   -2.9100    1.4104 C   0  0  2  0  0  0  0  0  0  0  0  0
   -0.6895   -3.7301    0.4348 N   0  3  0  0  0  0  0  0  0  0  0  0
   -2.2713   -3.7846    2.3676 C   0  0  1  0  0  0  0  0  0  0  0  0
   -2.7242   -2.9998    3.4629 O   0  0  0  0  0  0  0  0  0  0  0  0
   -3.4724   -4.4128    1.6542 C   0  0  2  0  0  0  0  0  0  0  0  0
   -3.0344   -5.3768    0.7050 O   0  0  0  0  0  0  0  0  0  0  0  0
   -4.2814   -3.3239    0.9551 C   0  0  1  0  0  0  0  0  0  0  0  0
   -3.4352   -2.6045    0.0372 O   0  0  0  0  0  0  0  0  0  0  0  0
   -5.4658   -3.8655    0.1743 C   0  0  0  0  0  0  0  0  0  0  0  0
   -5.7982   -3.0119   -0.9880 N   0  3  0  0  0  0  0  0  0  0  0  0
    1.9540    1.7174   -2.8625 C   0  0  0  0  0  0  0  0  0  0  0  0
    2.9579    4.7095   -0.9217 C   0  0  2  0  0  0  0  0  0  0  0  0
    2.4012    5.8289   -1.7980 C   0  0  2  0  0  0  0  0  0  0  0  0
    2.2717    7.0794   -1.0125 N   0  3  0  0  0  0  0  0  0  0  0  0
    1.0368    5.4353   -2.3482 C   0  0  1  0  0  0  0  0  0  0  0  0
    0.5653    6.4495   -3.2221 O   0  0  0  0  0  0  0  0  0  0  0  0
    1.1506    4.1087   -3.0958 C   0  0  2  0  0  0  0  0  0  0  0  0
   -0.1320    3.6996   -3.5532 O   0  0  0  0  0  0  0  0  0  0  0  0
    3.2174    1.7184   -3.6351 N   0  3  0  0  0  0  0  0  0  0  0  0
    1.7276    3.0461   -2.1624 C   0  0  2  0  0  0  0  0  0  0  0  0
    3.0005    3.4809   -1.6427 O   0  0  0  0  0  0  0  0  0  0  0  0
    3.8701    0.9666    1.6663 C   0  0  2  0  0  0  0  0  0  0  0  0
    4.3059   -0.1034    2.5928 N   0  3  0  0  0  0  0  0  0  0  0  0
    4.5647    2.2768    2.0198 C   0  0  0  0  0  0  0  0  0  0  0  0
    4.1243    3.3872    1.0762 C   0  0  2  0  0  0  0  0  0  0  0  0
    4.8215    4.6051    1.4646 N   0  3  0  0  0  0  0  0  0  0  0  0
    2.6115    3.5733    1.1668 C   0  0  1  0  0  0  0  0  0  0  0  0
    2.1993    4.6061    0.2504 O   0  0  0  0  0  0  0  0  0  0  0  0
    1.8808    2.2671    0.8257 C   0  0  2  0  0  0  0  0  0  0  0  0
    0.4653    2.4473    1.0216 O   0  0  0  0  0  0  0  0  0  0  0  0
    2.3504    1.1165    1.7125 C   0  0  1  0  0  0  0  0  0  0  0  0
    1.7419   -0.0935    1.2812 O   0  0  0  0  0  0  0  0  0  0  0  0
  1  2  1  0  0  0  0
  3  2  1  1  0  0  0
  3  5  1  0  0  0  0
  3  4  1  0  0  0  0
  4  9  1  0  0  0  0
  5  7  1  0  0  0  0
  5  6  1  6  0  0  0
  7  9  1  0  0  0  0
  7  8  1  6  0  0  0
  9 40  1  1  0  0  0
 10  6  1  6  0  0  0
 10 11  1  0  0  0  0
 10 18  1  0  0  0  0
 11 13  1  0  0  0  0
 11 12  1  6  0  0  0
 13 15  1  0  0  0  0
 13 14  1  1  0  0  0
 15 17  1  0  0  0  0
 15 16  1  6  0  0  0
 17 19  1  6  0  0  0
 17 18  1  0  0  0  0
 19 20  1  0  0  0  0
 21 29  1  0  0  0  0
 22 23  1  0  0  0  0
 22 31  1  0  0  0  0
 22 38  1  1  0  0  0
 23 25  1  0  0  0  0
 23 24  1  1  0  0  0
 25 27  1  0  0  0  0
 25 26  1  6  0  0  0
 27 30  1  0  0  0  0
 27 28  1  1  0  0  0
 30 21  1  6  0  0  0
 30 31  1  0  0  0  0
 32 34  1  0  0  0  0
 32 41  1  0  0  0  0
 32 33  1  1  0  0  0
 34 35  1  0  0  0  0
 35 37  1  0  0  0  0
 35 36  1  1  0  0  0
 37 39  1  0  0  0  0
 37 38  1  6  0  0  0
 39 41  1  0  0  0  0
 39 40  1  1  0  0  0
 41 42  1  6  0  0  0
M  CHG  6  12   1  20   1  24   1  29   1  33   1  36   1
M  END
>  <CHROM.1>
91.29275503,31.90742619,-75.04598628,-95.34786918,-31.55961311,172.95088789
-71.41027826,-58.84824980,55.25795670,-150.66586941,-72.97341131,80.77912101
43.26349044,179.42365808,-39.09703924,-160.15880093,-173.05404032,-24.51983385
56.49501919,32.12326859,120.11473389,57.51777440,0.05214923,1.02297983,-0.01020386
2.31446171,0.43340593,2.53055800

>  <Name>
1NEM.B

>  <RI>
0

>  <Rbt.Current_Directory>
/home/itssahil/PROJECTS/Mol_Feturizer/New_Systems/rnas/1nem

>  <Rbt.Executable>
rbdock ($Id: //depot/dev/client3/rdock/2013.1/src/exe/rbdock.cxx#4 $)

>  <Rbt.Library>
libRbt.so (2013.1, Build901 2013/11/27)

>  <Rbt.Parameter_File>
/export/apps/rDock/src/rDock_2013.1_src/data/scripts/dock_solv.prm

>  <Rbt.Receptor>
prm/pocket_docking_6.prm

>  <SCORE>
-36.4111

>  <SCORE.INTER>
-50.5488

>  <SCORE.INTER.CONST>
1

>  <SCORE.INTER.POLAR>
-8.84532

>  <SCORE.INTER.ROT>
9

>  <SCORE.INTER.SOLV>
38.5643

>  <SCORE.INTER.VDW>
-26.6696

>  <SCORE.INTER.norm>
-1.20354

>  <SCORE.INTRA>
14.1377

>  <SCORE.INTRA.DIHEDRAL>
14.5948

>  <SCORE.INTRA.DIHEDRAL.0>
22.4324

>  <SCORE.INTRA.POLAR>
0.952367

>  <SCORE.INTRA.POLAR.0>
-1.83749

>  <SCORE.INTRA.REPUL>
0

>  <SCORE.INTRA.REPUL.0>
0

>  <SCORE.INTRA.SOLV>
-4.0605

>  <SCORE.INTRA.SOLV.lig_0>
-160.638

>  <SCORE.INTRA.VDW>
5.63253

>  <SCORE.INTRA.VDW.0>
-7.61953

>  <SCORE.INTRA.norm>
0.336613

>  <SCORE.RESTR>
0

>  <SCORE.RESTR.CAVITY>
0

>  <SCORE.RESTR.norm>
0

>  <SCORE.SYSTEM>
0

>  <SCORE.SYSTEM.CONST>
0

>  <SCORE.SYSTEM.DIHEDRAL>
0

>  <SCORE.SYSTEM.SOLV>
0

>  <SCORE.SYSTEM.norm>
0

>  <SCORE.heavy>
42

>  <SCORE.norm>
-0.86693

>  <RMSD>
8.760

$$$$
1NEM.B
 OpenBabel11021811403D
libRbt.so/2013.1/901 2013/11/27
 42 45  0  0  0  0  0  0  0  0999 V2000
   -3.9059    2.7899   -0.6782 O   0  0  0  0  0  0  0  0  0  0  0  0
   -2.5656    2.3716   -0.4125 C   0  0  0  0  0  0  0  0  0  0  0  0
   -2.3692    0.8634   -0.5596 C   0  0  1  0  0  0  0  0  0  0  0  0
   -0.9856    0.5447   -0.6759 O   0  0  0  0  0  0  0  0  0  0  0  0
   -2.8129    0.0456    0.6429 C   0  0  1  0  0  0  0  0  0  0  0  0
   -4.2422    0.0581    0.6610 O   0  0  0  0  0  0  0  0  0  0  0  0
   -2.1523   -1.2736    0.2893 C   0  0  1  0  0  0  0  0  0  0  0  0
   -2.7786   -1.9086   -0.8304 O   0  0  0  0  0  0  0  0  0  0  0  0
   -0.7682   -0.7471   -0.1081 C   0  0  2  0  0  0  0  0  0  0  0  0
   -4.8617   -1.0122    1.3151 C   0  0  2  0  0  0  0  0  0  0  0  0
   -5.9603   -0.4721    2.2407 C   0  0  2  0  0  0  0  0  0  0  0  0
   -5.4005    0.5665    3.1453 N   0  3  0  0  0  0  0  0  0  0  0  0
   -6.6204   -1.6103    3.0257 C   0  0  1  0  0  0  0  0  0  0  0  0
   -7.4081   -2.4026    2.1469 O   0  0  0  0  0  0  0  0  0  0  0  0
   -5.5707   -2.4913    3.7101 C   0  0  2  0  0  0  0  0  0  0  0  0
   -4.9274   -1.7721    4.7546 O   0  0  0  0  0  0  0  0  0  0  0  0
   -4.5397   -2.9525    2.6838 C   0  0  1  0  0  0  0  0  0  0  0  0
   -3.9394   -1.8062    2.0500 O   0  0  0  0  0  0  0  0  0  0  0  0
   -3.4266   -3.7905    3.2878 C   0  0  0  0  0  0  0  0  0  0  0  0
   -3.1613   -5.0111    2.4944 N   0  3  0  0  0  0  0  0  0  0  0  0
    5.7729    1.1543    4.7695 C   0  0  0  0  0  0  0  0  0  0  0  0
    2.4705    1.3425    3.1004 C   0  0  2  0  0  0  0  0  0  0  0  0
    2.5098    2.7579    2.5294 C   0  0  2  0  0  0  0  0  0  0  0  0
    1.5121    2.9006    1.4423 N   0  3  0  0  0  0  0  0  0  0  0  0
    3.8979    3.0652    1.9836 C   0  0  1  0  0  0  0  0  0  0  0  0
    3.9432    4.4083    1.5270 O   0  0  0  0  0  0  0  0  0  0  0  0
    4.9379    2.8477    3.0803 C   0  0  2  0  0  0  0  0  0  0  0  0
    6.2429    3.0655    2.5596 O   0  0  0  0  0  0  0  0  0  0  0  0
    5.4572    2.0099    5.9362 N   0  3  0  0  0  0  0  0  0  0  0  0
    4.8271    1.4198    3.6112 C   0  0  2  0  0  0  0  0  0  0  0  0
    3.4877    1.1688    4.0833 O   0  0  0  0  0  0  0  0  0  0  0  0
    1.8602   -3.7596    1.6961 C   0  0  2  0  0  0  0  0  0  0  0  0
    1.3434   -5.1183    1.9793 N   0  3  0  0  0  0  0  0  0  0  0  0
    2.6863   -3.2599    2.8760 C   0  0  0  0  0  0  0  0  0  0  0  0
    3.2226   -1.8623    2.5996 C   0  0  2  0  0  0  0  0  0  0  0  0
    3.9999   -1.4458    3.7583 N   0  3  0  0  0  0  0  0  0  0  0  0
    2.0616   -0.9028    2.3492 C   0  0  1  0  0  0  0  0  0  0  0  0
    2.5783    0.4110    2.0607 O   0  0  0  0  0  0  0  0  0  0  0  0
    1.2024   -1.3832    1.1714 C   0  0  2  0  0  0  0  0  0  0  0  0
    0.0610   -0.5164    1.0287 O   0  0  0  0  0  0  0  0  0  0  0  0
    0.7038   -2.8096    1.3891 C   0  0  1  0  0  0  0  0  0  0  0  0
    0.0206   -3.2561    0.2252 O   0  0  0  0  0  0  0  0  0  0  0  0
  1  2  1  0  0  0  0
  3  2  1  1  0  0  0
  3  5  1  0  0  0  0
  3  4  1  0  0  0  0
  4  9  1  0  0  0  0
  5  7  1  0  0  0  0
  5  6  1  6  0  0  0
  7  9  1  0  0  0  0
  7  8  1  6  0  0  0
  9 40  1  1  0  0  0
 10  6  1  1  0  0  0
 10 11  1  0  0  0  0
 10 18  1  0  0  0  0
 11 13  1  0  0  0  0
 11 12  1  1  0  0  0
 13 15  1  0  0  0  0
 13 14  1  6  0  0  0
 15 17  1  0  0  0  0
 15 16  1  1  0  0  0
 17 19  1  1  0  0  0
 17 18  1  0  0  0  0
 19 20  1  0  0  0  0
 21 29  1  0  0  0  0
 22 23  1  0  0  0  0
 22 31  1  0  0  0  0
 22 38  1  6  0  0  0
 23 25  1  0  0  0  0
 23 24  1  6  0  0  0
 25 27  1  0  0  0  0
 25 26  1  1  0  0  0
 27 30  1  0  0  0  0
 27 28  1  6  0  0  0
 30 21  1  1  0  0  0
 30 31  1  0  0  0  0
 32 34  1  0  0  0  0
 32 41  1  0  0  0  0
 32 33  1  1  0  0  0
 34 35  1  0  0  0  0
 35 37  1  0  0  0  0
 35 36  1  1  0  0  0
 37 39  1  0  0  0  0
 37 38  1  6  0  0  0
 39 41  1  0  0  0  0
 39 40  1  1  0  0  0
 41 42  1  6  0  0  0
M  CHG  6  12   1  20   1  24   1  29   1  33   1  36   1
M  END
>  <CHROM.1>
-175.32809143,162.93750075,155.46991924,133.29288115,-66.44536336,-132.92347658
-143.50111928,-167.53683323,43.48573870,133.21350177,-39.89357944,62.89329370
-174.85409070,-157.35284060,-170.34533327,60.06880249,67.30103515,-157.00496119
116.61870882,-104.39066201,173.87454598,-32.85036019,-0.33107526,-0.40999637
2.03024623,2.84624627,0.20861347,2.90390663

>  <Name>
1NEM.B

>  <RI>
0

>  <Rbt.Current_Directory>
/home/itssahil/PROJECTS/Mol_Feturizer/New_Systems/rnas/1nem

>  <Rbt.Executable>
rbdock ($Id: //depot/dev/client3/rdock/2013.1/src/exe/rbdock.cxx#4 $)

>  <Rbt.Library>
libRbt.so (2013.1, Build901 2013/11/27)

>  <Rbt.Parameter_File>
/export/apps/rDock/src/rDock_2013.1_src/data/scripts/dock_solv.prm

>  <Rbt.Receptor>
prm/pocket_docking_4.prm

>  <SCORE>
-28.5078

>  <SCORE.INTER>
-50.3689

>  <SCORE.INTER.CONST>
1

>  <SCORE.INTER.POLAR>
-8.67888

>  <SCORE.INTER.ROT>
9

>  <SCORE.INTER.SOLV>
44.002

>  <SCORE.INTER.VDW>
-28.917

>  <SCORE.INTER.norm>
-1.19926

>  <SCORE.INTRA>
21.5232

>  <SCORE.INTRA.DIHEDRAL>
21.4684

>  <SCORE.INTRA.DIHEDRAL.0>
22.4324

>  <SCORE.INTRA.POLAR>
1.04067

>  <SCORE.INTRA.POLAR.0>
-1.83749

>  <SCORE.INTRA.REPUL>
0

>  <SCORE.INTRA.REPUL.0>
0

>  <SCORE.INTRA.SOLV>
-0.730093

>  <SCORE.INTRA.SOLV.lig_0>
-160.638

>  <SCORE.INTRA.VDW>
7.61571

>  <SCORE.INTRA.VDW.0>
-7.61953

>  <SCORE.INTRA.norm>
0.512456

>  <SCORE.RESTR>
0.337911

>  <SCORE.RESTR.CAVITY>
0.337911

>  <SCORE.RESTR.norm>
0.00804551

>  <SCORE.SYSTEM>
0

>  <SCORE.SYSTEM.CONST>
0

>  <SCORE.SYSTEM.DIHEDRAL>
0

>  <SCORE.SYSTEM.SOLV>
0

>  <SCORE.SYSTEM.norm>
0

>  <SCORE.heavy>
42

>  <SCORE.norm>
-0.678757

>  <RMSD>
8.769

$$$$
1NEM.B
 OpenBabel11021811403D
libRbt.so/2013.1/901 2013/11/27
 42 45  0  0  0  0  0  0  0  0999 V2000
   -8.1481   -3.5480   -0.4579 O   0  0  0  0  0  0  0  0  0  0  0  0
   -7.2837   -3.0851    0.5817 C   0  0  0  0  0  0  0  0  0  0  0  0
   -5.9233   -3.7808    0.5828 C   0  0  1  0  0  0  0  0  0  0  0  0
   -4.8792   -2.8454    0.3292 O   0  0  0  0  0  0  0  0  0  0  0  0
   -5.5243   -4.3919    1.9165 C   0  0  1  0  0  0  0  0  0  0  0  0
   -6.3387   -5.5500    2.1137 O   0  0  0  0  0  0  0  0  0  0  0  0
   -4.0543   -4.6388    1.6340 C   0  0  1  0  0  0  0  0  0  0  0  0
   -3.8560   -5.6890    0.6817 O   0  0  0  0  0  0  0  0  0  0  0  0
   -3.7021   -3.2843    1.0077 C   0  0  2  0  0  0  0  0  0  0  0  0
   -6.1467   -6.2441    3.3131 C   0  0  2  0  0  0  0  0  0  0  0  0
   -7.4612   -6.9232    3.7208 C   0  0  2  0  0  0  0  0  0  0  0  0
   -8.5629   -5.9254    3.7521 N   0  3  0  0  0  0  0  0  0  0  0  0
   -7.3098   -7.6415    5.0657 C   0  0  1  0  0  0  0  0  0  0  0  0
   -6.4822   -8.7860    4.9053 O   0  0  0  0  0  0  0  0  0  0  0  0
   -6.7039   -6.7134    6.1230 C   0  0  2  0  0  0  0  0  0  0  0  0
   -7.6242   -5.6836    6.4619 O   0  0  0  0  0  0  0  0  0  0  0  0
   -5.4116   -6.1019    5.5893 C   0  0  1  0  0  0  0  0  0  0  0  0
   -5.6780   -5.4021    4.3583 O   0  0  0  0  0  0  0  0  0  0  0  0
   -4.7687   -5.1224    6.5554 C   0  0  0  0  0  0  0  0  0  0  0  0
   -3.4813   -5.6291    7.0806 N   0  3  0  0  0  0  0  0  0  0  0  0
    3.2591   -0.2649    1.5533 C   0  0  0  0  0  0  0  0  0  0  0  0
    0.3689   -2.3809    0.6066 C   0  0  2  0  0  0  0  0  0  0  0  0
    0.7886   -3.7290    1.1875 C   0  0  2  0  0  0  0  0  0  0  0  0
   -0.3924   -4.6117    1.3409 N   0  3  0  0  0  0  0  0  0  0  0  0
    1.4507   -3.5322    2.5447 C   0  0  1  0  0  0  0  0  0  0  0  0
    1.9054   -4.7829    3.0383 O   0  0  0  0  0  0  0  0  0  0  0  0
    2.6238   -2.5645    2.4055 C   0  0  2  0  0  0  0  0  0  0  0  0
    3.2045   -2.3216    3.6803 O   0  0  0  0  0  0  0  0  0  0  0  0
    2.8368    1.1279    1.8268 N   0  3  0  0  0  0  0  0  0  0  0  0
    2.1304   -1.2493    1.8053 C   0  0  2  0  0  0  0  0  0  0  0  0
    1.4823   -1.4937    0.5404 O   0  0  0  0  0  0  0  0  0  0  0  0
   -3.6042    0.9721    0.1134 C   0  0  2  0  0  0  0  0  0  0  0  0
   -4.7008    1.5984   -0.6602 N   0  3  0  0  0  0  0  0  0  0  0  0
   -2.4124    0.7013   -0.7979 C   0  0  0  0  0  0  0  0  0  0  0  0
   -1.2773    0.0550   -0.0161 C   0  0  2  0  0  0  0  0  0  0  0  0
   -0.1747   -0.1751   -0.9388 N   0  3  0  0  0  0  0  0  0  0  0  0
   -1.7552   -1.2581    0.5995 C   0  0  1  0  0  0  0  0  0  0  0  0
   -0.6840   -1.8492    1.3607 O   0  0  0  0  0  0  0  0  0  0  0  0
   -2.9631   -1.0216    1.5167 C   0  0  2  0  0  0  0  0  0  0  0  0
   -3.4525   -2.2883    1.9970 O   0  0  0  0  0  0  0  0  0  0  0  0
   -4.0955   -0.3131    0.7776 C   0  0  1  0  0  0  0  0  0  0  0  0
   -5.1388   -0.0043    1.6922 O   0  0  0  0  0  0  0  0  0  0  0  0
  1  2  1  0  0  0  0
  3  2  1  1  0  0  0
  3  5  1  0  0  0  0
  3  4  1  0  0  0  0
  4  9  1  0  0  0  0
  5  7  1  0  0  0  0
  5  6  1  6  0  0  0
  7  9  1  0  0  0  0
  7  8  1  6  0  0  0
  9 40  1  1  0  0  0
 10  6  1  6  0  0  0
 10 11  1  0  0  0  0
 10 18  1  0  0  0  0
 11 13  1  0  0  0  0
 11 12  1  1  0  0  0
 13 15  1  0  0  0  0
 13 14  1  6  0  0  0
 15 17  1  0  0  0  0
 15 16  1  6  0  0  0
 17 19  1  1  0  0  0
 17 18  1  0  0  0  0
 19 20  1  0  0  0  0
 21 29  1  0  0  0  0
 22 23  1  0  0  0  0
 22 31  1  0  0  0  0
 22 38  1  1  0  0  0
 23 25  1  0  0  0  0
 23 24  1  1  0  0  0
 25 27  1  0  0  0  0
 25 26  1  6  0  0  0
 27 30  1  0  0  0  0
 27 28  1  1  0  0  0
 30 21  1  6  0  0  0
 30 31  1  0  0  0  0
 32 34  1  0  0  0  0
 32 41  1  0  0  0  0
 32 33  1  6  0  0  0
 34 35  1  0  0  0  0
 35 37  1  0  0  0  0
 35 36  1  6  0  0  0
 37 39  1  0  0  0  0
 37 38  1  1  0  0  0
 39 41  1  0  0  0  0
 39 40  1  6  0  0  0
 41 42  1  1  0  0  0
M  CHG  6  12   1  20   1  24   1  29   1  33   1  36   1
M  END
>  <CHROM.1>
-50.50038080,116.80439228,-178.47980948,150.54625685,-176.76799405,-72.29858997
102.95582601,69.72369517,-75.28067472,112.64011038,-48.50703988,-143.27220382
76.90396423,-137.09925537,79.59791218,-67.68379910,173.73619096,77.93053172
168.48472190,-71.55571166,-51.13345800,44.66579098,-3.09779016,-3.24845281
2.18751991,2.50213798,0.14870202,2.41146288

>  <Name>
1NEM.B

>  <RI>
0

>  <Rbt.Current_Directory>
/home/itssahil/PROJECTS/Mol_Feturizer/New_Systems/rnas/1nem

>  <Rbt.Executable>
rbdock ($Id: //depot/dev/client3/rdock/2013.1/src/exe/rbdock.cxx#4 $)

>  <Rbt.Library>
libRbt.so (2013.1, Build901 2013/11/27)

>  <Rbt.Parameter_File>
/export/apps/rDock/src/rDock_2013.1_src/data/scripts/dock_solv.prm

>  <Rbt.Receptor>
prm/blind_docking_100.prm

>  <SCORE>
-31.7565

>  <SCORE.INTER>
-50.9605

>  <SCORE.INTER.CONST>
1

>  <SCORE.INTER.POLAR>
-7.88824

>  <SCORE.INTER.ROT>
9

>  <SCORE.INTER.SOLV>
39.0716

>  <SCORE.INTER.VDW>
-30.3034

>  <SCORE.INTER.norm>
-1.21335

>  <SCORE.INTRA>
14.8711

>  <SCORE.INTRA.DIHEDRAL>
12.7569

>  <SCORE.INTRA.DIHEDRAL.0>
22.4324

>  <SCORE.INTRA.POLAR>
0.613318

>  <SCORE.INTRA.POLAR.0>
-1.83749

>  <SCORE.INTRA.REPUL>
0

>  <SCORE.INTRA.REPUL.0>
0

>  <SCORE.INTRA.SOLV>
-2.58625

>  <SCORE.INTRA.SOLV.lig_0>
-160.638

>  <SCORE.INTRA.VDW>
7.70043

>  <SCORE.INTRA.VDW.0>
-7.61953

>  <SCORE.INTRA.norm>
0.354073

>  <SCORE.RESTR>
4.33292

>  <SCORE.RESTR.CAVITY>
4.33292

>  <SCORE.RESTR.norm>
0.103165

>  <SCORE.SYSTEM>
0

>  <SCORE.SYSTEM.CONST>
0

>  <SCORE.SYSTEM.DIHEDRAL>
0

>  <SCORE.SYSTEM.SOLV>
0

>  <SCORE.SYSTEM.norm>
0

>  <SCORE.heavy>
42

>  <SCORE.norm>
-0.756108

>  <RMSD>
8.777

$$$$
1NEM.B
 OpenBabel11021811403D
libRbt.so/2013.1/901 2013/11/27
 42 45  0  0  0  0  0  0  0  0999 V2000
   -4.3999    2.7522    0.3498 O   0  0  0  0  0  0  0  0  0  0  0  0
   -3.0369    2.3241    0.3171 C   0  0  0  0  0  0  0  0  0  0  0  0
   -2.8630    0.9257   -0.2735 C   0  0  1  0  0  0  0  0  0  0  0  0
   -1.4817    0.6108   -0.4240 O   0  0  0  0  0  0  0  0  0  0  0  0
   -3.3815   -0.2025    0.6039 C   0  0  1  0  0  0  0  0  0  0  0  0
   -4.8094   -0.1481    0.5659 O   0  0  0  0  0  0  0  0  0  0  0  0
   -2.7301   -1.3741   -0.1066 C   0  0  1  0  0  0  0  0  0  0  0  0
   -3.3123   -1.6186   -1.3913 O   0  0  0  0  0  0  0  0  0  0  0  0
   -1.3180   -0.7988   -0.2675 C   0  0  2  0  0  0  0  0  0  0  0  0
   -5.4849   -1.2426    1.1164 C   0  0  2  0  0  0  0  0  0  0  0  0
   -6.3969   -0.7561    2.2508 C   0  0  2  0  0  0  0  0  0  0  0  0
   -5.6128    0.0436    3.2285 N   0  3  0  0  0  0  0  0  0  0  0  0
   -7.1066   -1.9354    2.9239 C   0  0  1  0  0  0  0  0  0  0  0  0
   -8.0810   -2.4739    2.0401 O   0  0  0  0  0  0  0  0  0  0  0  0
   -6.1092   -3.0294    3.3172 C   0  0  2  0  0  0  0  0  0  0  0  0
   -5.2682   -2.5756    4.3703 O   0  0  0  0  0  0  0  0  0  0  0  0
   -5.2649   -3.4140    2.1056 C   0  0  1  0  0  0  0  0  0  0  0  0
   -4.5965   -2.2465    1.5896 O   0  0  0  0  0  0  0  0  0  0  0  0
   -4.2083   -4.4588    2.4189 C   0  0  0  0  0  0  0  0  0  0  0  0
   -4.7941   -5.6682    3.0386 N   0  3  0  0  0  0  0  0  0  0  0  0
    5.6217   -1.3125    4.2872 C   0  0  0  0  0  0  0  0  0  0  0  0
    2.4213    0.0419    3.0025 C   0  0  2  0  0  0  0  0  0  0  0  0
    2.8503    1.4379    2.5575 C   0  0  2  0  0  0  0  0  0  0  0  0
    1.8662    1.9963    1.5997 N   0  3  0  0  0  0  0  0  0  0  0  0
    4.2208    1.3799    1.8962 C   0  0  1  0  0  0  0  0  0  0  0  0
    4.6419    2.6924    1.5575 O   0  0  0  0  0  0  0  0  0  0  0  0
    5.2228    0.7370    2.8524 C   0  0  2  0  0  0  0  0  0  0  0  0
    6.4889    0.6160    2.2170 O   0  0  0  0  0  0  0  0  0  0  0  0
    5.6600   -0.5514    5.5570 N   0  3  0  0  0  0  0  0  0  0  0  0
    4.7191   -0.6450    3.2642 C   0  0  2  0  0  0  0  0  0  0  0  0
    3.4066   -0.5395    3.8523 O   0  0  0  0  0  0  0  0  0  0  0  0
    0.4038   -4.5778    1.3129 C   0  0  2  0  0  0  0  0  0  0  0  0
   -0.4289   -5.7807    1.5430 N   0  3  0  0  0  0  0  0  0  0  0  0
    1.3669   -4.3802    2.4781 C   0  0  0  0  0  0  0  0  0  0  0  0
    2.2285   -3.1450    2.2562 C   0  0  2  0  0  0  0  0  0  0  0  0
    3.1228   -3.0141    3.3977 N   0  3  0  0  0  0  0  0  0  0  0  0
    1.3389   -1.9118    2.1171 C   0  0  1  0  0  0  0  0  0  0  0  0
    2.1601   -0.7519    1.8792 O   0  0  0  0  0  0  0  0  0  0  0  0
    0.3487   -2.0828    0.9567 C   0  0  2  0  0  0  0  0  0  0  0  0
   -0.5418   -0.9514    0.9188 O   0  0  0  0  0  0  0  0  0  0  0  0
   -0.4856   -3.3512    1.1166 C   0  0  1  0  0  0  0  0  0  0  0  0
   -1.2966   -3.5342   -0.0364 O   0  0  0  0  0  0  0  0  0  0  0  0
  1  2  1  0  0  0  0
  3  2  1  1  0  0  0
  3  5  1  0  0  0  0
  3  4  1  0  0  0  0
  4  9  1  0  0  0  0
  5  7  1  0  0  0  0
  5  6  1  6  0  0  0
  7  9  1  0  0  0  0
  7  8  1  6  0  0  0
  9 40  1  1  0  0  0
 10  6  1  1  0  0  0
 10 11  1  0  0  0  0
 10 18  1  0  0  0  0
 11 13  1  0  0  0  0
 11 12  1  1  0  0  0
 13 15  1  0  0  0  0
 13 14  1  6  0  0  0
 15 17  1  0  0  0  0
 15 16  1  1  0  0  0
 17 19  1  1  0  0  0
 17 18  1  0  0  0  0
 19 20  1  0  0  0  0
 21 29  1  0  0  0  0
 22 23  1  0  0  0  0
 22 31  1  0  0  0  0
 22 38  1  6  0  0  0
 23 25  1  0  0  0  0
 23 24  1  6  0  0  0
 25 27  1  0  0  0  0
 25 26  1  1  0  0  0
 27 30  1  0  0  0  0
 27 28  1  6  0  0  0
 30 21  1  1  0  0  0
 30 31  1  0  0  0  0
 32 34  1  0  0  0  0
 32 41  1  0  0  0  0
 32 33  1  1  0  0  0
 34 35  1  0  0  0  0
 35 37  1  0  0  0  0
 35 36  1  1  0  0  0
 37 39  1  0  0  0  0
 37 38  1  6  0  0  0
 39 41  1  0  0  0  0
 39 40  1  1  0  0  0
 41 42  1  6  0  0  0
M  CHG  6  12   1  20   1  24   1  29   1  33   1  36   1
M  END
>  <CHROM.1>
-65.13274279,173.34853493,169.07263660,121.32311245,68.14791788,-148.01957031
-150.74513711,177.35132464,-74.92494133,54.68073825,-51.12623588,63.52301447
43.67613764,-160.12591009,91.17757895,178.65130306,-55.04833178,89.46852267
-118.53513816,-98.97696832,166.17478682,28.19657675,-0.83389218,-1.25384322
1.87548125,3.00128958,0.16034648,2.83897255

>  <Name>
1NEM.B

>  <RI>
0

>  <Rbt.Current_Directory>
/home/itssahil/PROJECTS/Mol_Feturizer/New_Systems/rnas/1nem

>  <Rbt.Executable>
rbdock ($Id: //depot/dev/client3/rdock/2013.1/src/exe/rbdock.cxx#4 $)

>  <Rbt.Library>
libRbt.so (2013.1, Build901 2013/11/27)

>  <Rbt.Parameter_File>
/export/apps/rDock/src/rDock_2013.1_src/data/scripts/dock_solv.prm

>  <Rbt.Receptor>
prm/blind_docking_60.prm

>  <SCORE>
-15.6226

>  <SCORE.INTER>
-44.6544

>  <SCORE.INTER.CONST>
1

>  <SCORE.INTER.POLAR>
-8.26279

>  <SCORE.INTER.ROT>
9

>  <SCORE.INTER.SOLV>
49.9638

>  <SCORE.INTER.VDW>
-28.4816

>  <SCORE.INTER.norm>
-1.0632

>  <SCORE.INTRA>
20.9758

>  <SCORE.INTRA.DIHEDRAL>
13.5856

>  <SCORE.INTRA.DIHEDRAL.0>
22.4324

>  <SCORE.INTRA.POLAR>
0.863859

>  <SCORE.INTRA.POLAR.0>
-1.83749

>  <SCORE.INTRA.REPUL>
0

>  <SCORE.INTRA.REPUL.0>
0

>  <SCORE.INTRA.SOLV>
2.21371

>  <SCORE.INTRA.SOLV.lig_0>
-160.638

>  <SCORE.INTRA.VDW>
10.139

>  <SCORE.INTRA.VDW.0>
-7.61953

>  <SCORE.INTRA.norm>
0.499423

>  <SCORE.RESTR>
8.05605

>  <SCORE.RESTR.CAVITY>
8.05605

>  <SCORE.RESTR.norm>
0.191811

>  <SCORE.SYSTEM>
0

>  <SCORE.SYSTEM.CONST>
0

>  <SCORE.SYSTEM.DIHEDRAL>
0

>  <SCORE.SYSTEM.SOLV>
0

>  <SCORE.SYSTEM.norm>
0

>  <SCORE.heavy>
42

>  <SCORE.norm>
-0.371966

>  <RMSD>
8.780

$$$$
1NEM.B
 OpenBabel11021811403D
libRbt.so/2013.1/901 2013/11/27
 42 45  0  0  0  0  0  0  0  0999 V2000
   -3.5848    2.7522   -0.7225 O   0  0  0  0  0  0  0  0  0  0  0  0
   -3.0223    2.0733    0.4022 C   0  0  0  0  0  0  0  0  0  0  0  0
   -2.6257    0.6305    0.0931 C   0  0  1  0  0  0  0  0  0  0  0  0
   -1.2677    0.5616   -0.3319 O   0  0  0  0  0  0  0  0  0  0  0  0
   -2.6621   -0.3076    1.2890 C   0  0  1  0  0  0  0  0  0  0  0  0
   -4.0368   -0.5433    1.6021 O   0  0  0  0  0  0  0  0  0  0  0  0
   -1.8931   -1.4746    0.6986 C   0  0  1  0  0  0  0  0  0  0  0  0
   -2.6385   -2.1546   -0.3169 O   0  0  0  0  0  0  0  0  0  0  0  0
   -0.7299   -0.6986    0.0697 C   0  0  2  0  0  0  0  0  0  0  0  0
   -4.5380   -1.8074    1.2733 C   0  0  2  0  0  0  0  0  0  0  0  0
   -6.0710   -1.7488    1.2317 C   0  0  2  0  0  0  0  0  0  0  0  0
   -6.5950   -1.1864    2.5043 N   0  3  0  0  0  0  0  0  0  0  0  0
   -6.6619   -3.1316    0.9382 C   0  0  1  0  0  0  0  0  0  0  0  0
   -6.3937   -3.4890   -0.4112 O   0  0  0  0  0  0  0  0  0  0  0  0
   -6.0786   -4.1926    1.8765 C   0  0  2  0  0  0  0  0  0  0  0  0
   -6.5295   -3.9764    3.2076 O   0  0  0  0  0  0  0  0  0  0  0  0
   -4.5542   -4.1385    1.8278 C   0  0  1  0  0  0  0  0  0  0  0  0
   -4.1042   -2.8151    2.1773 O   0  0  0  0  0  0  0  0  0  0  0  0
   -3.8893   -5.1243    2.7723 C   0  0  0  0  0  0  0  0  0  0  0  0
   -3.7116   -4.5570    4.1274 N   0  3  0  0  0  0  0  0  0  0  0  0
    2.6941    0.8537    6.3265 C   0  0  0  0  0  0  0  0  0  0  0  0
    2.2578    1.4233    2.6917 C   0  0  2  0  0  0  0  0  0  0  0  0
    3.1495    2.6437    2.4761 C   0  0  2  0  0  0  0  0  0  0  0  0
    3.4999    2.7764    1.0419 N   0  3  0  0  0  0  0  0  0  0  0  0
    4.4255    2.5128    3.2970 C   0  0  1  0  0  0  0  0  0  0  0  0
    5.2094    3.6867    3.1489 O   0  0  0  0  0  0  0  0  0  0  0  0
    4.0683    2.3014    4.7665 C   0  0  2  0  0  0  0  0  0  0  0  0
    5.2526    2.1091    5.5295 O   0  0  0  0  0  0  0  0  0  0  0  0
    2.0784    2.0755    6.8931 N   0  3  0  0  0  0  0  0  0  0  0  0
    3.1651    1.0768    4.9000 C   0  0  2  0  0  0  0  0  0  0  0  0
    1.9903    1.2352    4.0788 O   0  0  0  0  0  0  0  0  0  0  0  0
    1.7352   -3.7846    1.7350 C   0  0  2  0  0  0  0  0  0  0  0  0
    1.0810   -5.0850    2.0078 N   0  3  0  0  0  0  0  0  0  0  0  0
    2.5807   -3.3653    2.9323 C   0  0  0  0  0  0  0  0  0  0  0  0
    3.2579   -2.0281    2.6667 C   0  0  2  0  0  0  0  0  0  0  0  0
    4.0472   -1.6868    3.8417 N   0  3  0  0  0  0  0  0  0  0  0  0
    2.2027   -0.9597    2.3904 C   0  0  1  0  0  0  0  0  0  0  0  0
    2.8525    0.2961    2.1124 O   0  0  0  0  0  0  0  0  0  0  0  0
    1.3261   -1.3565    1.1945 C   0  0  2  0  0  0  0  0  0  0  0  0
    0.2789   -0.3820    1.0264 O   0  0  0  0  0  0  0  0  0  0  0  0
    0.6848   -2.7263    1.4022 C   0  0  1  0  0  0  0  0  0  0  0  0
   -0.0137   -3.1066    0.2241 O   0  0  0  0  0  0  0  0  0  0  0  0
  1  2  1  0  0  0  0
  3  2  1  1  0  0  0
  3  5  1  0  0  0  0
  3  4  1  0  0  0  0
  4  9  1  0  0  0  0
  5  7  1  0  0  0  0
  5  6  1  6  0  0  0
  7  9  1  0  0  0  0
  7  8  1  6  0  0  0
  9 40  1  1  0  0  0
 10  6  1  1  0  0  0
 10 11  1  0  0  0  0
 10 18  1  0  0  0  0
 11 13  1  0  0  0  0
 11 12  1  1  0  0  0
 13 15  1  0  0  0  0
 13 14  1  6  0  0  0
 15 17  1  0  0  0  0
 15 16  1  1  0  0  0
 17 19  1  1  0  0  0
 17 18  1  0  0  0  0
 19 20  1  0  0  0  0
 21 29  1  0  0  0  0
 22 23  1  0  0  0  0
 22 31  1  0  0  0  0
 22 38  1  1  0  0  0
 23 25  1  0  0  0  0
 23 24  1  6  0  0  0
 25 27  1  0  0  0  0
 25 26  1  1  0  0  0
 27 30  1  0  0  0  0
 27 28  1  1  0  0  0
 30 21  1  1  0  0  0
 30 31  1  0  0  0  0
 32 34  1  0  0  0  0
 32 41  1  0  0  0  0
 32 33  1  1  0  0  0
 34 35  1  0  0  0  0
 35 37  1  0  0  0  0
 35 36  1  1  0  0  0
 37 39  1  0  0  0  0
 37 38  1  6  0  0  0
 39 41  1  0  0  0  0
 39 40  1  1  0  0  0
 41 42  1  6  0  0  0
M  CHG  6  12   1  20   1  24   1  29   1  33   1  36   1
M  END
>  <CHROM.1>
81.60491610,91.66135727,106.96295527,-161.40434457,173.29020364,-155.66159158
169.42257715,70.72682094,179.69978686,-87.11651434,86.94264818,52.50647425
-28.61828195,172.27426062,-46.23940164,-171.62320631,179.10203782,-147.06557273
-35.11727330,-138.63553704,-171.85564903,-34.63651013,-0.57195256,-0.86789957
2.18510041,2.78821710,0.36234478,2.88697745

>  <Name>
1NEM.B

>  <RI>
0

>  <Rbt.Current_Directory>
/home/itssahil/PROJECTS/Mol_Feturizer/New_Systems/rnas/1nem

>  <Rbt.Executable>
rbdock ($Id: //depot/dev/client3/rdock/2013.1/src/exe/rbdock.cxx#4 $)

>  <Rbt.Library>
libRbt.so (2013.1, Build901 2013/11/27)

>  <Rbt.Parameter_File>
/export/apps/rDock/src/rDock_2013.1_src/data/scripts/dock_solv.prm

>  <Rbt.Receptor>
prm/blind_docking_60.prm

>  <SCORE>
-3.16175

>  <SCORE.INTER>
-31.4677

>  <SCORE.INTER.CONST>
1

>  <SCORE.INTER.POLAR>
-5.2281

>  <SCORE.INTER.ROT>
9

>  <SCORE.INTER.SOLV>
39.8044

>  <SCORE.INTER.VDW>
-26.4196

>  <SCORE.INTER.norm>
-0.749231

>  <SCORE.INTRA>
22.0916

>  <SCORE.INTRA.DIHEDRAL>
13.3555

>  <SCORE.INTRA.DIHEDRAL.0>
22.4324

>  <SCORE.INTRA.POLAR>
0.548651

>  <SCORE.INTRA.POLAR.0>
-1.83749

>  <SCORE.INTRA.REPUL>
0

>  <SCORE.INTRA.REPUL.0>
0

>  <SCORE.INTRA.SOLV>
-0.709916

>  <SCORE.INTRA.SOLV.lig_0>
-160.638

>  <SCORE.INTRA.VDW>
13.9034

>  <SCORE.INTRA.VDW.0>
-7.61953

>  <SCORE.INTRA.norm>
0.52599

>  <SCORE.RESTR>
6.21441

>  <SCORE.RESTR.CAVITY>
6.21441

>  <SCORE.RESTR.norm>
0.147962

>  <SCORE.SYSTEM>
0

>  <SCORE.SYSTEM.CONST>
0

>  <SCORE.SYSTEM.DIHEDRAL>
0

>  <SCORE.SYSTEM.SOLV>
0

>  <SCORE.SYSTEM.norm>
0

>  <SCORE.heavy>
42

>  <SCORE.norm>
-0.0752797

>  <RMSD>
8.782

$$$$
1NEM.B
 OpenBabel11021811403D
libRbt.so/2013.1/901 2013/11/27
 42 45  0  0  0  0  0  0  0  0999 V2000
   -5.8738   -0.1281    1.5817 O   0  0  0  0  0  0  0  0  0  0  0  0
   -5.1242   -1.1600    2.2262 C   0  0  0  0  0  0  0  0  0  0  0  0
   -4.1860   -1.9011    1.2748 C   0  0  1  0  0  0  0  0  0  0  0  0
   -3.2527   -1.0008    0.6850 O   0  0  0  0  0  0  0  0  0  0  0  0
   -3.2942   -2.9363    1.9417 C   0  0  1  0  0  0  0  0  0  0  0  0
   -4.1242   -4.0427    2.3025 O   0  0  0  0  0  0  0  0  0  0  0  0
   -2.3121   -3.1685    0.8088 C   0  0  1  0  0  0  0  0  0  0  0  0
   -2.9104   -3.8620   -0.2913 O   0  0  0  0  0  0  0  0  0  0  0  0
   -2.0397   -1.7086    0.4277 C   0  0  2  0  0  0  0  0  0  0  0  0
   -4.9339   -3.8666    3.4297 C   0  0  2  0  0  0  0  0  0  0  0  0
   -4.0633   -3.4264    4.6145 C   0  0  2  0  0  0  0  0  0  0  0  0
   -2.9381   -4.3797    4.8028 N   0  3  0  0  0  0  0  0  0  0  0  0
   -4.9049   -3.2856    5.8870 C   0  0  1  0  0  0  0  0  0  0  0  0
   -5.7557   -2.1525    5.7740 O   0  0  0  0  0  0  0  0  0  0  0  0
   -5.7492   -4.5397    6.1331 C   0  0  2  0  0  0  0  0  0  0  0  0
   -4.9137   -5.6385    6.4747 O   0  0  0  0  0  0  0  0  0  0  0  0
   -6.5563   -4.8690    4.8805 C   0  0  1  0  0  0  0  0  0  0  0  0
   -5.6661   -5.0394    3.7605 O   0  0  0  0  0  0  0  0  0  0  0  0
   -7.3851   -6.1341    5.0173 C   0  0  0  0  0  0  0  0  0  0  0  0
   -8.4926   -6.1776    4.0367 N   0  3  0  0  0  0  0  0  0  0  0  0
    2.0561    2.5673   -3.8427 C   0  0  0  0  0  0  0  0  0  0  0  0
    0.7009    1.8599   -0.4678 C   0  0  2  0  0  0  0  0  0  0  0  0
   -0.6970    2.4636   -0.5798 C   0  0  2  0  0  0  0  0  0  0  0  0
   -1.5829    1.9046    0.4692 N   0  3  0  0  0  0  0  0  0  0  0  0
   -1.2888    2.1658   -1.9509 C   0  0  1  0  0  0  0  0  0  0  0  0
   -2.5544    2.7972   -2.0705 O   0  0  0  0  0  0  0  0  0  0  0  0
   -0.3433    2.6742   -3.0370 C   0  0  2  0  0  0  0  0  0  0  0  0
   -0.8554    2.3386   -4.3202 O   0  0  0  0  0  0  0  0  0  0  0  0
    2.5248    1.5012   -4.7575 N   0  3  0  0  0  0  0  0  0  0  0  0
    1.0340    2.0408   -2.8503 C   0  0  2  0  0  0  0  0  0  0  0  0
    1.5342    2.3224   -1.5274 O   0  0  0  0  0  0  0  0  0  0  0  0
    2.3470   -2.4650    2.1008 C   0  0  2  0  0  0  0  0  0  0  0  0
    2.8647   -3.1263    3.3206 N   0  3  0  0  0  0  0  0  0  0  0  0
    3.1134   -1.1724    1.8437 C   0  0  0  0  0  0  0  0  0  0  0  0
    2.5900   -0.4801    0.5931 C   0  0  2  0  0  0  0  0  0  0  0  0
    3.3608    0.7406    0.4035 N   0  3  0  0  0  0  0  0  0  0  0  0
    1.1050   -0.1662    0.7585 C   0  0  1  0  0  0  0  0  0  0  0  0
    0.6110    0.4631   -0.4399 O   0  0  0  0  0  0  0  0  0  0  0  0
    0.3045   -1.4477    1.0292 C   0  0  2  0  0  0  0  0  0  0  0  0
   -1.0715   -1.1059    1.2835 O   0  0  0  0  0  0  0  0  0  0  0  0
    0.8487   -2.2009    2.2404 C   0  0  1  0  0  0  0  0  0  0  0  0
    0.1609   -3.4372    2.3786 O   0  0  0  0  0  0  0  0  0  0  0  0
  1  2  1  0  0  0  0
  3  2  1  1  0  0  0
  3  5  1  0  0  0  0
  3  4  1  0  0  0  0
  4  9  1  0  0  0  0
  5  7  1  0  0  0  0
  5  6  1  6  0  0  0
  7  9  1  0  0  0  0
  7  8  1  6  0  0  0
  9 40  1  1  0  0  0
 10  6  1  6  0  0  0
 10 11  1  0  0  0  0
 10 18  1  0  0  0  0
 11 13  1  0  0  0  0
 11 12  1  1  0  0  0
 13 15  1  0  0  0  0
 13 14  1  6  0  0  0
 15 17  1  0  0  0  0
 15 16  1  6  0  0  0
 17 19  1  1  0  0  0
 17 18  1  0  0  0  0
 19 20  1  0  0  0  0
 21 29  1  0  0  0  0
 22 23  1  0  0  0  0
 22 31  1  0  0  0  0
 22 38  1  6  0  0  0
 23 25  1  0  0  0  0
 23 24  1  1  0  0  0
 25 27  1  0  0  0  0
 25 26  1  1  0  0  0
 27 30  1  0  0  0  0
 27 28  1  6  0  0  0
 30 21  1  6  0  0  0
 30 31  1  0  0  0  0
 32 34  1  0  0  0  0
 32 41  1  0  0  0  0
 32 33  1  1  0  0  0
 34 35  1  0  0  0  0
 35 37  1  0  0  0  0
 35 36  1  1  0  0  0
 37 39  1  0  0  0  0
 37 38  1  6  0  0  0
 39 41  1  0  0  0  0
 39 40  1  1  0  0  0
 41 42  1  6  0  0  0
M  CHG  6  12   1  20   1  24   1  29   1  33   1  36   1
M  END
>  <CHROM.1>
56.64077018,59.42265423,-76.28278924,-53.62010378,164.72079236,-167.71804445
-152.17449484,-68.38057342,173.40613335,159.55200368,-160.47061328,-115.34260749
171.03846938,-118.27082420,-163.54614417,-77.18956146,179.45800066,-60.02799247
-176.59553234,-89.80544625,122.49858079,74.90781396,-1.87164276,-1.42112241
1.33366908,2.21972011,0.01670850,2.31249252

>  <Name>
1NEM.B

>  <RI>
0

>  <Rbt.Current_Directory>
/home/itssahil/PROJECTS/Mol_Feturizer/New_Systems/rnas/1nem

>  <Rbt.Executable>
rbdock ($Id: //depot/dev/client3/rdock/2013.1/src/exe/rbdock.cxx#4 $)

>  <Rbt.Library>
libRbt.so (2013.1, Build901 2013/11/27)

>  <Rbt.Parameter_File>
/export/apps/rDock/src/rDock_2013.1_src/data/scripts/dock_solv.prm

>  <Rbt.Receptor>
prm/pocket_docking_8.prm

>  <SCORE>
-31.0716

>  <SCORE.INTER>
-38.394

>  <SCORE.INTER.CONST>
1

>  <SCORE.INTER.POLAR>
-6.38771

>  <SCORE.INTER.ROT>
9

>  <SCORE.INTER.SOLV>
36.1442

>  <SCORE.INTER.VDW>
-25.9517

>  <SCORE.INTER.norm>
-0.914143

>  <SCORE.INTRA>
7.3224

>  <SCORE.INTRA.DIHEDRAL>
12.2562

>  <SCORE.INTRA.DIHEDRAL.0>
22.4324

>  <SCORE.INTRA.POLAR>
-0.0672559

>  <SCORE.INTRA.POLAR.0>
-1.83749

>  <SCORE.INTRA.REPUL>
0

>  <SCORE.INTRA.REPUL.0>
0

>  <SCORE.INTRA.SOLV>
-3.79921

>  <SCORE.INTRA.SOLV.lig_0>
-160.638

>  <SCORE.INTRA.VDW>
3.32259

>  <SCORE.INTRA.VDW.0>
-7.61953

>  <SCORE.INTRA.norm>
0.174343

>  <SCORE.RESTR>
0

>  <SCORE.RESTR.CAVITY>
0

>  <SCORE.RESTR.norm>
0

>  <SCORE.SYSTEM>
0

>  <SCORE.SYSTEM.CONST>
0

>  <SCORE.SYSTEM.DIHEDRAL>
0

>  <SCORE.SYSTEM.SOLV>
0

>  <SCORE.SYSTEM.norm>
0

>  <SCORE.heavy>
42

>  <SCORE.norm>
-0.7398

>  <RMSD>
8.785

$$$$
1NEM.B
 OpenBabel11021811403D
libRbt.so/2013.1/901 2013/11/27
 42 45  0  0  0  0  0  0  0  0999 V2000
   -6.0406   -1.9662    1.6847 O   0  0  0  0  0  0  0  0  0  0  0  0
   -5.9684   -2.8625    0.5740 C   0  0  0  0  0  0  0  0  0  0  0  0
   -4.5791   -3.4697    0.3845 C   0  0  1  0  0  0  0  0  0  0  0  0
   -3.6494   -2.4773   -0.0398 O   0  0  0  0  0  0  0  0  0  0  0  0
   -3.9468   -4.0159    1.6547 C   0  0  1  0  0  0  0  0  0  0  0  0
   -4.6433   -5.2174    1.9932 O   0  0  0  0  0  0  0  0  0  0  0  0
   -2.5216   -4.1765    1.1601 C   0  0  1  0  0  0  0  0  0  0  0  0
   -2.3963   -5.2386    0.2086 O   0  0  0  0  0  0  0  0  0  0  0  0
   -2.3580   -2.8208    0.4629 C   0  0  2  0  0  0  0  0  0  0  0  0
   -5.7994   -5.0653    2.7661 C   0  0  2  0  0  0  0  0  0  0  0  0
   -5.4538   -5.2929    4.2440 C   0  0  2  0  0  0  0  0  0  0  0  0
   -4.7641   -6.5993    4.4113 N   0  3  0  0  0  0  0  0  0  0  0  0
   -6.7085   -5.1991    5.1182 C   0  0  1  0  0  0  0  0  0  0  0  0
   -7.1510   -3.8495    5.1753 O   0  0  0  0  0  0  0  0  0  0  0  0
   -7.8314   -6.0854    4.5707 C   0  0  2  0  0  0  0  0  0  0  0  0
   -7.4936   -7.4587    4.7189 O   0  0  0  0  0  0  0  0  0  0  0  0
   -8.0676   -5.7633    3.0978 C   0  0  1  0  0  0  0  0  0  0  0  0
   -6.8430   -5.9411    2.3598 O   0  0  0  0  0  0  0  0  0  0  0  0
   -9.1320   -6.6364    2.4568 C   0  0  0  0  0  0  0  0  0  0  0  0
   -8.8717   -6.8574    1.0169 N   0  3  0  0  0  0  0  0  0  0  0  0
    2.8622   -3.4816    1.4114 C   0  0  0  0  0  0  0  0  0  0  0  0
    0.5391   -0.6199    1.0352 C   0  0  2  0  0  0  0  0  0  0  0  0
    1.5068    0.5579    1.1229 C   0  0  2  0  0  0  0  0  0  0  0  0
    0.8881    1.7744    0.5442 N   0  3  0  0  0  0  0  0  0  0  0  0
    2.7915    0.2386    0.3702 C   0  0  1  0  0  0  0  0  0  0  0  0
    3.7118    1.3081    0.5241 O   0  0  0  0  0  0  0  0  0  0  0  0
    3.3939   -1.0552    0.9134 C   0  0  2  0  0  0  0  0  0  0  0  0
    4.5564   -1.3972    0.1696 O   0  0  0  0  0  0  0  0  0  0  0  0
    1.7420   -4.3996    1.7204 N   0  3  0  0  0  0  0  0  0  0  0  0
    2.3655   -2.1796    0.8074 C   0  0  2  0  0  0  0  0  0  0  0  0
    1.1577   -1.8145    1.5057 O   0  0  0  0  0  0  0  0  0  0  0  0
   -3.5971    1.3663    0.0307 C   0  0  2  0  0  0  0  0  0  0  0  0
   -5.0164    1.7387   -0.1701 N   0  3  0  0  0  0  0  0  0  0  0  0
   -2.8652    1.3622   -1.3066 C   0  0  0  0  0  0  0  0  0  0  0  0
   -1.4045    0.9787   -1.1157 C   0  0  2  0  0  0  0  0  0  0  0  0
   -0.7646    0.9950   -2.4236 N   0  3  0  0  0  0  0  0  0  0  0  0
   -1.3121   -0.4071   -0.4814 C   0  0  1  0  0  0  0  0  0  0  0  0
    0.0725   -0.7506   -0.2782 O   0  0  0  0  0  0  0  0  0  0  0  0
   -2.0489   -0.4400    0.8648 C   0  0  2  0  0  0  0  0  0  0  0  0
   -2.0323   -1.7830    1.3850 O   0  0  0  0  0  0  0  0  0  0  0  0
   -3.5019    0.0048    0.7172 C   0  0  1  0  0  0  0  0  0  0  0  0
   -4.1081    0.0783    2.0008 O   0  0  0  0  0  0  0  0  0  0  0  0
  1  2  1  0  0  0  0
  3  2  1  1  0  0  0
  3  5  1  0  0  0  0
  3  4  1  0  0  0  0
  4  9  1  0  0  0  0
  5  7  1  0  0  0  0
  5  6  1  6  0  0  0
  7  9  1  0  0  0  0
  7  8  1  6  0  0  0
  9 40  1  1  0  0  0
 10  6  1  6  0  0  0
 10 11  1  0  0  0  0
 10 18  1  0  0  0  0
 11 13  1  0  0  0  0
 11 12  1  6  0  0  0
 13 15  1  0  0  0  0
 13 14  1  6  0  0  0
 15 17  1  0  0  0  0
 15 16  1  6  0  0  0
 17 19  1  6  0  0  0
 17 18  1  0  0  0  0
 19 20  1  0  0  0  0
 21 29  1  0  0  0  0
 22 23  1  0  0  0  0
 22 31  1  0  0  0  0
 22 38  1  6  0  0  0
 23 25  1  0  0  0  0
 23 24  1  6  0  0  0
 25 27  1  0  0  0  0
 25 26  1  1  0  0  0
 27 30  1  0  0  0  0
 27 28  1  6  0  0  0
 30 21  1  1  0  0  0
 30 31  1  0  0  0  0
 32 34  1  0  0  0  0
 32 41  1  0  0  0  0
 32 33  1  6  0  0  0
 34 35  1  0  0  0  0
 35 37  1  0  0  0  0
 35 36  1  6  0  0  0
 37 39  1  0  0  0  0
 37 38  1  1  0  0  0
 39 41  1  0  0  0  0
 39 40  1  6  0  0  0
 41 42  1  1  0  0  0
M  CHG  6  12   1  20   1  24   1  29   1  33   1  36   1
M  END
>  <CHROM.1>
65.97734083,-68.83214355,-86.48551931,-96.59046804,-60.68481646,-56.61193788
-59.32796252,76.36817987,54.43916767,-149.31230264,-71.02840026,160.61723564
-35.27697624,-109.81893545,-75.36561863,-176.56925935,59.07706513,80.93728080
-57.37782459,102.33802324,-45.94746456,-156.35526508,-2.74784368,-2.51233717
1.36491714,2.51121722,-0.01446836,2.67137524

>  <Name>
1NEM.B

>  <RI>
0

>  <Rbt.Current_Directory>
/home/itssahil/PROJECTS/Mol_Feturizer/New_Systems/rnas/1nem

>  <Rbt.Executable>
rbdock ($Id: //depot/dev/client3/rdock/2013.1/src/exe/rbdock.cxx#4 $)

>  <Rbt.Library>
libRbt.so (2013.1, Build901 2013/11/27)

>  <Rbt.Parameter_File>
/export/apps/rDock/src/rDock_2013.1_src/data/scripts/dock_solv.prm

>  <Rbt.Receptor>
prm/blind_docking_100.prm

>  <SCORE>
-0.214513

>  <SCORE.INTER>
-24.4721

>  <SCORE.INTER.CONST>
1

>  <SCORE.INTER.POLAR>
-6.37045

>  <SCORE.INTER.ROT>
9

>  <SCORE.INTER.SOLV>
39.3126

>  <SCORE.INTER.VDW>
-17.7841

>  <SCORE.INTER.norm>
-0.58267

>  <SCORE.INTRA>
16.1267

>  <SCORE.INTRA.DIHEDRAL>
10.7997

>  <SCORE.INTRA.DIHEDRAL.0>
22.4324

>  <SCORE.INTRA.POLAR>
1.02251

>  <SCORE.INTRA.POLAR.0>
-1.83749

>  <SCORE.INTRA.REPUL>
0

>  <SCORE.INTRA.REPUL.0>
0

>  <SCORE.INTRA.SOLV>
-1.00419

>  <SCORE.INTRA.SOLV.lig_0>
-160.638

>  <SCORE.INTRA.VDW>
7.75245

>  <SCORE.INTRA.VDW.0>
-7.61953

>  <SCORE.INTRA.norm>
0.38397

>  <SCORE.RESTR>
8.13088

>  <SCORE.RESTR.CAVITY>
8.13088

>  <SCORE.RESTR.norm>
0.193592

>  <SCORE.SYSTEM>
0

>  <SCORE.SYSTEM.CONST>
0

>  <SCORE.SYSTEM.DIHEDRAL>
0

>  <SCORE.SYSTEM.SOLV>
0

>  <SCORE.SYSTEM.norm>
0

>  <SCORE.heavy>
42

>  <SCORE.norm>
-0.00510746

>  <RMSD>
8.790

$$$$
1NEM.B
 OpenBabel11021811403D
libRbt.so/2013.1/901 2013/11/27
 42 45  0  0  0  0  0  0  0  0999 V2000
   -4.3724    2.2167    0.4632 O   0  0  0  0  0  0  0  0  0  0  0  0
   -2.9775    2.0119    0.2300 C   0  0  0  0  0  0  0  0  0  0  0  0
   -2.6178    0.5442    0.0037 C   0  0  1  0  0  0  0  0  0  0  0  0
   -1.2457    0.4117   -0.3557 O   0  0  0  0  0  0  0  0  0  0  0  0
   -2.7393   -0.3362    1.2372 C   0  0  1  0  0  0  0  0  0  0  0  0
   -4.1337   -0.5123    1.4977 O   0  0  0  0  0  0  0  0  0  0  0  0
   -1.9859   -1.5536    0.7347 C   0  0  1  0  0  0  0  0  0  0  0  0
   -2.7091   -2.2548   -0.2823 O   0  0  0  0  0  0  0  0  0  0  0  0
   -0.7700   -0.8456    0.1255 C   0  0  2  0  0  0  0  0  0  0  0  0
   -4.5569   -1.8238    1.7391 C   0  0  2  0  0  0  0  0  0  0  0  0
   -6.0877   -1.8861    1.6494 C   0  0  2  0  0  0  0  0  0  0  0  0
   -6.6934   -0.8650    2.5443 N   0  3  0  0  0  0  0  0  0  0  0  0
   -6.5960   -3.2949    1.9725 C   0  0  1  0  0  0  0  0  0  0  0  0
   -6.2524   -4.1808    0.9153 O   0  0  0  0  0  0  0  0  0  0  0  0
   -6.0018   -3.8091    3.2874 C   0  0  2  0  0  0  0  0  0  0  0  0
   -6.5199   -3.0697    4.3860 O   0  0  0  0  0  0  0  0  0  0  0  0
   -4.4814   -3.6847    3.2468 C   0  0  1  0  0  0  0  0  0  0  0  0
   -4.1130   -2.3142    2.9975 O   0  0  0  0  0  0  0  0  0  0  0  0
   -3.8098   -4.1233    4.5362 C   0  0  0  0  0  0  0  0  0  0  0  0
   -2.3388   -3.9761    4.4707 N   0  3  0  0  0  0  0  0  0  0  0  0
    4.2151    0.5108    6.2840 C   0  0  0  0  0  0  0  0  0  0  0  0
    2.2858    1.2188    3.2012 C   0  0  2  0  0  0  0  0  0  0  0  0
    2.8801    2.5619    2.7844 C   0  0  2  0  0  0  0  0  0  0  0  0
    2.6030    2.8232    1.3517 N   0  3  0  0  0  0  0  0  0  0  0  0
    4.3853    2.5642    3.0155 C   0  0  1  0  0  0  0  0  0  0  0  0
    4.9138    3.8426    2.6978 O   0  0  0  0  0  0  0  0  0  0  0  0
    4.6787    2.2222    4.4746 C   0  0  2  0  0  0  0  0  0  0  0  0
    6.0835    2.1542    4.6825 O   0  0  0  0  0  0  0  0  0  0  0  0
    5.5559   -0.0607    6.5456 N   0  3  0  0  0  0  0  0  0  0  0  0
    4.0412    0.8779    4.8206 C   0  0  2  0  0  0  0  0  0  0  0  0
    2.6249    0.9169    4.5521 O   0  0  0  0  0  0  0  0  0  0  0  0
    1.7968   -3.8829    1.7045 C   0  0  2  0  0  0  0  0  0  0  0  0
    1.1960   -5.2235    1.8919 N   0  3  0  0  0  0  0  0  0  0  0  0
    2.5835   -3.4860    2.9486 C   0  0  0  0  0  0  0  0  0  0  0  0
    3.2055   -2.1080    2.7711 C   0  0  2  0  0  0  0  0  0  0  0  0
    3.9404   -1.7904    3.9873 N   0  3  0  0  0  0  0  0  0  0  0  0
    2.1107   -1.0759    2.5111 C   0  0  1  0  0  0  0  0  0  0  0  0
    2.7095    0.2202    2.3162 O   0  0  0  0  0  0  0  0  0  0  0  0
    1.2919   -1.4519    1.2683 C   0  0  2  0  0  0  0  0  0  0  0  0
    0.2061   -0.5185    1.1121 O   0  0  0  0  0  0  0  0  0  0  0  0
    0.7091   -2.8579    1.3878 C   0  0  1  0  0  0  0  0  0  0  0  0
    0.0668   -3.2102    0.1697 O   0  0  0  0  0  0  0  0  0  0  0  0
  1  2  1  0  0  0  0
  3  2  1  1  0  0  0
  3  5  1  0  0  0  0
  3  4  1  0  0  0  0
  4  9  1  0  0  0  0
  5  7  1  0  0  0  0
  5  6  1  6  0  0  0
  7  9  1  0  0  0  0
  7  8  1  6  0  0  0
  9 40  1  1  0  0  0
 10  6  1  1  0  0  0
 10 11  1  0  0  0  0
 10 18  1  0  0  0  0
 11 13  1  0  0  0  0
 11 12  1  1  0  0  0
 13 15  1  0  0  0  0
 13 14  1  6  0  0  0
 15 17  1  0  0  0  0
 15 16  1  1  0  0  0
 17 19  1  1  0  0  0
 17 18  1  0  0  0  0
 19 20  1  0  0  0  0
 21 29  1  0  0  0  0
 22 23  1  0  0  0  0
 22 31  1  0  0  0  0
 22 38  1  6  0  0  0
 23 25  1  0  0  0  0
 23 24  1  6  0  0  0
 25 27  1  0  0  0  0
 25 26  1  1  0  0  0
 27 30  1  0  0  0  0
 27 28  1  6  0  0  0
 30 21  1  1  0  0  0
 30 31  1  0  0  0  0
 32 34  1  0  0  0  0
 32 41  1  0  0  0  0
 32 33  1  1  0  0  0
 34 35  1  0  0  0  0
 35 37  1  0  0  0  0
 35 36  1  1  0  0  0
 37 39  1  0  0  0  0
 37 38  1  6  0  0  0
 39 41  1  0  0  0  0
 39 40  1  1  0  0  0
 41 42  1  6  0  0  0
M  CHG  6  12   1  20   1  24   1  29   1  33   1  36   1
M  END
>  <CHROM.1>
60.58880373,174.15815253,132.23634520,-165.98580697,167.77555316,-149.15795566
37.93543901,61.66518632,172.60826795,-179.34036566,-165.08391304,-80.69599454
-77.61549881,-173.82218813,70.16894722,-169.85161655,-53.38723947,-37.74081090
-87.56445509,-121.77283505,-170.67244000,-28.38856249,-0.39470824,-0.92925339
2.43691953,2.88454734,0.30581752,2.77149686

>  <Name>
1NEM.B

>  <RI>
0

>  <Rbt.Current_Directory>
/home/itssahil/PROJECTS/Mol_Feturizer/New_Systems/rnas/1nem

>  <Rbt.Executable>
rbdock ($Id: //depot/dev/client3/rdock/2013.1/src/exe/rbdock.cxx#4 $)

>  <Rbt.Library>
libRbt.so (2013.1, Build901 2013/11/27)

>  <Rbt.Parameter_File>
/export/apps/rDock/src/rDock_2013.1_src/data/scripts/dock_solv.prm

>  <Rbt.Receptor>
prm/blind_docking_60.prm

>  <SCORE>
-6.56336

>  <SCORE.INTER>
-29.4272

>  <SCORE.INTER.CONST>
1

>  <SCORE.INTER.POLAR>
-4.9305

>  <SCORE.INTER.ROT>
9

>  <SCORE.INTER.SOLV>
45.8565

>  <SCORE.INTER.VDW>
-28.0687

>  <SCORE.INTER.norm>
-0.700648

>  <SCORE.INTRA>
14.654

>  <SCORE.INTRA.DIHEDRAL>
9.03245

>  <SCORE.INTRA.DIHEDRAL.0>
22.4324

>  <SCORE.INTRA.POLAR>
0.124767

>  <SCORE.INTRA.POLAR.0>
-1.83749

>  <SCORE.INTRA.REPUL>
0.0949023

>  <SCORE.INTRA.REPUL.0>
0

>  <SCORE.INTRA.SOLV>
1.2034

>  <SCORE.INTRA.SOLV.lig_0>
-160.638

>  <SCORE.INTRA.VDW>
8.63733

>  <SCORE.INTRA.VDW.0>
-7.61953

>  <SCORE.INTRA.norm>
0.348904

>  <SCORE.RESTR>
8.20991

>  <SCORE.RESTR.CAVITY>
8.20991

>  <SCORE.RESTR.norm>
0.195474

>  <SCORE.SYSTEM>
0

>  <SCORE.SYSTEM.CONST>
0

>  <SCORE.SYSTEM.DIHEDRAL>
0

>  <SCORE.SYSTEM.SOLV>
0

>  <SCORE.SYSTEM.norm>
0

>  <SCORE.heavy>
42

>  <SCORE.norm>
-0.15627

>  <RMSD>
8.797

$$$$
1NEM.B
 OpenBabel11021811403D
libRbt.so/2013.1/901 2013/11/27
 42 45  0  0  0  0  0  0  0  0999 V2000
   -7.7755   -2.0577    1.4797 O   0  0  0  0  0  0  0  0  0  0  0  0
   -7.5206   -0.8740    2.2387 C   0  0  0  0  0  0  0  0  0  0  0  0
   -6.5315   -1.0976    3.3817 C   0  0  1  0  0  0  0  0  0  0  0  0
   -7.0409   -2.0515    4.3091 O   0  0  0  0  0  0  0  0  0  0  0  0
   -5.2009   -1.7007    2.9604 C   0  0  1  0  0  0  0  0  0  0  0  0
   -4.4744   -0.6840    2.2664 O   0  0  0  0  0  0  0  0  0  0  0  0
   -4.6751   -2.0939    4.3282 C   0  0  1  0  0  0  0  0  0  0  0  0
   -4.3210   -0.9545    5.1190 O   0  0  0  0  0  0  0  0  0  0  0  0
   -5.9408   -2.7532    4.8887 C   0  0  2  0  0  0  0  0  0  0  0  0
   -3.1332   -0.9650    1.9849 C   0  0  2  0  0  0  0  0  0  0  0  0
   -2.8968   -0.8425    0.4735 C   0  0  2  0  0  0  0  0  0  0  0  0
   -3.8744   -1.6839   -0.2658 N   0  3  0  0  0  0  0  0  0  0  0  0
   -1.4522   -1.2068    0.1161 C   0  0  1  0  0  0  0  0  0  0  0  0
   -0.5738   -0.1920    0.5845 O   0  0  0  0  0  0  0  0  0  0  0  0
   -1.0541   -2.5535    0.7279 C   0  0  2  0  0  0  0  0  0  0  0  0
   -1.7688   -3.6112    0.1013 O   0  0  0  0  0  0  0  0  0  0  0  0
   -1.3463   -2.5433    2.2257 C   0  0  1  0  0  0  0  0  0  0  0  0
   -2.7398   -2.2509    2.4463 O   0  0  0  0  0  0  0  0  0  0  0  0
   -1.0310   -3.8635    2.9066 C   0  0  0  0  0  0  0  0  0  0  0  0
    0.4130   -4.1824    2.8514 N   0  3  0  0  0  0  0  0  0  0  0  0
   -8.7116   -4.7653    0.9829 C   0  0  0  0  0  0  0  0  0  0  0  0
   -7.6751   -6.3189    4.1828 C   0  0  2  0  0  0  0  0  0  0  0  0
   -8.7294   -7.4129    4.3336 C   0  0  2  0  0  0  0  0  0  0  0  0
   -8.2604   -8.4501    5.2832 N   0  3  0  0  0  0  0  0  0  0  0  0
   -9.0142   -8.0570    2.9834 C   0  0  1  0  0  0  0  0  0  0  0  0
  -10.0500   -9.0172    3.1231 O   0  0  0  0  0  0  0  0  0  0  0  0
   -9.4265   -6.9814    1.9810 C   0  0  2  0  0  0  0  0  0  0  0  0
   -9.6271   -7.5652    0.7002 O   0  0  0  0  0  0  0  0  0  0  0  0
   -8.7752   -5.1927   -0.4335 N   0  3  0  0  0  0  0  0  0  0  0  0
   -8.3333   -5.9179    1.8967 C   0  0  2  0  0  0  0  0  0  0  0  0
   -8.0777   -5.3647    3.2037 O   0  0  0  0  0  0  0  0  0  0  0  0
   -4.0894   -5.6988    7.2094 C   0  0  2  0  0  0  0  0  0  0  0  0
   -2.9467   -5.1914    8.0033 N   0  3  0  0  0  0  0  0  0  0  0  0
   -3.6710   -6.9388    6.4275 C   0  0  0  0  0  0  0  0  0  0  0  0
   -4.8360   -7.4704    5.6044 C   0  0  2  0  0  0  0  0  0  0  0  0
   -4.3733   -8.6496    4.8865 N   0  3  0  0  0  0  0  0  0  0  0  0
   -5.3163   -6.3949    4.6328 C   0  0  1  0  0  0  0  0  0  0  0  0
   -6.4366   -6.8959    3.8777 O   0  0  0  0  0  0  0  0  0  0  0  0
   -5.7365   -5.1267    5.3887 C   0  0  2  0  0  0  0  0  0  0  0  0
   -6.0837   -4.0994    4.4407 O   0  0  0  0  0  0  0  0  0  0  0  0
   -4.6089   -4.6061    6.2764 C   0  0  1  0  0  0  0  0  0  0  0  0
   -5.0805   -3.5094    7.0481 O   0  0  0  0  0  0  0  0  0  0  0  0
  1  2  1  0  0  0  0
  3  2  1  6  0  0  0
  3  5  1  0  0  0  0
  3  4  1  0  0  0  0
  4  9  1  0  0  0  0
  5  7  1  0  0  0  0
  5  6  1  1  0  0  0
  7  9  1  0  0  0  0
  7  8  1  1  0  0  0
  9 40  1  6  0  0  0
 10  6  1  6  0  0  0
 10 11  1  0  0  0  0
 10 18  1  0  0  0  0
 11 13  1  0  0  0  0
 11 12  1  6  0  0  0
 13 15  1  0  0  0  0
 13 14  1  1  0  0  0
 15 17  1  0  0  0  0
 15 16  1  6  0  0  0
 17 19  1  6  0  0  0
 17 18  1  0  0  0  0
 19 20  1  0  0  0  0
 21 29  1  0  0  0  0
 22 23  1  0  0  0  0
 22 31  1  0  0  0  0
 22 38  1  6  0  0  0
 23 25  1  0  0  0  0
 23 24  1  1  0  0  0
 25 27  1  0  0  0  0
 25 26  1  1  0  0  0
 27 30  1  0  0  0  0
 27 28  1  6  0  0  0
 30 21  1  6  0  0  0
 30 31  1  0  0  0  0
 32 34  1  0  0  0  0
 32 41  1  0  0  0  0
 32 33  1  6  0  0  0
 34 35  1  0  0  0  0
 35 37  1  0  0  0  0
 35 36  1  6  0  0  0
 37 39  1  0  0  0  0
 37 38  1  1  0  0  0
 39 41  1  0  0  0  0
 39 40  1  6  0  0  0
 41 42  1  1  0  0  0
M  CHG  6  12   1  20   1  24   1  29   1  33   1  36   1
M  END
>  <CHROM.1>
-51.62019602,-61.47485408,169.86183490,123.50594004,62.65383943,-142.67322558
-176.13522262,-173.23998027,57.09450499,64.11499549,-156.32564904,-68.16154539
68.29817396,-133.89158717,-63.51611386,72.65126801,64.55914093,-86.87849015
71.62842980,109.67857024,-154.02080387,76.40592873,-5.30289471,-4.24979592
3.24111709,0.62899604,-0.47611820,-0.87314427

>  <Name>
1NEM.B

>  <RI>
0

>  <Rbt.Current_Directory>
/home/itssahil/PROJECTS/Mol_Feturizer/New_Systems/rnas/1nem

>  <Rbt.Executable>
rbdock ($Id: //depot/dev/client3/rdock/2013.1/src/exe/rbdock.cxx#4 $)

>  <Rbt.Library>
libRbt.so (2013.1, Build901 2013/11/27)

>  <Rbt.Parameter_File>
/export/apps/rDock/src/rDock_2013.1_src/data/scripts/dock_solv.prm

>  <Rbt.Receptor>
prm/blind_docking_100.prm

>  <SCORE>
0.0290446

>  <SCORE.INTER>
-27.6718

>  <SCORE.INTER.CONST>
1

>  <SCORE.INTER.POLAR>
-5.12643

>  <SCORE.INTER.ROT>
9

>  <SCORE.INTER.SOLV>
41.5343

>  <SCORE.INTER.VDW>
-24.8046

>  <SCORE.INTER.norm>
-0.658853

>  <SCORE.INTRA>
22.9017

>  <SCORE.INTRA.DIHEDRAL>
12.9756

>  <SCORE.INTRA.DIHEDRAL.0>
22.4324

>  <SCORE.INTRA.POLAR>
1.26476

>  <SCORE.INTRA.POLAR.0>
-1.83749

>  <SCORE.INTRA.REPUL>
0

>  <SCORE.INTRA.REPUL.0>
0

>  <SCORE.INTRA.SOLV>
-1.80527

>  <SCORE.INTRA.SOLV.lig_0>
-160.638

>  <SCORE.INTRA.VDW>
13.0164

>  <SCORE.INTRA.VDW.0>
-7.61953

>  <SCORE.INTRA.norm>
0.54528

>  <SCORE.RESTR>
4.79915

>  <SCORE.RESTR.CAVITY>
4.79915

>  <SCORE.RESTR.norm>
0.114265

>  <SCORE.SYSTEM>
0

>  <SCORE.SYSTEM.CONST>
0

>  <SCORE.SYSTEM.DIHEDRAL>
0

>  <SCORE.SYSTEM.SOLV>
0

>  <SCORE.SYSTEM.norm>
0

>  <SCORE.heavy>
42

>  <SCORE.norm>
0.000691538

>  <RMSD>
8.801

$$$$
1NEM.B
 OpenBabel11021811403D
libRbt.so/2013.1/901 2013/11/27
 42 45  0  0  0  0  0  0  0  0999 V2000
   -2.7662   -0.2364   -0.2303 O   0  0  0  0  0  0  0  0  0  0  0  0
   -1.5387    0.3334    0.2289 C   0  0  0  0  0  0  0  0  0  0  0  0
   -0.3497   -0.6163    0.0911 C   0  0  1  0  0  0  0  0  0  0  0  0
    0.8773    0.0821    0.2811 O   0  0  0  0  0  0  0  0  0  0  0  0
   -0.2894   -1.7140    1.1414 C   0  0  1  0  0  0  0  0  0  0  0  0
   -1.3263   -2.6499    0.8376 O   0  0  0  0  0  0  0  0  0  0  0  0
    1.1347   -2.1839    0.9118 C   0  0  1  0  0  0  0  0  0  0  0  0
    1.2831   -2.8694   -0.3361 O   0  0  0  0  0  0  0  0  0  0  0  0
    1.8285   -0.8180    0.8499 C   0  0  2  0  0  0  0  0  0  0  0  0
   -2.3032   -2.8318    1.8224 C   0  0  2  0  0  0  0  0  0  0  0  0
   -2.7151   -4.3098    1.8596 C   0  0  2  0  0  0  0  0  0  0  0  0
   -3.1132   -4.7630    0.5008 N   0  3  0  0  0  0  0  0  0  0  0  0
   -3.8323   -4.5390    2.8828 C   0  0  1  0  0  0  0  0  0  0  0  0
   -3.3121   -4.3964    4.1979 O   0  0  0  0  0  0  0  0  0  0  0  0
   -4.9833   -3.5498    2.6754 C   0  0  2  0  0  0  0  0  0  0  0  0
   -5.6621   -3.8301    1.4577 O   0  0  0  0  0  0  0  0  0  0  0  0
   -4.4374   -2.1249    2.6511 C   0  0  1  0  0  0  0  0  0  0  0  0
   -3.4409   -2.0045    1.6174 O   0  0  0  0  0  0  0  0  0  0  0  0
   -5.5071   -1.0779    2.3951 C   0  0  0  0  0  0  0  0  0  0  0  0
   -4.9372    0.1697    1.8394 N   0  3  0  0  0  0  0  0  0  0  0  0
    5.3221    3.3289   -2.7584 C   0  0  0  0  0  0  0  0  0  0  0  0
    3.4317    3.1511    0.4231 C   0  0  2  0  0  0  0  0  0  0  0  0
    2.0213    3.4895   -0.0535 C   0  0  2  0  0  0  0  0  0  0  0  0
    1.0205    3.0341    0.9407 N   0  3  0  0  0  0  0  0  0  0  0  0
    1.7444    2.8177   -1.3919 C   0  0  1  0  0  0  0  0  0  0  0  0
    0.4611    3.2021   -1.8610 O   0  0  0  0  0  0  0  0  0  0  0  0
    2.8163    3.2259   -2.4000 C   0  0  2  0  0  0  0  0  0  0  0  0
    2.6045    2.5489   -3.6322 O   0  0  0  0  0  0  0  0  0  0  0  0
    5.3601    2.5433   -4.0131 N   0  3  0  0  0  0  0  0  0  0  0  0
    4.1957    2.8714   -1.8481 C   0  0  2  0  0  0  0  0  0  0  0  0
    4.3946    3.5029   -0.5669 O   0  0  0  0  0  0  0  0  0  0  0  0
    5.1648    0.1231    4.2994 C   0  0  2  0  0  0  0  0  0  0  0  0
    5.3950   -0.1680    5.7331 N   0  3  0  0  0  0  0  0  0  0  0  0
    5.3611    1.6110    4.0318 C   0  0  0  0  0  0  0  0  0  0  0  0
    5.1253    1.9256    2.5611 C   0  0  2  0  0  0  0  0  0  0  0  0
    5.3290    3.3550    2.3726 N   0  3  0  0  0  0  0  0  0  0  0  0
    3.7069    1.5210    2.1665 C   0  0  1  0  0  0  0  0  0  0  0  0
    3.5012    1.7958    0.7671 O   0  0  0  0  0  0  0  0  0  0  0  0
    3.4726    0.0276    2.4332 C   0  0  2  0  0  0  0  0  0  0  0  0
    2.0983   -0.2977    2.1497 O   0  0  0  0  0  0  0  0  0  0  0  0
    3.7660   -0.3328    3.8874 C   0  0  1  0  0  0  0  0  0  0  0  0
    3.6570   -1.7397    4.0587 O   0  0  0  0  0  0  0  0  0  0  0  0
  1  2  1  0  0  0  0
  3  2  1  1  0  0  0
  3  5  1  0  0  0  0
  3  4  1  0  0  0  0
  4  9  1  0  0  0  0
  5  7  1  0  0  0  0
  5  6  1  6  0  0  0
  7  9  1  0  0  0  0
  7  8  1  6  0  0  0
  9 40  1  1  0  0  0
 10  6  1  6  0  0  0
 10 11  1  0  0  0  0
 10 18  1  0  0  0  0
 11 13  1  0  0  0  0
 11 12  1  6  0  0  0
 13 15  1  0  0  0  0
 13 14  1  1  0  0  0
 15 17  1  0  0  0  0
 15 16  1  6  0  0  0
 17 19  1  6  0  0  0
 17 18  1  0  0  0  0
 19 20  1  0  0  0  0
 21 29  1  0  0  0  0
 22 23  1  0  0  0  0
 22 31  1  0  0  0  0
 22 38  1  6  0  0  0
 23 25  1  0  0  0  0
 23 24  1  1  0  0  0
 25 27  1  0  0  0  0
 25 26  1  6  0  0  0
 27 30  1  0  0  0  0
 27 28  1  6  0  0  0
 30 21  1  6  0  0  0
 30 31  1  0  0  0  0
 32 34  1  0  0  0  0
 32 41  1  0  0  0  0
 32 33  1  1  0  0  0
 34 35  1  0  0  0  0
 35 37  1  0  0  0  0
 35 36  1  1  0  0  0
 37 39  1  0  0  0  0
 37 38  1  6  0  0  0
 39 41  1  0  0  0  0
 39 40  1  1  0  0  0
 41 42  1  6  0  0  0
M  CHG  6  12   1  20   1  24   1  29   1  33   1  36   1
M  END
>  <CHROM.1>
55.29609261,167.31302849,-119.45196255,-142.77353896,-72.37393464,-121.83970023
170.23376081,-62.52159469,179.34912465,-156.80993585,-58.75266578,-69.52714911
76.45059961,-113.01895077,53.19364086,-173.82580254,-48.45210886,-167.46492973
166.71479162,-70.05757402,95.35603066,60.13609836,0.79284342,-0.06616799
1.04558537,2.66223917,0.41030570,2.16040659

>  <Name>
1NEM.B

>  <RI>
0

>  <Rbt.Current_Directory>
/home/itssahil/PROJECTS/Mol_Feturizer/New_Systems/rnas/1nem

>  <Rbt.Executable>
rbdock ($Id: //depot/dev/client3/rdock/2013.1/src/exe/rbdock.cxx#4 $)

>  <Rbt.Library>
libRbt.so (2013.1, Build901 2013/11/27)

>  <Rbt.Parameter_File>
/export/apps/rDock/src/rDock_2013.1_src/data/scripts/dock_solv.prm

>  <Rbt.Receptor>
prm/pocket_docking_8.prm

>  <SCORE>
-32.3207

>  <SCORE.INTER>
-33.1344

>  <SCORE.INTER.CONST>
1

>  <SCORE.INTER.POLAR>
-4.93966

>  <SCORE.INTER.ROT>
9

>  <SCORE.INTER.SOLV>
29.393

>  <SCORE.INTER.VDW>
-25.0217

>  <SCORE.INTER.norm>
-0.788914

>  <SCORE.INTRA>
0.813673

>  <SCORE.INTRA.DIHEDRAL>
14.8949

>  <SCORE.INTRA.DIHEDRAL.0>
22.4324

>  <SCORE.INTRA.POLAR>
-2.89906

>  <SCORE.INTRA.POLAR.0>
-1.83749

>  <SCORE.INTRA.REPUL>
0.0415511

>  <SCORE.INTRA.REPUL.0>
0

>  <SCORE.INTRA.SOLV>
2.05075

>  <SCORE.INTRA.SOLV.lig_0>
-160.638

>  <SCORE.INTRA.VDW>
1.98989

>  <SCORE.INTRA.VDW.0>
-7.61953

>  <SCORE.INTRA.norm>
0.0193732

>  <SCORE.RESTR>
0

>  <SCORE.RESTR.CAVITY>
0

>  <SCORE.RESTR.norm>
0

>  <SCORE.SYSTEM>
0

>  <SCORE.SYSTEM.CONST>
0

>  <SCORE.SYSTEM.DIHEDRAL>
0

>  <SCORE.SYSTEM.SOLV>
0

>  <SCORE.SYSTEM.norm>
0

>  <SCORE.heavy>
42

>  <SCORE.norm>
-0.769541

>  <RMSD>
8.807

$$$$
1NEM.B
 OpenBabel11021811403D
libRbt.so/2013.1/901 2013/11/27
 42 45  0  0  0  0  0  0  0  0999 V2000
   -4.6890   -0.8972    4.3663 O   0  0  0  0  0  0  0  0  0  0  0  0
   -5.6464   -0.7721    3.3127 C   0  0  0  0  0  0  0  0  0  0  0  0
   -5.1562   -1.3522    1.9869 C   0  0  1  0  0  0  0  0  0  0  0  0
   -4.1500   -0.5215    1.4151 O   0  0  0  0  0  0  0  0  0  0  0  0
   -4.4666   -2.7023    2.1014 C   0  0  1  0  0  0  0  0  0  0  0  0
   -5.4778   -3.6734    2.3802 O   0  0  0  0  0  0  0  0  0  0  0  0
   -3.8324   -2.7623    0.7244 C   0  0  1  0  0  0  0  0  0  0  0  0
   -4.8047   -2.9399   -0.3111 O   0  0  0  0  0  0  0  0  0  0  0  0
   -3.2534   -1.3437    0.6677 C   0  0  2  0  0  0  0  0  0  0  0  0
   -5.0852   -4.7700    3.1552 C   0  0  2  0  0  0  0  0  0  0  0  0
   -6.1833   -5.8412    3.1093 C   0  0  2  0  0  0  0  0  0  0  0  0
   -7.4913   -5.2479    3.4932 N   0  3  0  0  0  0  0  0  0  0  0  0
   -5.8194   -7.0337    3.9999 C   0  0  1  0  0  0  0  0  0  0  0  0
   -4.7461   -7.7579    3.4134 O   0  0  0  0  0  0  0  0  0  0  0  0
   -5.4210   -6.5729    5.4053 C   0  0  2  0  0  0  0  0  0  0  0  0
   -6.5507   -6.0496    6.0923 O   0  0  0  0  0  0  0  0  0  0  0  0
   -4.3322   -5.5081    5.3070 C   0  0  1  0  0  0  0  0  0  0  0  0
   -4.7994   -4.4094    4.5003 O   0  0  0  0  0  0  0  0  0  0  0  0
   -3.9132   -4.9533    6.6570 C   0  0  0  0  0  0  0  0  0  0  0  0
   -2.7213   -4.0827    6.5505 N   0  3  0  0  0  0  0  0  0  0  0  0
    0.4821    4.3302    1.2972 C   0  0  0  0  0  0  0  0  0  0  0  0
   -1.8076    1.5959    0.2931 C   0  0  2  0  0  0  0  0  0  0  0  0
   -2.7604    2.3383   -0.6408 C   0  0  2  0  0  0  0  0  0  0  0  0
   -3.4720    1.3776   -1.5173 N   0  3  0  0  0  0  0  0  0  0  0  0
   -1.9867    3.3283   -1.5011 C   0  0  1  0  0  0  0  0  0  0  0  0
   -2.8914    4.0661   -2.3084 O   0  0  0  0  0  0  0  0  0  0  0  0
   -1.1926    4.2742   -0.6029 C   0  0  2  0  0  0  0  0  0  0  0  0
   -0.4134    5.1574   -1.3993 O   0  0  0  0  0  0  0  0  0  0  0  0
    1.7975    3.7424    1.6395 N   0  3  0  0  0  0  0  0  0  0  0  0
   -0.2772    3.4608    0.3101 C   0  0  2  0  0  0  0  0  0  0  0  0
   -1.0527    2.5167    1.0763 O   0  0  0  0  0  0  0  0  0  0  0  0
    1.4247   -2.6004    0.5776 C   0  0  2  0  0  0  0  0  0  0  0  0
    2.3158   -3.4945    1.3520 N   0  3  0  0  0  0  0  0  0  0  0  0
    2.0989   -1.2497    0.3649 C   0  0  0  0  0  0  0  0  0  0  0  0
    1.1927   -0.3187   -0.4285 C   0  0  2  0  0  0  0  0  0  0  0  0
    1.8923    0.9471   -0.5978 N   0  3  0  0  0  0  0  0  0  0  0  0
   -0.1238   -0.1177    0.3183 C   0  0  1  0  0  0  0  0  0  0  0  0
   -0.9864    0.7416   -0.4524 O   0  0  0  0  0  0  0  0  0  0  0  0
   -0.8246   -1.4622    0.5579 C   0  0  2  0  0  0  0  0  0  0  0  0
   -2.0066   -1.2490    1.3529 O   0  0  0  0  0  0  0  0  0  0  0  0
    0.0847   -2.4426    1.2944 C   0  0  1  0  0  0  0  0  0  0  0  0
   -0.5561   -3.7083    1.3840 O   0  0  0  0  0  0  0  0  0  0  0  0
  1  2  1  0  0  0  0
  3  2  1  1  0  0  0
  3  5  1  0  0  0  0
  3  4  1  0  0  0  0
  4  9  1  0  0  0  0
  5  7  1  0  0  0  0
  5  6  1  6  0  0  0
  7  9  1  0  0  0  0
  7  8  1  6  0  0  0
  9 40  1  1  0  0  0
 10  6  1  6  0  0  0
 10 11  1  0  0  0  0
 10 18  1  0  0  0  0
 11 13  1  0  0  0  0
 11 12  1  1  0  0  0
 13 15  1  0  0  0  0
 13 14  1  6  0  0  0
 15 17  1  0  0  0  0
 15 16  1  6  0  0  0
 17 19  1  1  0  0  0
 17 18  1  0  0  0  0
 19 20  1  0  0  0  0
 21 29  1  0  0  0  0
 22 23  1  0  0  0  0
 22 31  1  0  0  0  0
 22 38  1  6  0  0  0
 23 25  1  0  0  0  0
 23 24  1  6  0  0  0
 25 27  1  0  0  0  0
 25 26  1  1  0  0  0
 27 30  1  0  0  0  0
 27 28  1  6  0  0  0
 30 21  1  1  0  0  0
 30 31  1  0  0  0  0
 32 34  1  0  0  0  0
 32 41  1  0  0  0  0
 32 33  1  1  0  0  0
 34 35  1  0  0  0  0
 35 37  1  0  0  0  0
 35 36  1  1  0  0  0
 37 39  1  0  0  0  0
 37 38  1  6  0  0  0
 39 41  1  0  0  0  0
 39 40  1  1  0  0  0
 41 42  1  6  0  0  0
M  CHG  6  12   1  20   1  24   1  29   1  33   1  36   1
M  END
>  <CHROM.1>
-170.97305121,-72.09139317,-148.94688235,-168.13462732,-50.34638272,-153.45043105
51.76131742,-157.30199286,75.08494233,171.22630389,60.52369963,-149.61627527
-54.06890093,-174.27236913,89.29697870,-174.30537795,-56.02511103,-17.72083578
-169.70635508,-145.71154659,106.18701006,-50.51438284,-2.56351146,-1.37694976
1.69359167,2.06197427,-0.10359856,2.66492591

>  <Name>
1NEM.B

>  <RI>
0

>  <Rbt.Current_Directory>
/home/itssahil/PROJECTS/Mol_Feturizer/New_Systems/rnas/1nem

>  <Rbt.Executable>
rbdock ($Id: //depot/dev/client3/rdock/2013.1/src/exe/rbdock.cxx#4 $)

>  <Rbt.Library>
libRbt.so (2013.1, Build901 2013/11/27)

>  <Rbt.Parameter_File>
/export/apps/rDock/src/rDock_2013.1_src/data/scripts/dock_solv.prm

>  <Rbt.Receptor>
prm/pocket_docking_6.prm

>  <SCORE>
-37.2132

>  <SCORE.INTER>
-44.5464

>  <SCORE.INTER.CONST>
1

>  <SCORE.INTER.POLAR>
-6.54949

>  <SCORE.INTER.ROT>
9

>  <SCORE.INTER.SOLV>
37.2758

>  <SCORE.INTER.VDW>
-29.8912

>  <SCORE.INTER.norm>
-1.06063

>  <SCORE.INTRA>
7.33319

>  <SCORE.INTRA.DIHEDRAL>
9.73697

>  <SCORE.INTRA.DIHEDRAL.0>
22.4324

>  <SCORE.INTRA.POLAR>
1.07346

>  <SCORE.INTRA.POLAR.0>
-1.83749

>  <SCORE.INTRA.REPUL>
0.02094

>  <SCORE.INTRA.REPUL.0>
0

>  <SCORE.INTRA.SOLV>
-3.25309

>  <SCORE.INTRA.SOLV.lig_0>
-160.638

>  <SCORE.INTRA.VDW>
0.336785

>  <SCORE.INTRA.VDW.0>
-7.61953

>  <SCORE.INTRA.norm>
0.1746

>  <SCORE.RESTR>
0

>  <SCORE.RESTR.CAVITY>
0

>  <SCORE.RESTR.norm>
0

>  <SCORE.SYSTEM>
0

>  <SCORE.SYSTEM.CONST>
0

>  <SCORE.SYSTEM.DIHEDRAL>
0

>  <SCORE.SYSTEM.SOLV>
0

>  <SCORE.SYSTEM.norm>
0

>  <SCORE.heavy>
42

>  <SCORE.norm>
-0.886029

>  <RMSD>
8.810

$$$$
1NEM.B
 OpenBabel11021811403D
libRbt.so/2013.1/901 2013/11/27
 42 45  0  0  0  0  0  0  0  0999 V2000
   -3.4202    2.5215    1.2212 O   0  0  0  0  0  0  0  0  0  0  0  0
   -4.2580    1.9196    0.2323 C   0  0  0  0  0  0  0  0  0  0  0  0
   -3.7568    0.5500   -0.2234 C   0  0  1  0  0  0  0  0  0  0  0  0
   -2.4853    0.6639   -0.8557 O   0  0  0  0  0  0  0  0  0  0  0  0
   -3.4960   -0.4371    0.9032 C   0  0  1  0  0  0  0  0  0  0  0  0
   -4.7676   -0.8502    1.4089 O   0  0  0  0  0  0  0  0  0  0  0  0
   -2.7056   -1.4760    0.1300 C   0  0  1  0  0  0  0  0  0  0  0  0
   -3.5230   -2.1957   -0.7990 O   0  0  0  0  0  0  0  0  0  0  0  0
   -1.7524   -0.5387   -0.6209 C   0  0  2  0  0  0  0  0  0  0  0  0
   -4.8430   -2.1583    1.8991 C   0  0  2  0  0  0  0  0  0  0  0  0
   -6.2907   -2.6563    1.7920 C   0  0  2  0  0  0  0  0  0  0  0  0
   -7.2116   -1.6935    2.4517 N   0  3  0  0  0  0  0  0  0  0  0  0
   -6.4279   -4.0645    2.3799 C   0  0  1  0  0  0  0  0  0  0  0  0
   -5.7827   -5.0024    1.5287 O   0  0  0  0  0  0  0  0  0  0  0  0
   -5.8182   -4.1396    3.7831 C   0  0  2  0  0  0  0  0  0  0  0  0
   -6.5952   -3.3803    4.7006 O   0  0  0  0  0  0  0  0  0  0  0  0
   -4.3872   -3.6104    3.7499 C   0  0  1  0  0  0  0  0  0  0  0  0
   -4.3798   -2.2632    3.2391 O   0  0  0  0  0  0  0  0  0  0  0  0
   -3.7213   -3.5978    5.1147 C   0  0  0  0  0  0  0  0  0  0  0  0
   -3.3983   -4.9634    5.5843 N   0  3  0  0  0  0  0  0  0  0  0  0
    0.7130    5.6575   -0.0577 C   0  0  0  0  0  0  0  0  0  0  0  0
    0.0738    2.0915   -0.8339 C   0  0  2  0  0  0  0  0  0  0  0  0
   -0.5929    2.2035   -2.2028 C   0  0  2  0  0  0  0  0  0  0  0  0
   -0.5223    0.9057   -2.9157 N   0  3  0  0  0  0  0  0  0  0  0  0
    0.0970    3.2750   -3.0364 C   0  0  1  0  0  0  0  0  0  0  0  0
   -0.5796    3.4234   -4.2753 O   0  0  0  0  0  0  0  0  0  0  0  0
    0.0923    4.5978   -2.2735 C   0  0  2  0  0  0  0  0  0  0  0  0
    0.7954    5.5865   -3.0149 O   0  0  0  0  0  0  0  0  0  0  0  0
    1.5882    6.7201   -0.6035 N   0  3  0  0  0  0  0  0  0  0  0  0
    0.7590    4.4033   -0.9130 C   0  0  2  0  0  0  0  0  0  0  0  0
    0.0915    3.3570   -0.1787 O   0  0  0  0  0  0  0  0  0  0  0  0
    2.4208   -2.3273    0.3809 C   0  0  2  0  0  0  0  0  0  0  0  0
    2.7645   -3.4432    1.2919 N   0  3  0  0  0  0  0  0  0  0  0  0
    3.4294   -1.1952    0.5400 C   0  0  0  0  0  0  0  0  0  0  0  0
    3.0870   -0.0393   -0.3895 C   0  0  2  0  0  0  0  0  0  0  0  0
    4.0841    1.0031   -0.1908 N   0  3  0  0  0  0  0  0  0  0  0  0
    1.6861    0.4800   -0.0750 C   0  0  1  0  0  0  0  0  0  0  0  0
    1.3588    1.5547   -0.9773 O   0  0  0  0  0  0  0  0  0  0  0  0
    0.6458   -0.6398   -0.2165 C   0  0  2  0  0  0  0  0  0  0  0  0
   -0.6454   -0.1452    0.1871 O   0  0  0  0  0  0  0  0  0  0  0  0
    0.9980   -1.8428    0.6550 C   0  0  1  0  0  0  0  0  0  0  0  0
    0.0810   -2.8984    0.3996 O   0  0  0  0  0  0  0  0  0  0  0  0
  1  2  1  0  0  0  0
  3  2  1  1  0  0  0
  3  5  1  0  0  0  0
  3  4  1  0  0  0  0
  4  9  1  0  0  0  0
  5  7  1  0  0  0  0
  5  6  1  6  0  0  0
  7  9  1  0  0  0  0
  7  8  1  6  0  0  0
  9 40  1  1  0  0  0
 10  6  1  1  0  0  0
 10 11  1  0  0  0  0
 10 18  1  0  0  0  0
 11 13  1  0  0  0  0
 11 12  1  1  0  0  0
 13 15  1  0  0  0  0
 13 14  1  6  0  0  0
 15 17  1  0  0  0  0
 15 16  1  1  0  0  0
 17 19  1  1  0  0  0
 17 18  1  0  0  0  0
 19 20  1  0  0  0  0
 21 29  1  0  0  0  0
 22 23  1  0  0  0  0
 22 31  1  0  0  0  0
 22 38  1  6  0  0  0
 23 25  1  0  0  0  0
 23 24  1  6  0  0  0
 25 27  1  0  0  0  0
 25 26  1  6  0  0  0
 27 30  1  0  0  0  0
 27 28  1  6  0  0  0
 30 21  1  1  0  0  0
 30 31  1  0  0  0  0
 32 34  1  0  0  0  0
 32 41  1  0  0  0  0
 32 33  1  1  0  0  0
 34 35  1  0  0  0  0
 35 37  1  0  0  0  0
 35 36  1  1  0  0  0
 37 39  1  0  0  0  0
 37 38  1  6  0  0  0
 39 41  1  0  0  0  0
 39 40  1  1  0  0  0
 41 42  1  6  0  0  0
M  CHG  6  12   1  20   1  24   1  29   1  33   1  36   1
M  END
>  <CHROM.1>
61.49686770,-63.19561482,147.97614775,-154.20933613,170.58254531,-132.81367204
75.76636238,-170.92870613,48.25970450,71.57020379,140.71096282,-69.39302360
51.77619382,-132.14899993,-24.46580221,40.00582202,65.28299958,-149.76072114
67.64130859,177.57072091,138.44504442,65.86936309,-1.59442317,-0.10796868
0.45443669,0.90368770,0.14969985,-0.48712985

>  <Name>
1NEM.B

>  <RI>
0

>  <Rbt.Current_Directory>
/home/itssahil/PROJECTS/Mol_Feturizer/New_Systems/rnas/1nem

>  <Rbt.Executable>
rbdock ($Id: //depot/dev/client3/rdock/2013.1/src/exe/rbdock.cxx#4 $)

>  <Rbt.Library>
libRbt.so (2013.1, Build901 2013/11/27)

>  <Rbt.Parameter_File>
/export/apps/rDock/src/rDock_2013.1_src/data/scripts/dock_solv.prm

>  <Rbt.Receptor>
prm/pocket_docking_6.prm

>  <SCORE>
-32.2461

>  <SCORE.INTER>
-45.8539

>  <SCORE.INTER.CONST>
1

>  <SCORE.INTER.POLAR>
-7.36551

>  <SCORE.INTER.ROT>
9

>  <SCORE.INTER.SOLV>
35.3058

>  <SCORE.INTER.VDW>
-27.3862

>  <SCORE.INTER.norm>
-1.09176

>  <SCORE.INTRA>
13.6078

>  <SCORE.INTRA.DIHEDRAL>
15.321

>  <SCORE.INTRA.DIHEDRAL.0>
22.4324

>  <SCORE.INTRA.POLAR>
0.692047

>  <SCORE.INTRA.POLAR.0>
-1.83749

>  <SCORE.INTRA.REPUL>
0

>  <SCORE.INTRA.REPUL.0>
0

>  <SCORE.INTRA.SOLV>
-2.4667

>  <SCORE.INTRA.SOLV.lig_0>
-160.638

>  <SCORE.INTRA.VDW>
4.82768

>  <SCORE.INTRA.VDW.0>
-7.61953

>  <SCORE.INTRA.norm>
0.323995

>  <SCORE.RESTR>
0

>  <SCORE.RESTR.CAVITY>
0

>  <SCORE.RESTR.norm>
0

>  <SCORE.SYSTEM>
0

>  <SCORE.SYSTEM.CONST>
0

>  <SCORE.SYSTEM.DIHEDRAL>
0

>  <SCORE.SYSTEM.SOLV>
0

>  <SCORE.SYSTEM.norm>
0

>  <SCORE.heavy>
42

>  <SCORE.norm>
-0.767765

>  <RMSD>
8.813

$$$$
1NEM.B
 OpenBabel11021811403D
libRbt.so/2013.1/901 2013/11/27
 42 45  0  0  0  0  0  0  0  0999 V2000
   -6.5150   -1.2364    2.0786 O   0  0  0  0  0  0  0  0  0  0  0  0
   -5.7604   -2.1749    2.8479 C   0  0  0  0  0  0  0  0  0  0  0  0
   -4.9780   -3.1640    1.9852 C   0  0  1  0  0  0  0  0  0  0  0  0
   -4.0637   -2.4774    1.1353 O   0  0  0  0  0  0  0  0  0  0  0  0
   -4.0810   -4.1133    2.7634 C   0  0  1  0  0  0  0  0  0  0  0  0
   -4.9302   -5.0551    3.4231 O   0  0  0  0  0  0  0  0  0  0  0  0
   -3.2449   -4.6451    1.6145 C   0  0  1  0  0  0  0  0  0  0  0  0
   -4.0005   -5.4941    0.7441 O   0  0  0  0  0  0  0  0  0  0  0  0
   -2.9304   -3.3174    0.9152 C   0  0  2  0  0  0  0  0  0  0  0  0
   -5.7001   -4.5588    4.4806 C   0  0  2  0  0  0  0  0  0  0  0  0
   -4.7840   -4.2520    5.6730 C   0  0  2  0  0  0  0  0  0  0  0  0
   -3.9667   -5.4474    6.0096 N   0  3  0  0  0  0  0  0  0  0  0  0
   -5.5991   -3.7666    6.8762 C   0  0  1  0  0  0  0  0  0  0  0  0
   -6.1063   -2.4645    6.6155 O   0  0  0  0  0  0  0  0  0  0  0  0
   -6.7599   -4.7193    7.1782 C   0  0  2  0  0  0  0  0  0  0  0  0
   -6.2659   -5.9618    7.6623 O   0  0  0  0  0  0  0  0  0  0  0  0
   -7.5824   -4.9435    5.9125 C   0  0  1  0  0  0  0  0  0  0  0  0
   -6.7338   -5.4552    4.8665 O   0  0  0  0  0  0  0  0  0  0  0  0
   -8.7274   -5.9218    6.1076 C   0  0  0  0  0  0  0  0  0  0  0  0
   -9.6913   -5.4480    7.1257 N   0  3  0  0  0  0  0  0  0  0  0  0
   -0.8430    3.7192    0.7067 C   0  0  0  0  0  0  0  0  0  0  0  0
   -2.2218    0.2843    0.5411 C   0  0  2  0  0  0  0  0  0  0  0  0
   -3.4685    0.5086   -0.3111 C   0  0  2  0  0  0  0  0  0  0  0  0
   -3.9283   -0.7739   -0.8953 N   0  3  0  0  0  0  0  0  0  0  0  0
   -3.1673    1.4942   -1.4323 C   0  0  1  0  0  0  0  0  0  0  0  0
   -4.3523    1.7535   -2.1692 O   0  0  0  0  0  0  0  0  0  0  0  0
   -2.6227    2.7918   -0.8394 C   0  0  2  0  0  0  0  0  0  0  0  0
   -2.2741    3.6918   -1.8834 O   0  0  0  0  0  0  0  0  0  0  0  0
   -0.2950    4.6940   -0.2642 N   0  3  0  0  0  0  0  0  0  0  0  0
   -1.3905    2.4858    0.0098 C   0  0  2  0  0  0  0  0  0  0  0  0
   -1.7195    1.5241    1.0327 O   0  0  0  0  0  0  0  0  0  0  0  0
    1.8239   -3.1511    0.8155 C   0  0  2  0  0  0  0  0  0  0  0  0
    2.8790   -3.8414    1.5924 N   0  3  0  0  0  0  0  0  0  0  0  0
    2.1774   -1.6773    0.6515 C   0  0  0  0  0  0  0  0  0  0  0  0
    1.0996   -0.9541   -0.1439 C   0  0  2  0  0  0  0  0  0  0  0  0
    1.4962    0.4416   -0.2658 N   0  3  0  0  0  0  0  0  0  0  0  0
   -0.2430   -1.0781    0.5724 C   0  0  1  0  0  0  0  0  0  0  0  0
   -1.2626   -0.4155   -0.2007 O   0  0  0  0  0  0  0  0  0  0  0  0
   -0.6245   -2.5527    0.7627 C   0  0  2  0  0  0  0  0  0  0  0  0
   -1.8399   -2.6357    1.5312 O   0  0  0  0  0  0  0  0  0  0  0  0
    0.4688   -3.3218    1.5003 C   0  0  1  0  0  0  0  0  0  0  0  0
    0.1310   -4.7018    1.5441 O   0  0  0  0  0  0  0  0  0  0  0  0
  1  2  1  0  0  0  0
  3  2  1  1  0  0  0
  3  5  1  0  0  0  0
  3  4  1  0  0  0  0
  4  9  1  0  0  0  0
  5  7  1  0  0  0  0
  5  6  1  6  0  0  0
  7  9  1  0  0  0  0
  7  8  1  6  0  0  0
  9 40  1  1  0  0  0
 10  6  1  6  0  0  0
 10 11  1  0  0  0  0
 10 18  1  0  0  0  0
 11 13  1  0  0  0  0
 11 12  1  1  0  0  0
 13 15  1  0  0  0  0
 13 14  1  6  0  0  0
 15 17  1  0  0  0  0
 15 16  1  6  0  0  0
 17 19  1  1  0  0  0
 17 18  1  0  0  0  0
 19 20  1  0  0  0  0
 21 29  1  0  0  0  0
 22 23  1  0  0  0  0
 22 31  1  0  0  0  0
 22 38  1  6  0  0  0
 23 25  1  0  0  0  0
 23 24  1  6  0  0  0
 25 27  1  0  0  0  0
 25 26  1  1  0  0  0
 27 30  1  0  0  0  0
 27 28  1  6  0  0  0
 30 21  1  1  0  0  0
 30 31  1  0  0  0  0
 32 34  1  0  0  0  0
 32 41  1  0  0  0  0
 32 33  1  1  0  0  0
 34 35  1  0  0  0  0
 35 37  1  0  0  0  0
 35 36  1  1  0  0  0
 37 39  1  0  0  0  0
 37 38  1  6  0  0  0
 39 41  1  0  0  0  0
 39 40  1  1  0  0  0
 41 42  1  6  0  0  0
M  CHG  6  12   1  20   1  24   1  29   1  33   1  36   1
M  END
>  <CHROM.1>
-56.17602200,59.47569227,-70.16600902,-71.15529945,50.33221135,-134.16508649
170.44446304,-71.88260877,174.42883016,60.96253246,-70.82131364,-66.79736431
40.47101095,-160.23873213,53.07112729,66.17704354,48.93923307,-41.23398342
-177.53807817,-141.61110360,122.06417862,-36.99904339,-3.17792690,-2.04852028
2.11527007,2.20920527,-0.34077350,2.59080747

>  <Name>
1NEM.B

>  <RI>
0

>  <Rbt.Current_Directory>
/home/itssahil/PROJECTS/Mol_Feturizer/New_Systems/rnas/1nem

>  <Rbt.Executable>
rbdock ($Id: //depot/dev/client3/rdock/2013.1/src/exe/rbdock.cxx#4 $)

>  <Rbt.Library>
libRbt.so (2013.1, Build901 2013/11/27)

>  <Rbt.Parameter_File>
/export/apps/rDock/src/rDock_2013.1_src/data/scripts/dock_solv.prm

>  <Rbt.Receptor>
prm/pocket_docking_8.prm

>  <SCORE>
-37.4365

>  <SCORE.INTER>
-40.0283

>  <SCORE.INTER.CONST>
1

>  <SCORE.INTER.POLAR>
-6.95794

>  <SCORE.INTER.ROT>
9

>  <SCORE.INTER.SOLV>
34.2456

>  <SCORE.INTER.VDW>
-24.5076

>  <SCORE.INTER.norm>
-0.953054

>  <SCORE.INTRA>
2.59172

>  <SCORE.INTRA.DIHEDRAL>
6.56667

>  <SCORE.INTRA.DIHEDRAL.0>
22.4324

>  <SCORE.INTRA.POLAR>
-0.913428

>  <SCORE.INTRA.POLAR.0>
-1.83749

>  <SCORE.INTRA.REPUL>
0

>  <SCORE.INTRA.REPUL.0>
0

>  <SCORE.INTRA.SOLV>
-0.999006

>  <SCORE.INTRA.SOLV.lig_0>
-160.638

>  <SCORE.INTRA.VDW>
2.91354

>  <SCORE.INTRA.VDW.0>
-7.61953

>  <SCORE.INTRA.norm>
0.0617076

>  <SCORE.RESTR>
0

>  <SCORE.RESTR.CAVITY>
0

>  <SCORE.RESTR.norm>
0

>  <SCORE.SYSTEM>
0

>  <SCORE.SYSTEM.CONST>
0

>  <SCORE.SYSTEM.DIHEDRAL>
0

>  <SCORE.SYSTEM.SOLV>
0

>  <SCORE.SYSTEM.norm>
0

>  <SCORE.heavy>
42

>  <SCORE.norm>
-0.891346

>  <RMSD>
8.828

$$$$
1NEM.B
 OpenBabel11021811403D
libRbt.so/2013.1/901 2013/11/27
 42 45  0  0  0  0  0  0  0  0999 V2000
   -3.7477    2.0692    1.5065 O   0  0  0  0  0  0  0  0  0  0  0  0
   -4.6456    0.9770    1.2991 C   0  0  0  0  0  0  0  0  0  0  0  0
   -4.0245   -0.1636    0.4941 C   0  0  1  0  0  0  0  0  0  0  0  0
   -2.8158    0.2603   -0.1297 O   0  0  0  0  0  0  0  0  0  0  0  0
   -3.5850   -1.3596    1.3235 C   0  0  1  0  0  0  0  0  0  0  0  0
   -4.7683   -2.0394    1.7488 O   0  0  0  0  0  0  0  0  0  0  0  0
   -2.7338   -2.0677    0.2862 C   0  0  1  0  0  0  0  0  0  0  0  0
   -3.5227   -2.6294   -0.7680 O   0  0  0  0  0  0  0  0  0  0  0  0
   -1.9402   -0.8628   -0.2324 C   0  0  2  0  0  0  0  0  0  0  0  0
   -4.5766   -3.1937    2.5156 C   0  0  2  0  0  0  0  0  0  0  0  0
   -5.9214   -3.9111    2.6952 C   0  0  2  0  0  0  0  0  0  0  0  0
   -6.9344   -2.9680    3.2380 N   0  3  0  0  0  0  0  0  0  0  0  0
   -5.7651   -5.1480    3.5857 C   0  0  1  0  0  0  0  0  0  0  0  0
   -5.0432   -6.1526    2.8855 O   0  0  0  0  0  0  0  0  0  0  0  0
   -5.0348   -4.8034    4.8874 C   0  0  2  0  0  0  0  0  0  0  0  0
   -5.8498   -3.9745    5.7064 O   0  0  0  0  0  0  0  0  0  0  0  0
   -3.7237   -4.0911    4.5672 C   0  0  1  0  0  0  0  0  0  0  0  0
   -3.9904   -2.9140    3.7802 O   0  0  0  0  0  0  0  0  0  0  0  0
   -2.9566   -3.6628    5.8058 C   0  0  0  0  0  0  0  0  0  0  0  0
   -2.8708   -4.7501    6.8059 N   0  3  0  0  0  0  0  0  0  0  0  0
    3.3118    4.7381    0.6538 C   0  0  0  0  0  0  0  0  0  0  0  0
    0.4424    2.4394    0.1957 C   0  0  2  0  0  0  0  0  0  0  0  0
   -0.4451    3.2593   -0.7376 C   0  0  2  0  0  0  0  0  0  0  0  0
   -1.4196    2.3782   -1.4244 N   0  3  0  0  0  0  0  0  0  0  0  0
    0.4068    3.9756   -1.7769 C   0  0  1  0  0  0  0  0  0  0  0  0
   -0.4209    4.7943   -2.5887 O   0  0  0  0  0  0  0  0  0  0  0  0
    1.4612    4.8277   -1.0741 C   0  0  2  0  0  0  0  0  0  0  0  0
    2.3049    5.4455   -2.0375 O   0  0  0  0  0  0  0  0  0  0  0  0
    4.4888    5.1032   -0.1673 N   0  3  0  0  0  0  0  0  0  0  0  0
    2.2963    3.9441   -0.1494 C   0  0  2  0  0  0  0  0  0  0  0  0
    1.4413    3.2631    0.7913 O   0  0  0  0  0  0  0  0  0  0  0  0
    2.3755   -2.5195    0.5299 C   0  0  2  0  0  0  0  0  0  0  0  0
    2.8328   -3.6683    1.3450 N   0  3  0  0  0  0  0  0  0  0  0  0
    3.3121   -1.3333    0.7294 C   0  0  0  0  0  0  0  0  0  0  0  0
    2.8526   -0.1434   -0.1014 C   0  0  2  0  0  0  0  0  0  0  0  0
    3.7855    0.9500    0.1316 N   0  3  0  0  0  0  0  0  0  0  0  0
    1.4353    0.2543    0.3040 C   0  0  1  0  0  0  0  0  0  0  0  0
    0.9975    1.3626   -0.5060 O   0  0  0  0  0  0  0  0  0  0  0  0
    0.4670   -0.9231    0.1243 C   0  0  2  0  0  0  0  0  0  0  0  0
   -0.8353   -0.5485    0.6124 O   0  0  0  0  0  0  0  0  0  0  0  0
    0.9369   -2.1552    0.8935 C   0  0  1  0  0  0  0  0  0  0  0  0
    0.0821   -3.2523    0.5999 O   0  0  0  0  0  0  0  0  0  0  0  0
  1  2  1  0  0  0  0
  3  2  1  1  0  0  0
  3  5  1  0  0  0  0
  3  4  1  0  0  0  0
  4  9  1  0  0  0  0
  5  7  1  0  0  0  0
  5  6  1  6  0  0  0
  7  9  1  0  0  0  0
  7  8  1  6  0  0  0
  9 40  1  1  0  0  0
 10  6  1  1  0  0  0
 10 11  1  0  0  0  0
 10 18  1  0  0  0  0
 11 13  1  0  0  0  0
 11 12  1  1  0  0  0
 13 15  1  0  0  0  0
 13 14  1  6  0  0  0
 15 17  1  0  0  0  0
 15 16  1  1  0  0  0
 17 19  1  1  0  0  0
 17 18  1  0  0  0  0
 19 20  1  0  0  0  0
 21 29  1  0  0  0  0
 22 23  1  0  0  0  0
 22 31  1  0  0  0  0
 22 38  1  6  0  0  0
 23 25  1  0  0  0  0
 23 24  1  6  0  0  0
 25 27  1  0  0  0  0
 25 26  1  1  0  0  0
 27 30  1  0  0  0  0
 27 28  1  6  0  0  0
 30 21  1  1  0  0  0
 30 31  1  0  0  0  0
 32 34  1  0  0  0  0
 32 41  1  0  0  0  0
 32 33  1  1  0  0  0
 34 35  1  0  0  0  0
 35 37  1  0  0  0  0
 35 36  1  1  0  0  0
 37 39  1  0  0  0  0
 37 38  1  6  0  0  0
 39 41  1  0  0  0  0
 39 40  1  1  0  0  0
 41 42  1  6  0  0  0
M  CHG  6  12   1  20   1  24   1  29   1  33   1  36   1
M  END
>  <CHROM.1>
-59.36343116,-13.96728638,179.00950118,-171.14862829,-59.59831359,-140.55048363
172.79216542,-65.37095560,74.38371831,46.92737862,-171.82577009,-77.60242780
-39.98982035,-158.06041733,57.51072888,61.43375678,-65.05558434,85.62800991
176.68570334,-130.97475224,133.33425415,-28.62698369,-1.25238860,-0.45175873
1.15728746,0.90189743,0.07650267,-0.48487292

>  <Name>
1NEM.B

>  <RI>
0

>  <Rbt.Current_Directory>
/home/itssahil/PROJECTS/Mol_Feturizer/New_Systems/rnas/1nem

>  <Rbt.Executable>
rbdock ($Id: //depot/dev/client3/rdock/2013.1/src/exe/rbdock.cxx#4 $)

>  <Rbt.Library>
libRbt.so (2013.1, Build901 2013/11/27)

>  <Rbt.Parameter_File>
/export/apps/rDock/src/rDock_2013.1_src/data/scripts/dock_solv.prm

>  <Rbt.Receptor>
prm/pocket_docking_7.prm

>  <SCORE>
-30.5711

>  <SCORE.INTER>
-38.2669

>  <SCORE.INTER.CONST>
1

>  <SCORE.INTER.POLAR>
-6.79802

>  <SCORE.INTER.ROT>
9

>  <SCORE.INTER.SOLV>
31.5309

>  <SCORE.INTER.VDW>
-22.9615

>  <SCORE.INTER.norm>
-0.911116

>  <SCORE.INTRA>
7.69575

>  <SCORE.INTRA.DIHEDRAL>
13.0826

>  <SCORE.INTRA.DIHEDRAL.0>
22.4324

>  <SCORE.INTRA.POLAR>
0.101636

>  <SCORE.INTRA.POLAR.0>
-1.83749

>  <SCORE.INTRA.REPUL>
0

>  <SCORE.INTRA.REPUL.0>
0

>  <SCORE.INTRA.SOLV>
0.248794

>  <SCORE.INTRA.SOLV.lig_0>
-160.638

>  <SCORE.INTRA.VDW>
0.684492

>  <SCORE.INTRA.VDW.0>
-7.61953

>  <SCORE.INTRA.norm>
0.183232

>  <SCORE.RESTR>
0

>  <SCORE.RESTR.CAVITY>
0

>  <SCORE.RESTR.norm>
0

>  <SCORE.SYSTEM>
0

>  <SCORE.SYSTEM.CONST>
0

>  <SCORE.SYSTEM.DIHEDRAL>
0

>  <SCORE.SYSTEM.SOLV>
0

>  <SCORE.SYSTEM.norm>
0

>  <SCORE.heavy>
42

>  <SCORE.norm>
-0.727884

>  <RMSD>
8.831

$$$$
1NEM.B
 OpenBabel11021811403D
libRbt.so/2013.1/901 2013/11/27
 42 45  0  0  0  0  0  0  0  0999 V2000
   -4.6166    2.8687   -0.0644 O   0  0  0  0  0  0  0  0  0  0  0  0
   -4.4045    1.7587    0.8101 C   0  0  0  0  0  0  0  0  0  0  0  0
   -3.9343    0.5021    0.0788 C   0  0  1  0  0  0  0  0  0  0  0  0
   -2.6229    0.6862   -0.4464 O   0  0  0  0  0  0  0  0  0  0  0  0
   -3.7845   -0.7269    0.9612 C   0  0  1  0  0  0  0  0  0  0  0  0
   -5.1008   -1.1732    1.2948 O   0  0  0  0  0  0  0  0  0  0  0  0
   -2.9926   -1.6058    0.0113 C   0  0  1  0  0  0  0  0  0  0  0  0
   -3.7812   -2.0510   -1.0973 O   0  0  0  0  0  0  0  0  0  0  0  0
   -1.9568   -0.5767   -0.4566 C   0  0  2  0  0  0  0  0  0  0  0  0
   -5.1891   -2.4127    1.9377 C   0  0  2  0  0  0  0  0  0  0  0  0
   -6.6559   -2.6974    2.2884 C   0  0  2  0  0  0  0  0  0  0  0  0
   -7.2273   -1.5595    3.0557 N   0  3  0  0  0  0  0  0  0  0  0  0
   -6.7871   -4.0185    3.0532 C   0  0  1  0  0  0  0  0  0  0  0  0
   -6.5296   -5.1063    2.1752 O   0  0  0  0  0  0  0  0  0  0  0  0
   -5.8152   -4.0716    4.2360 C   0  0  2  0  0  0  0  0  0  0  0  0
   -6.2005   -3.1351    5.2343 O   0  0  0  0  0  0  0  0  0  0  0  0
   -4.4008   -3.7647    3.7522 C   0  0  1  0  0  0  0  0  0  0  0  0
   -4.3782   -2.4783    3.1035 O   0  0  0  0  0  0  0  0  0  0  0  0
   -3.3760   -3.7426    4.8726 C   0  0  0  0  0  0  0  0  0  0  0  0
   -3.3090   -5.0376    5.5855 N   0  3  0  0  0  0  0  0  0  0  0  0
    2.8686    3.9808    0.6431 C   0  0  0  0  0  0  0  0  0  0  0  0
    0.7324    1.3388   -0.8347 C   0  0  2  0  0  0  0  0  0  0  0  0
    0.5407    1.8741   -2.2517 C   0  0  2  0  0  0  0  0  0  0  0  0
    0.1147    0.7822   -3.1594 N   0  3  0  0  0  0  0  0  0  0  0  0
    1.8411    2.4780   -2.7649 C   0  0  1  0  0  0  0  0  0  0  0  0
    1.6297    3.0407   -4.0507 O   0  0  0  0  0  0  0  0  0  0  0  0
    2.3234    3.5532   -1.7937 C   0  0  2  0  0  0  0  0  0  0  0  0
    3.5726    4.0738   -2.2297 O   0  0  0  0  0  0  0  0  0  0  0  0
    1.6841    4.6896    1.1793 N   0  3  0  0  0  0  0  0  0  0  0  0
    2.4760    2.9484   -0.3994 C   0  0  2  0  0  0  0  0  0  0  0  0
    1.2294    2.3607    0.0254 O   0  0  0  0  0  0  0  0  0  0  0  0
    1.3474   -3.2833    1.5295 C   0  0  2  0  0  0  0  0  0  0  0  0
    1.3073   -4.1604    2.7222 N   0  3  0  0  0  0  0  0  0  0  0  0
    2.6534   -2.4974    1.5043 C   0  0  0  0  0  0  0  0  0  0  0  0
    2.7076   -1.5891    0.2839 C   0  0  2  0  0  0  0  0  0  0  0  0
    3.9740   -0.8713    0.3181 N   0  3  0  0  0  0  0  0  0  0  0  0
    1.5300   -0.6175    0.3095 C   0  0  1  0  0  0  0  0  0  0  0  0
    1.5727    0.2194   -0.8628 O   0  0  0  0  0  0  0  0  0  0  0  0
    0.1972   -1.3781    0.3453 C   0  0  2  0  0  0  0  0  0  0  0  0
   -0.8857   -0.4372    0.4742 O   0  0  0  0  0  0  0  0  0  0  0  0
    0.1392   -2.3482    1.5226 C   0  0  1  0  0  0  0  0  0  0  0  0
   -1.0540   -3.1169    1.4455 O   0  0  0  0  0  0  0  0  0  0  0  0
  1  2  1  0  0  0  0
  3  2  1  1  0  0  0
  3  5  1  0  0  0  0
  3  4  1  0  0  0  0
  4  9  1  0  0  0  0
  5  7  1  0  0  0  0
  5  6  1  6  0  0  0
  7  9  1  0  0  0  0
  7  8  1  6  0  0  0
  9 40  1  1  0  0  0
 10  6  1  1  0  0  0
 10 11  1  0  0  0  0
 10 18  1  0  0  0  0
 11 13  1  0  0  0  0
 11 12  1  1  0  0  0
 13 15  1  0  0  0  0
 13 14  1  6  0  0  0
 15 17  1  0  0  0  0
 15 16  1  1  0  0  0
 17 19  1  1  0  0  0
 17 18  1  0  0  0  0
 19 20  1  0  0  0  0
 21 29  1  0  0  0  0
 22 23  1  0  0  0  0
 22 31  1  0  0  0  0
 22 38  1  6  0  0  0
 23 25  1  0  0  0  0
 23 24  1  6  0  0  0
 25 27  1  0  0  0  0
 25 26  1  6  0  0  0
 27 30  1  0  0  0  0
 27 28  1  6  0  0  0
 30 21  1  1  0  0  0
 30 31  1  0  0  0  0
 32 34  1  0  0  0  0
 32 41  1  0  0  0  0
 32 33  1  1  0  0  0
 34 35  1  0  0  0  0
 35 37  1  0  0  0  0
 35 36  1  1  0  0  0
 37 39  1  0  0  0  0
 37 38  1  6  0  0  0
 39 41  1  0  0  0  0
 39 40  1  1  0  0  0
 41 42  1  6  0  0  0
M  CHG  6  12   1  20   1  24   1  29   1  33   1  36   1
M  END
>  <CHROM.1>
148.17182765,67.61926700,170.71704451,176.90824684,56.58349833,-160.11209285
77.88469122,-61.18582686,176.60884107,59.39080842,47.91343140,84.68817401
33.03389837,-162.35041654,-53.74945244,-176.32467392,63.74041142,-150.91662987
160.26160535,-166.81789609,129.56520255,-59.20854634,-1.45587524,-0.63757694
0.82123897,2.37956968,-0.08584555,2.55157875

>  <Name>
1NEM.B

>  <RI>
0

>  <Rbt.Current_Directory>
/home/itssahil/PROJECTS/Mol_Feturizer/New_Systems/rnas/1nem

>  <Rbt.Executable>
rbdock ($Id: //depot/dev/client3/rdock/2013.1/src/exe/rbdock.cxx#4 $)

>  <Rbt.Library>
libRbt.so (2013.1, Build901 2013/11/27)

>  <Rbt.Parameter_File>
/export/apps/rDock/src/rDock_2013.1_src/data/scripts/dock_solv.prm

>  <Rbt.Receptor>
prm/pocket_docking_7.prm

>  <SCORE>
-43.5933

>  <SCORE.INTER>
-49.2217

>  <SCORE.INTER.CONST>
1

>  <SCORE.INTER.POLAR>
-7.88645

>  <SCORE.INTER.ROT>
9

>  <SCORE.INTER.SOLV>
40.6491

>  <SCORE.INTER.VDW>
-29.676

>  <SCORE.INTER.norm>
-1.17194

>  <SCORE.INTRA>
5.62841

>  <SCORE.INTRA.DIHEDRAL>
1.31481

>  <SCORE.INTRA.DIHEDRAL.0>
22.4324

>  <SCORE.INTRA.POLAR>
1.51564

>  <SCORE.INTRA.POLAR.0>
-1.83749

>  <SCORE.INTRA.REPUL>
0

>  <SCORE.INTRA.REPUL.0>
0

>  <SCORE.INTRA.SOLV>
-6.86488

>  <SCORE.INTRA.SOLV.lig_0>
-160.638

>  <SCORE.INTRA.VDW>
3.25027

>  <SCORE.INTRA.VDW.0>
-7.61953

>  <SCORE.INTRA.norm>
0.13401

>  <SCORE.RESTR>
0

>  <SCORE.RESTR.CAVITY>
0

>  <SCORE.RESTR.norm>
0

>  <SCORE.SYSTEM>
0

>  <SCORE.SYSTEM.CONST>
0

>  <SCORE.SYSTEM.DIHEDRAL>
0

>  <SCORE.SYSTEM.SOLV>
0

>  <SCORE.SYSTEM.norm>
0

>  <SCORE.heavy>
42

>  <SCORE.norm>
-1.03793

>  <RMSD>
8.836

$$$$
1NEM.B
 OpenBabel11021811403D
libRbt.so/2013.1/901 2013/11/27
 42 45  0  0  0  0  0  0  0  0999 V2000
   -5.2207    1.1190    2.7460 O   0  0  0  0  0  0  0  0  0  0  0  0
   -4.4137    1.8482    1.8192 C   0  0  0  0  0  0  0  0  0  0  0  0
   -3.9225    0.9934    0.6518 C   0  0  1  0  0  0  0  0  0  0  0  0
   -2.8849    1.6615   -0.0600 O   0  0  0  0  0  0  0  0  0  0  0  0
   -3.2740   -0.3208    1.0565 C   0  0  1  0  0  0  0  0  0  0  0  0
   -4.3166   -1.1868    1.5107 O   0  0  0  0  0  0  0  0  0  0  0  0
   -2.6231   -0.6812   -0.2657 C   0  0  1  0  0  0  0  0  0  0  0  0
   -3.5860   -1.0448   -1.2606 O   0  0  0  0  0  0  0  0  0  0  0  0
   -2.0025    0.6795   -0.6036 C   0  0  2  0  0  0  0  0  0  0  0  0
   -4.2412   -2.5189    1.0901 C   0  0  2  0  0  0  0  0  0  0  0  0
   -5.4224   -3.3029    1.6779 C   0  0  2  0  0  0  0  0  0  0  0  0
   -5.4725   -3.1207    3.1526 N   0  3  0  0  0  0  0  0  0  0  0  0
   -5.3398   -4.7836    1.2930 C   0  0  1  0  0  0  0  0  0  0  0  0
   -5.6130   -4.9325   -0.0940 O   0  0  0  0  0  0  0  0  0  0  0  0
   -3.9566   -5.3607    1.6091 C   0  0  2  0  0  0  0  0  0  0  0  0
   -3.7599   -5.4296    3.0158 O   0  0  0  0  0  0  0  0  0  0  0  0
   -2.8785   -4.4866    0.9748 C   0  0  1  0  0  0  0  0  0  0  0  0
   -3.0101   -3.1325    1.4495 O   0  0  0  0  0  0  0  0  0  0  0  0
   -1.4678   -4.9564    1.2837 C   0  0  0  0  0  0  0  0  0  0  0  0
   -0.4558   -4.2256    0.4890 N   0  3  0  0  0  0  0  0  0  0  0  0
    1.4643    4.8972    0.5216 C   0  0  0  0  0  0  0  0  0  0  0  0
   -0.2124    2.6820   -1.9297 C   0  0  2  0  0  0  0  0  0  0  0  0
   -0.3699    3.6259   -3.1194 C   0  0  2  0  0  0  0  0  0  0  0  0
   -0.5900    2.8508   -4.3638 N   0  3  0  0  0  0  0  0  0  0  0  0
    0.8767    4.4865   -3.2751 C   0  0  1  0  0  0  0  0  0  0  0  0
    0.6872    5.4118   -4.3345 O   0  0  0  0  0  0  0  0  0  0  0  0
    1.1502    5.2307   -1.9701 C   0  0  2  0  0  0  0  0  0  0  0  0
    2.3513    5.9829   -2.0846 O   0  0  0  0  0  0  0  0  0  0  0  0
    2.8722    5.3017    0.7388 N   0  3  0  0  0  0  0  0  0  0  0  0
    1.2793    4.2250   -0.8277 C   0  0  2  0  0  0  0  0  0  0  0  0
    0.0900    3.4135   -0.7446 O   0  0  0  0  0  0  0  0  0  0  0  0
    2.2757   -1.3324    0.3207 C   0  0  2  0  0  0  0  0  0  0  0  0
    2.9021   -1.9966    1.4868 N   0  3  0  0  0  0  0  0  0  0  0  0
    3.2576   -0.3512   -0.3095 C   0  0  0  0  0  0  0  0  0  0  0  0
    2.6260    0.3413   -1.5091 C   0  0  2  0  0  0  0  0  0  0  0  0
    3.6109    1.2593   -2.0636 N   0  3  0  0  0  0  0  0  0  0  0  0
    1.3692    1.0900   -1.0717 C   0  0  1  0  0  0  0  0  0  0  0  0
    0.7621    1.7189   -2.2172 O   0  0  0  0  0  0  0  0  0  0  0  0
    0.3620    0.1306   -0.4227 C   0  0  2  0  0  0  0  0  0  0  0  0
   -0.7629    0.8824    0.0712 O   0  0  0  0  0  0  0  0  0  0  0  0
    0.9870   -0.6296    0.7444 C   0  0  1  0  0  0  0  0  0  0  0  0
    0.0619   -1.5917    1.2336 O   0  0  0  0  0  0  0  0  0  0  0  0
  1  2  1  0  0  0  0
  3  2  1  1  0  0  0
  3  5  1  0  0  0  0
  3  4  1  0  0  0  0
  4  9  1  0  0  0  0
  5  7  1  0  0  0  0
  5  6  1  6  0  0  0
  7  9  1  0  0  0  0
  7  8  1  6  0  0  0
  9 40  1  1  0  0  0
 10  6  1  1  0  0  0
 10 11  1  0  0  0  0
 10 18  1  0  0  0  0
 11 13  1  0  0  0  0
 11 12  1  1  0  0  0
 13 15  1  0  0  0  0
 13 14  1  6  0  0  0
 15 17  1  0  0  0  0
 15 16  1  1  0  0  0
 17 19  1  1  0  0  0
 17 18  1  0  0  0  0
 19 20  1  0  0  0  0
 21 29  1  0  0  0  0
 22 23  1  0  0  0  0
 22 31  1  0  0  0  0
 22 38  1  6  0  0  0
 23 25  1  0  0  0  0
 23 24  1  6  0  0  0
 25 27  1  0  0  0  0
 25 26  1  6  0  0  0
 27 30  1  0  0  0  0
 27 28  1  6  0  0  0
 30 21  1  1  0  0  0
 30 31  1  0  0  0  0
 32 34  1  0  0  0  0
 32 41  1  0  0  0  0
 32 33  1  1  0  0  0
 34 35  1  0  0  0  0
 35 37  1  0  0  0  0
 35 36  1  1  0  0  0
 37 39  1  0  0  0  0
 37 38  1  6  0  0  0
 39 41  1  0  0  0  0
 39 40  1  1  0  0  0
 41 42  1  6  0  0  0
M  CHG  6  12   1  20   1  24   1  29   1  33   1  36   1
M  END
>  <CHROM.1>
-172.29113764,-166.30214847,137.82357005,179.40767474,61.20368470,-171.93036538
-71.81342899,-65.69098258,169.29667787,171.00620322,83.86094401,-81.26495894
-41.15332488,157.95070116,83.69267117,68.23446205,70.20432379,-44.26863513
-156.66656988,-165.98554049,111.69309441,-175.02466345,-1.11099184,0.11468718
-0.07768021,2.17058171,-0.14976053,2.81457526

>  <Name>
1NEM.B

>  <RI>
0

>  <Rbt.Current_Directory>
/home/itssahil/PROJECTS/Mol_Feturizer/New_Systems/rnas/1nem

>  <Rbt.Executable>
rbdock ($Id: //depot/dev/client3/rdock/2013.1/src/exe/rbdock.cxx#4 $)

>  <Rbt.Library>
libRbt.so (2013.1, Build901 2013/11/27)

>  <Rbt.Parameter_File>
/export/apps/rDock/src/rDock_2013.1_src/data/scripts/dock_solv.prm

>  <Rbt.Receptor>
prm/pocket_docking_6.prm

>  <SCORE>
-40.0572

>  <SCORE.INTER>
-44.5302

>  <SCORE.INTER.CONST>
1

>  <SCORE.INTER.POLAR>
-7.18274

>  <SCORE.INTER.ROT>
9

>  <SCORE.INTER.SOLV>
30.5413

>  <SCORE.INTER.VDW>
-25.5248

>  <SCORE.INTER.norm>
-1.06024

>  <SCORE.INTRA>
4.47299

>  <SCORE.INTRA.DIHEDRAL>
3.69752

>  <SCORE.INTRA.DIHEDRAL.0>
22.4324

>  <SCORE.INTRA.POLAR>
-0.327205

>  <SCORE.INTRA.POLAR.0>
-1.83749

>  <SCORE.INTRA.REPUL>
0.227905

>  <SCORE.INTRA.REPUL.0>
0

>  <SCORE.INTRA.SOLV>
-2.3941

>  <SCORE.INTRA.SOLV.lig_0>
-160.638

>  <SCORE.INTRA.VDW>
3.79425

>  <SCORE.INTRA.VDW.0>
-7.61953

>  <SCORE.INTRA.norm>
0.1065

>  <SCORE.RESTR>
0

>  <SCORE.RESTR.CAVITY>
0

>  <SCORE.RESTR.norm>
0

>  <SCORE.SYSTEM>
0

>  <SCORE.SYSTEM.CONST>
0

>  <SCORE.SYSTEM.DIHEDRAL>
0

>  <SCORE.SYSTEM.SOLV>
0

>  <SCORE.SYSTEM.norm>
0

>  <SCORE.heavy>
42

>  <SCORE.norm>
-0.953744

>  <RMSD>
8.838

$$$$
1NEM.B
 OpenBabel11021811403D
libRbt.so/2013.1/901 2013/11/27
 42 45  0  0  0  0  0  0  0  0999 V2000
   -4.3062   -0.8729    3.9007 O   0  0  0  0  0  0  0  0  0  0  0  0
   -4.5044   -0.4536    2.5491 C   0  0  0  0  0  0  0  0  0  0  0  0
   -3.6592   -1.2405    1.5485 C   0  0  1  0  0  0  0  0  0  0  0  0
   -2.3954   -0.6127    1.3532 O   0  0  0  0  0  0  0  0  0  0  0  0
   -3.2831   -2.6427    2.0002 C   0  0  1  0  0  0  0  0  0  0  0  0
   -4.4658   -3.4425    1.9320 O   0  0  0  0  0  0  0  0  0  0  0  0
   -2.2048   -2.9408    0.9753 C   0  0  1  0  0  0  0  0  0  0  0  0
   -2.7429   -3.1170   -0.3395 O   0  0  0  0  0  0  0  0  0  0  0  0
   -1.4290   -1.6208    1.0560 C   0  0  2  0  0  0  0  0  0  0  0  0
   -4.7414   -4.2356    3.0511 C   0  0  2  0  0  0  0  0  0  0  0  0
   -5.9595   -5.1214    2.7560 C   0  0  2  0  0  0  0  0  0  0  0  0
   -7.0985   -4.2853    2.2935 N   0  3  0  0  0  0  0  0  0  0  0  0
   -6.3340   -5.9598    3.9825 C   0  0  1  0  0  0  0  0  0  0  0  0
   -5.3483   -6.9616    4.1954 O   0  0  0  0  0  0  0  0  0  0  0  0
   -6.4561   -5.0849    5.2339 C   0  0  2  0  0  0  0  0  0  0  0  0
   -7.5863   -4.2282    5.1293 O   0  0  0  0  0  0  0  0  0  0  0  0
   -5.1873   -4.2545    5.4054 C   0  0  1  0  0  0  0  0  0  0  0  0
   -4.9625   -3.4620    4.2232 O   0  0  0  0  0  0  0  0  0  0  0  0
   -5.2433   -3.3140    6.5963 C   0  0  0  0  0  0  0  0  0  0  0  0
   -3.8990   -3.0515    7.1565 N   0  3  0  0  0  0  0  0  0  0  0  0
    1.7136   -0.0716   -1.2601 C   0  0  0  0  0  0  0  0  0  0  0  0
    2.8769    0.3582    2.2311 C   0  0  2  0  0  0  0  0  0  0  0  0
    2.8794    1.8800    2.3550 C   0  0  2  0  0  0  0  0  0  0  0  0
    2.8624    2.2786    3.7827 N   0  3  0  0  0  0  0  0  0  0  0  0
    1.6612    2.4656    1.6534 C   0  0  1  0  0  0  0  0  0  0  0  0
    1.7156    3.8828    1.7086 O   0  0  0  0  0  0  0  0  0  0  0  0
    1.6341    1.9969    0.2003 C   0  0  2  0  0  0  0  0  0  0  0  0
    0.4630    2.4829   -0.4430 O   0  0  0  0  0  0  0  0  0  0  0  0
    2.9447    0.3690   -1.9553 N   0  3  0  0  0  0  0  0  0  0  0  0
    1.6494    0.4701    0.1573 C   0  0  2  0  0  0  0  0  0  0  0  0
    2.8013   -0.0344    0.8632 O   0  0  0  0  0  0  0  0  0  0  0  0
    2.1589   -4.2069    1.6944 C   0  0  2  0  0  0  0  0  0  0  0  0
    2.0892   -5.6863    1.6994 N   0  3  0  0  0  0  0  0  0  0  0  0
    3.0657   -3.7242    2.8208 C   0  0  0  0  0  0  0  0  0  0  0  0
    3.1452   -2.2040    2.8292 C   0  0  2  0  0  0  0  0  0  0  0  0
    4.0231   -1.8093    3.9217 N   0  3  0  0  0  0  0  0  0  0  0  0
    1.7489   -1.6140    3.0124 C   0  0  1  0  0  0  0  0  0  0  0  0
    1.8290   -0.1754    2.9909 O   0  0  0  0  0  0  0  0  0  0  0  0
    0.8064   -2.0893    1.8979 C   0  0  2  0  0  0  0  0  0  0  0  0
   -0.5236   -1.6011    2.1574 O   0  0  0  0  0  0  0  0  0  0  0  0
    0.7569   -3.6131    1.8204 C   0  0  1  0  0  0  0  0  0  0  0  0
   -0.0260   -4.0060    0.7008 O   0  0  0  0  0  0  0  0  0  0  0  0
  1  2  1  0  0  0  0
  3  2  1  1  0  0  0
  3  5  1  0  0  0  0
  3  4  1  0  0  0  0
  4  9  1  0  0  0  0
  5  7  1  0  0  0  0
  5  6  1  6  0  0  0
  7  9  1  0  0  0  0
  7  8  1  6  0  0  0
  9 40  1  1  0  0  0
 10  6  1  6  0  0  0
 10 11  1  0  0  0  0
 10 18  1  0  0  0  0
 11 13  1  0  0  0  0
 11 12  1  1  0  0  0
 13 15  1  0  0  0  0
 13 14  1  1  0  0  0
 15 17  1  0  0  0  0
 15 16  1  6  0  0  0
 17 19  1  1  0  0  0
 17 18  1  0  0  0  0
 19 20  1  0  0  0  0
 21 29  1  0  0  0  0
 22 23  1  0  0  0  0
 22 31  1  0  0  0  0
 22 38  1  1  0  0  0
 23 25  1  0  0  0  0
 23 24  1  1  0  0  0
 25 27  1  0  0  0  0
 25 26  1  6  0  0  0
 27 30  1  0  0  0  0
 27 28  1  1  0  0  0
 30 21  1  6  0  0  0
 30 31  1  0  0  0  0
 32 34  1  0  0  0  0
 32 41  1  0  0  0  0
 32 33  1  1  0  0  0
 34 35  1  0  0  0  0
 35 37  1  0  0  0  0
 35 36  1  1  0  0  0
 37 39  1  0  0  0  0
 37 38  1  6  0  0  0
 39 41  1  0  0  0  0
 39 40  1  1  0  0  0
 41 42  1  6  0  0  0
M  CHG  6  12   1  20   1  24   1  29   1  33   1  36   1
M  END
>  <CHROM.1>
-171.99602885,-89.83878708,-132.65603997,-174.59279556,174.94236313,-155.33845408
37.80191006,-62.75301829,81.33499513,151.20491002,-119.56439979,61.00076389
42.80472882,-177.24869065,-49.51109516,62.43802646,64.92729083,-168.07145586
70.40999820,28.83475321,162.81800197,15.23238028,-1.18927582,-1.92815892
2.38063673,2.56909903,-0.20587423,2.92054795

>  <Name>
1NEM.B

>  <RI>
0

>  <Rbt.Current_Directory>
/home/itssahil/PROJECTS/Mol_Feturizer/New_Systems/rnas/1nem

>  <Rbt.Executable>
rbdock ($Id: //depot/dev/client3/rdock/2013.1/src/exe/rbdock.cxx#4 $)

>  <Rbt.Library>
libRbt.so (2013.1, Build901 2013/11/27)

>  <Rbt.Parameter_File>
/export/apps/rDock/src/rDock_2013.1_src/data/scripts/dock_solv.prm

>  <Rbt.Receptor>
prm/pocket_docking_4.prm

>  <SCORE>
-0.587892

>  <SCORE.INTER>
-16.6909

>  <SCORE.INTER.CONST>
1

>  <SCORE.INTER.POLAR>
-9.08961

>  <SCORE.INTER.ROT>
9

>  <SCORE.INTER.SOLV>
43.4066

>  <SCORE.INTER.VDW>
-4.89742

>  <SCORE.INTER.norm>
-0.397402

>  <SCORE.INTRA>
16.03

>  <SCORE.INTRA.DIHEDRAL>
12.2782

>  <SCORE.INTRA.DIHEDRAL.0>
22.4324

>  <SCORE.INTRA.POLAR>
0.942772

>  <SCORE.INTRA.POLAR.0>
-1.83749

>  <SCORE.INTRA.REPUL>
0

>  <SCORE.INTRA.REPUL.0>
0

>  <SCORE.INTRA.SOLV>
-4.1282

>  <SCORE.INTRA.SOLV.lig_0>
-160.638

>  <SCORE.INTRA.VDW>
8.74955

>  <SCORE.INTRA.VDW.0>
-7.61953

>  <SCORE.INTRA.norm>
0.381666

>  <SCORE.RESTR>
0.0729987

>  <SCORE.RESTR.CAVITY>
0.0729987

>  <SCORE.RESTR.norm>
0.00173806

>  <SCORE.SYSTEM>
0

>  <SCORE.SYSTEM.CONST>
0

>  <SCORE.SYSTEM.DIHEDRAL>
0

>  <SCORE.SYSTEM.SOLV>
0

>  <SCORE.SYSTEM.norm>
0

>  <SCORE.heavy>
42

>  <SCORE.norm>
-0.0139974

>  <RMSD>
8.844

$$$$
1NEM.B
 OpenBabel11021811403D
libRbt.so/2013.1/901 2013/11/27
 42 45  0  0  0  0  0  0  0  0999 V2000
   -4.0243    2.1098    2.1262 O   0  0  0  0  0  0  0  0  0  0  0  0
   -4.2329    2.2747    0.7222 C   0  0  0  0  0  0  0  0  0  0  0  0
   -3.8253    1.0473   -0.0915 C   0  0  1  0  0  0  0  0  0  0  0  0
   -2.5089    1.2034   -0.6131 O   0  0  0  0  0  0  0  0  0  0  0  0
   -3.7297   -0.2416    0.7093 C   0  0  1  0  0  0  0  0  0  0  0  0
   -5.0642   -0.6467    1.0230 O   0  0  0  0  0  0  0  0  0  0  0  0
   -2.9839   -1.0935   -0.3006 C   0  0  1  0  0  0  0  0  0  0  0  0
   -3.7971   -1.4292   -1.4298 O   0  0  0  0  0  0  0  0  0  0  0  0
   -1.9029   -0.0858   -0.7090 C   0  0  2  0  0  0  0  0  0  0  0  0
   -5.1920   -1.7757    1.8392 C   0  0  2  0  0  0  0  0  0  0  0  0
   -5.8906   -1.3785    3.1467 C   0  0  2  0  0  0  0  0  0  0  0  0
   -5.1804   -0.2351    3.7778 N   0  3  0  0  0  0  0  0  0  0  0  0
   -5.9915   -2.5763    4.0968 C   0  0  1  0  0  0  0  0  0  0  0  0
   -6.9348   -3.5106    3.5890 O   0  0  0  0  0  0  0  0  0  0  0  0
   -4.6321   -3.2609    4.2696 C   0  0  2  0  0  0  0  0  0  0  0  0
   -3.7406   -2.4151    4.9851 O   0  0  0  0  0  0  0  0  0  0  0  0
   -4.0474   -3.5941    2.9000 C   0  0  1  0  0  0  0  0  0  0  0  0
   -3.9405   -2.3922    2.1125 O   0  0  0  0  0  0  0  0  0  0  0  0
   -2.6701   -4.2293    2.9750 C   0  0  0  0  0  0  0  0  0  0  0  0
   -1.6449   -3.2714    3.4452 N   0  3  0  0  0  0  0  0  0  0  0  0
    3.6823    3.4743   -3.9592 C   0  0  0  0  0  0  0  0  0  0  0  0
    1.7285    2.7404   -0.8980 C   0  0  2  0  0  0  0  0  0  0  0  0
    0.6404    3.8082   -0.9805 C   0  0  2  0  0  0  0  0  0  0  0  0
   -0.5135    3.4319   -0.1294 N   0  3  0  0  0  0  0  0  0  0  0  0
    0.1730    3.9710   -2.4207 C   0  0  1  0  0  0  0  0  0  0  0  0
   -0.7813    5.0189   -2.4960 O   0  0  0  0  0  0  0  0  0  0  0  0
    1.3707    4.2859   -3.3141 C   0  0  2  0  0  0  0  0  0  0  0  0
    0.9533    4.3709   -4.6706 O   0  0  0  0  0  0  0  0  0  0  0  0
    4.0618    2.3263   -4.8142 N   0  3  0  0  0  0  0  0  0  0  0  0
    2.4197    3.1854   -3.1661 C   0  0  2  0  0  0  0  0  0  0  0  0
    2.8026    3.0482   -1.7826 O   0  0  0  0  0  0  0  0  0  0  0  0
    2.1570   -2.3592    0.3661 C   0  0  2  0  0  0  0  0  0  0  0  0
    2.5095   -3.4347    1.3212 N   0  3  0  0  0  0  0  0  0  0  0  0
    3.2193   -1.2662    0.3969 C   0  0  0  0  0  0  0  0  0  0  0  0
    2.8687   -0.1519   -0.5792 C   0  0  2  0  0  0  0  0  0  0  0  0
    3.9182    0.8545   -0.5028 N   0  3  0  0  0  0  0  0  0  0  0  0
    1.5123    0.4471   -0.2149 C   0  0  1  0  0  0  0  0  0  0  0  0
    1.1750    1.4814   -1.1598 O   0  0  0  0  0  0  0  0  0  0  0  0
    0.4199   -0.6312   -0.2269 C   0  0  2  0  0  0  0  0  0  0  0  0
   -0.8226   -0.0565    0.2212 O   0  0  0  0  0  0  0  0  0  0  0  0
    0.7749   -1.7962    0.6935 C   0  0  1  0  0  0  0  0  0  0  0  0
   -0.1989   -2.8226    0.5568 O   0  0  0  0  0  0  0  0  0  0  0  0
  1  2  1  0  0  0  0
  3  2  1  1  0  0  0
  3  5  1  0  0  0  0
  3  4  1  0  0  0  0
  4  9  1  0  0  0  0
  5  7  1  0  0  0  0
  5  6  1  6  0  0  0
  7  9  1  0  0  0  0
  7  8  1  6  0  0  0
  9 40  1  1  0  0  0
 10  6  1  6  0  0  0
 10 11  1  0  0  0  0
 10 18  1  0  0  0  0
 11 13  1  0  0  0  0
 11 12  1  1  0  0  0
 13 15  1  0  0  0  0
 13 14  1  6  0  0  0
 15 17  1  0  0  0  0
 15 16  1  6  0  0  0
 17 19  1  1  0  0  0
 17 18  1  0  0  0  0
 19 20  1  0  0  0  0
 21 29  1  0  0  0  0
 22 23  1  0  0  0  0
 22 31  1  0  0  0  0
 22 38  1  6  0  0  0
 23 25  1  0  0  0  0
 23 24  1  1  0  0  0
 25 27  1  0  0  0  0
 25 26  1  1  0  0  0
 27 30  1  0  0  0  0
 27 28  1  6  0  0  0
 30 21  1  6  0  0  0
 30 31  1  0  0  0  0
 32 34  1  0  0  0  0
 32 41  1  0  0  0  0
 32 33  1  1  0  0  0
 34 35  1  0  0  0  0
 35 37  1  0  0  0  0
 35 36  1  1  0  0  0
 37 39  1  0  0  0  0
 37 38  1  6  0  0  0
 39 41  1  0  0  0  0
 39 40  1  1  0  0  0
 41 42  1  6  0  0  0
M  CHG  6  12   1  20   1  24   1  29   1  33   1  36   1
M  END
>  <CHROM.1>
58.54165567,-96.61191304,-175.93085251,117.63823030,139.75041787,-136.91286382
-66.68653595,-76.90879031,65.97353857,-68.79369524,-85.00418672,-128.75876368
61.73735896,-131.15131509,179.55330225,57.67415822,-52.00135635,-18.91562116
55.75049673,-83.44807003,119.15149850,59.12182864,-1.13952240,0.11219897
0.26740955,2.34154165,-0.28308867,2.57585044

>  <Name>
1NEM.B

>  <RI>
0

>  <Rbt.Current_Directory>
/home/itssahil/PROJECTS/Mol_Feturizer/New_Systems/rnas/1nem

>  <Rbt.Executable>
rbdock ($Id: //depot/dev/client3/rdock/2013.1/src/exe/rbdock.cxx#4 $)

>  <Rbt.Library>
libRbt.so (2013.1, Build901 2013/11/27)

>  <Rbt.Parameter_File>
/export/apps/rDock/src/rDock_2013.1_src/data/scripts/dock_solv.prm

>  <Rbt.Receptor>
prm/pocket_docking_6.prm

>  <SCORE>
-39.6039

>  <SCORE.INTER>
-48.3361

>  <SCORE.INTER.CONST>
1

>  <SCORE.INTER.POLAR>
-7.40358

>  <SCORE.INTER.ROT>
9

>  <SCORE.INTER.SOLV>
34.7123

>  <SCORE.INTER.VDW>
-28.7162

>  <SCORE.INTER.norm>
-1.15086

>  <SCORE.INTRA>
8.6876

>  <SCORE.INTRA.DIHEDRAL>
27.3122

>  <SCORE.INTRA.DIHEDRAL.0>
22.4324

>  <SCORE.INTRA.POLAR>
-2.99541

>  <SCORE.INTRA.POLAR.0>
-1.83749

>  <SCORE.INTRA.REPUL>
0.0386759

>  <SCORE.INTRA.REPUL.0>
0

>  <SCORE.INTRA.SOLV>
6.45369

>  <SCORE.INTRA.SOLV.lig_0>
-160.638

>  <SCORE.INTRA.VDW>
1.79568

>  <SCORE.INTRA.VDW.0>
-7.61953

>  <SCORE.INTRA.norm>
0.206848

>  <SCORE.RESTR>
0.0445824

>  <SCORE.RESTR.CAVITY>
0.0445824

>  <SCORE.RESTR.norm>
0.00106149

>  <SCORE.SYSTEM>
0

>  <SCORE.SYSTEM.CONST>
0

>  <SCORE.SYSTEM.DIHEDRAL>
0

>  <SCORE.SYSTEM.SOLV>
0

>  <SCORE.SYSTEM.norm>
0

>  <SCORE.heavy>
42

>  <SCORE.norm>
-0.94295

>  <RMSD>
8.845

$$$$
1NEM.B
 OpenBabel11021811403D
libRbt.so/2013.1/901 2013/11/27
 42 45  0  0  0  0  0  0  0  0999 V2000
   -4.7752    1.6184    2.1775 O   0  0  0  0  0  0  0  0  0  0  0  0
   -3.6210    1.6179    1.3349 C   0  0  0  0  0  0  0  0  0  0  0  0
   -3.3739    0.2698    0.6595 C   0  0  1  0  0  0  0  0  0  0  0  0
   -2.0546    0.2085    0.1253 O   0  0  0  0  0  0  0  0  0  0  0  0
   -3.4242   -0.9274    1.5954 C   0  0  1  0  0  0  0  0  0  0  0  0
   -4.7938   -1.1320    1.9498 O   0  0  0  0  0  0  0  0  0  0  0  0
   -2.7986   -1.9670    0.6845 C   0  0  1  0  0  0  0  0  0  0  0  0
   -3.6600   -2.3216   -0.4025 O   0  0  0  0  0  0  0  0  0  0  0  0
   -1.6093   -1.1473    0.1703 C   0  0  2  0  0  0  0  0  0  0  0  0
   -5.1141   -2.3853    2.4827 C   0  0  2  0  0  0  0  0  0  0  0  0
   -6.6288   -2.6085    2.3761 C   0  0  2  0  0  0  0  0  0  0  0  0
   -7.3572   -1.4686    2.9929 N   0  3  0  0  0  0  0  0  0  0  0  0
   -7.0290   -3.9450    3.0093 C   0  0  1  0  0  0  0  0  0  0  0  0
   -6.5659   -5.0159    2.1973 O   0  0  0  0  0  0  0  0  0  0  0  0
   -6.4506   -4.0833    4.4209 C   0  0  2  0  0  0  0  0  0  0  0  0
   -7.0768   -3.1609    5.3037 O   0  0  0  0  0  0  0  0  0  0  0  0
   -4.9459   -3.8312    4.3861 C   0  0  1  0  0  0  0  0  0  0  0  0
   -4.6850   -2.5276    3.8306 O   0  0  0  0  0  0  0  0  0  0  0  0
   -4.2959   -3.8950    5.7570 C   0  0  0  0  0  0  0  0  0  0  0  0
   -3.0291   -4.6594    5.7326 N   0  3  0  0  0  0  0  0  0  0  0  0
    5.6594   -1.2785    4.3973 C   0  0  0  0  0  0  0  0  0  0  0  0
    2.4064   -0.1452    3.0333 C   0  0  2  0  0  0  0  0  0  0  0  0
    2.7490    1.2782    2.6000 C   0  0  2  0  0  0  0  0  0  0  0  0
    1.7530    1.7694    1.6181 N   0  3  0  0  0  0  0  0  0  0  0  0
    4.1363    1.3163    1.9732 C   0  0  1  0  0  0  0  0  0  0  0  0
    4.4741    2.6554    1.6459 O   0  0  0  0  0  0  0  0  0  0  0  0
    5.1561    0.7419    2.9540 C   0  0  2  0  0  0  0  0  0  0  0  0
    6.4430    0.7099    2.3504 O   0  0  0  0  0  0  0  0  0  0  0  0
    5.4236   -0.6908    5.7359 N   0  3  0  0  0  0  0  0  0  0  0  0
    4.7388   -0.6725    3.3523 C   0  0  2  0  0  0  0  0  0  0  0  0
    3.4079   -0.6591    3.9073 O   0  0  0  0  0  0  0  0  0  0  0  0
    0.5133   -4.7710    1.1827 C   0  0  2  0  0  0  0  0  0  0  0  0
   -0.2814   -6.0052    1.3791 N   0  3  0  0  0  0  0  0  0  0  0  0
    1.5411   -4.6298    2.2998 C   0  0  0  0  0  0  0  0  0  0  0  0
    2.3644   -3.3633    2.1120 C   0  0  2  0  0  0  0  0  0  0  0  0
    3.3235   -3.2887    3.2050 N   0  3  0  0  0  0  0  0  0  0  0  0
    1.4452   -2.1442    2.1099 C   0  0  1  0  0  0  0  0  0  0  0  0
    2.2287   -0.9526    1.9035 O   0  0  0  0  0  0  0  0  0  0  0  0
    0.3901   -2.2597    1.0010 C   0  0  2  0  0  0  0  0  0  0  0  0
   -0.5221   -1.1488    1.0928 O   0  0  0  0  0  0  0  0  0  0  0  0
   -0.4092   -3.5546    1.1232 C   0  0  1  0  0  0  0  0  0  0  0  0
   -1.2848   -3.6784    0.0103 O   0  0  0  0  0  0  0  0  0  0  0  0
  1  2  1  0  0  0  0
  3  2  1  1  0  0  0
  3  5  1  0  0  0  0
  3  4  1  0  0  0  0
  4  9  1  0  0  0  0
  5  7  1  0  0  0  0
  5  6  1  6  0  0  0
  7  9  1  0  0  0  0
  7  8  1  6  0  0  0
  9 40  1  1  0  0  0
 10  6  1  1  0  0  0
 10 11  1  0  0  0  0
 10 18  1  0  0  0  0
 11 13  1  0  0  0  0
 11 12  1  1  0  0  0
 13 15  1  0  0  0  0
 13 14  1  6  0  0  0
 15 17  1  0  0  0  0
 15 16  1  1  0  0  0
 17 19  1  1  0  0  0
 17 18  1  0  0  0  0
 19 20  1  0  0  0  0
 21 29  1  0  0  0  0
 22 23  1  0  0  0  0
 22 31  1  0  0  0  0
 22 38  1  6  0  0  0
 23 25  1  0  0  0  0
 23 24  1  6  0  0  0
 25 27  1  0  0  0  0
 25 26  1  1  0  0  0
 27 30  1  0  0  0  0
 27 28  1  6  0  0  0
 30 21  1  1  0  0  0
 30 31  1  0  0  0  0
 32 34  1  0  0  0  0
 32 41  1  0  0  0  0
 32 33  1  1  0  0  0
 34 35  1  0  0  0  0
 35 37  1  0  0  0  0
 35 36  1  1  0  0  0
 37 39  1  0  0  0  0
 37 38  1  6  0  0  0
 39 41  1  0  0  0  0
 39 40  1  1  0  0  0
 41 42  1  6  0  0  0
M  CHG  6  12   1  20   1  24   1  29   1  33   1  36   1
M  END
>  <CHROM.1>
-164.26464615,-164.80358116,162.33172590,-161.58020553,64.00749834,-159.86720486
86.93825019,177.10708359,48.16455612,135.87251771,-154.71650413,74.54504844
35.90022334,-158.10234369,-137.44850669,-175.57841627,-55.75017475,35.90642025
-127.69319487,-106.35260387,-176.82758415,67.73698189,-0.90516998,-1.70821508
2.43797709,2.89615775,0.08856728,2.75412233

>  <Name>
1NEM.B

>  <RI>
0

>  <Rbt.Current_Directory>
/home/itssahil/PROJECTS/Mol_Feturizer/New_Systems/rnas/1nem

>  <Rbt.Executable>
rbdock ($Id: //depot/dev/client3/rdock/2013.1/src/exe/rbdock.cxx#4 $)

>  <Rbt.Library>
libRbt.so (2013.1, Build901 2013/11/27)

>  <Rbt.Parameter_File>
/export/apps/rDock/src/rDock_2013.1_src/data/scripts/dock_solv.prm

>  <Rbt.Receptor>
prm/blind_docking_40.prm

>  <SCORE>
1.74261

>  <SCORE.INTER>
-27.942

>  <SCORE.INTER.CONST>
1

>  <SCORE.INTER.POLAR>
-5.54136

>  <SCORE.INTER.ROT>
9

>  <SCORE.INTER.SOLV>
54.9564

>  <SCORE.INTER.VDW>
-28.0756

>  <SCORE.INTER.norm>
-0.665285

>  <SCORE.INTRA>
22.2065

>  <SCORE.INTRA.DIHEDRAL>
11.7014

>  <SCORE.INTRA.DIHEDRAL.0>
22.4324

>  <SCORE.INTRA.POLAR>
0.893405

>  <SCORE.INTRA.POLAR.0>
-1.83749

>  <SCORE.INTRA.REPUL>
0.101313

>  <SCORE.INTRA.REPUL.0>
0

>  <SCORE.INTRA.SOLV>
-1.7852

>  <SCORE.INTRA.SOLV.lig_0>
-160.638

>  <SCORE.INTRA.VDW>
13.7042

>  <SCORE.INTRA.VDW.0>
-7.61953

>  <SCORE.INTRA.norm>
0.528725

>  <SCORE.RESTR>
7.4781

>  <SCORE.RESTR.CAVITY>
7.4781

>  <SCORE.RESTR.norm>
0.17805

>  <SCORE.SYSTEM>
0

>  <SCORE.SYSTEM.CONST>
0

>  <SCORE.SYSTEM.DIHEDRAL>
0

>  <SCORE.SYSTEM.SOLV>
0

>  <SCORE.SYSTEM.norm>
0

>  <SCORE.heavy>
42

>  <SCORE.norm>
0.0414908

>  <RMSD>
8.855

$$$$
1NEM.B
 OpenBabel11021811403D
libRbt.so/2013.1/901 2013/11/27
 42 45  0  0  0  0  0  0  0  0999 V2000
   -1.2470   -5.2345    1.6834 O   0  0  0  0  0  0  0  0  0  0  0  0
   -2.4687   -5.3012    2.4217 C   0  0  0  0  0  0  0  0  0  0  0  0
   -3.3967   -4.1179    2.1511 C   0  0  1  0  0  0  0  0  0  0  0  0
   -2.7491   -2.8882    2.4643 O   0  0  0  0  0  0  0  0  0  0  0  0
   -3.7900   -3.9405    0.6933 C   0  0  1  0  0  0  0  0  0  0  0  0
   -4.7068   -4.9885    0.3702 O   0  0  0  0  0  0  0  0  0  0  0  0
   -4.3653   -2.5388    0.7717 C   0  0  1  0  0  0  0  0  0  0  0  0
   -5.6046   -2.5025    1.4872 O   0  0  0  0  0  0  0  0  0  0  0  0
   -3.2584   -1.8737    1.5983 C   0  0  2  0  0  0  0  0  0  0  0  0
   -6.0621   -4.6417    0.3548 C   0  0  2  0  0  0  0  0  0  0  0  0
   -6.5219   -4.3333    1.7861 C   0  0  2  0  0  0  0  0  0  0  0  0
   -6.1827   -5.4667    2.6865 N   0  3  0  0  0  0  0  0  0  0  0  0
   -8.0195   -4.0116    1.8206 C   0  0  1  0  0  0  0  0  0  0  0  0
   -8.2508   -2.7483    1.2114 O   0  0  0  0  0  0  0  0  0  0  0  0
   -8.8330   -5.0883    1.0957 C   0  0  2  0  0  0  0  0  0  0  0  0
   -8.7959   -6.3092    1.8237 O   0  0  0  0  0  0  0  0  0  0  0  0
   -8.2690   -5.3007   -0.3063 C   0  0  1  0  0  0  0  0  0  0  0  0
   -6.8754   -5.6562   -0.2201 O   0  0  0  0  0  0  0  0  0  0  0  0
   -8.9844   -6.3938   -1.0805 C   0  0  0  0  0  0  0  0  0  0  0  0
   -8.1083   -7.0125   -2.1001 N   0  3  0  0  0  0  0  0  0  0  0  0
    0.7514   -3.4075    2.2370 C   0  0  0  0  0  0  0  0  0  0  0  0
    0.6970   -0.1224    0.5246 C   0  0  2  0  0  0  0  0  0  0  0  0
    2.1870    0.1093    0.2854 C   0  0  2  0  0  0  0  0  0  0  0  0
    2.3846    1.1204   -0.7805 N   0  3  0  0  0  0  0  0  0  0  0  0
    2.8616   -1.1933   -0.1238 C   0  0  1  0  0  0  0  0  0  0  0  0
    4.2577   -0.9817   -0.2674 O   0  0  0  0  0  0  0  0  0  0  0  0
    2.5982   -2.2602    0.9365 C   0  0  2  0  0  0  0  0  0  0  0  0
    3.1661   -3.4982    0.5286 O   0  0  0  0  0  0  0  0  0  0  0  0
    1.5020   -4.6752    2.0870 N   0  3  0  0  0  0  0  0  0  0  0  0
    1.0920   -2.4238    1.1311 C   0  0  2  0  0  0  0  0  0  0  0  0
    0.4971   -1.1581    1.4829 O   0  0  0  0  0  0  0  0  0  0  0  0
   -3.3810    1.9878    0.0075 C   0  0  2  0  0  0  0  0  0  0  0  0
   -4.7544    2.5286   -0.1139 N   0  3  0  0  0  0  0  0  0  0  0  0
   -2.6425    2.1391   -1.3176 C   0  0  0  0  0  0  0  0  0  0  0  0
   -1.2288    1.5850   -1.2082 C   0  0  2  0  0  0  0  0  0  0  0  0
   -0.5800    1.7604   -2.4998 N   0  3  0  0  0  0  0  0  0  0  0  0
   -1.2803    0.1091   -0.8205 C   0  0  1  0  0  0  0  0  0  0  0  0
    0.0615   -0.4003   -0.6915 O   0  0  0  0  0  0  0  0  0  0  0  0
   -2.0276   -0.0795    0.5070 C   0  0  2  0  0  0  0  0  0  0  0  0
   -2.1492   -1.4865    0.7902 O   0  0  0  0  0  0  0  0  0  0  0  0
   -3.4277    0.5265    0.4507 C   0  0  1  0  0  0  0  0  0  0  0  0
   -4.0339    0.4399    1.7335 O   0  0  0  0  0  0  0  0  0  0  0  0
  1  2  1  0  0  0  0
  3  2  1  6  0  0  0
  3  5  1  0  0  0  0
  3  4  1  0  0  0  0
  4  9  1  0  0  0  0
  5  7  1  0  0  0  0
  5  6  1  1  0  0  0
  7  9  1  0  0  0  0
  7  8  1  1  0  0  0
  9 40  1  6  0  0  0
 10  6  1  1  0  0  0
 10 11  1  0  0  0  0
 10 18  1  0  0  0  0
 11 13  1  0  0  0  0
 11 12  1  1  0  0  0
 13 15  1  0  0  0  0
 13 14  1  6  0  0  0
 15 17  1  0  0  0  0
 15 16  1  1  0  0  0
 17 19  1  1  0  0  0
 17 18  1  0  0  0  0
 19 20  1  0  0  0  0
 21 29  1  0  0  0  0
 22 23  1  0  0  0  0
 22 31  1  0  0  0  0
 22 38  1  6  0  0  0
 23 25  1  0  0  0  0
 23 24  1  6  0  0  0
 25 27  1  0  0  0  0
 25 26  1  1  0  0  0
 27 30  1  0  0  0  0
 27 28  1  6  0  0  0
 30 21  1  1  0  0  0
 30 31  1  0  0  0  0
 32 34  1  0  0  0  0
 32 41  1  0  0  0  0
 32 33  1  6  0  0  0
 34 35  1  0  0  0  0
 35 37  1  0  0  0  0
 35 36  1  6  0  0  0
 37 39  1  0  0  0  0
 37 38  1  1  0  0  0
 39 41  1  0  0  0  0
 39 40  1  6  0  0  0
 41 42  1  1  0  0  0
M  CHG  6  12   1  20   1  24   1  29   1  33   1  36   1
M  END
>  <CHROM.1>
167.11290235,-58.18072370,100.68385396,-68.39819084,166.85252907,-140.52287861
-113.71892684,-43.07326192,-171.74391470,-153.46980634,73.99052148,-49.17300558
-49.03794407,-144.98334755,-63.74687001,100.59944258,81.53497797,161.04228570
46.53045912,81.21862624,-153.24817295,-58.87680133,-2.84149954,-2.40298944
0.60873165,-0.47665050,0.07313676,2.86849899

>  <Name>
1NEM.B

>  <RI>
0

>  <Rbt.Current_Directory>
/home/itssahil/PROJECTS/Mol_Feturizer/New_Systems/rnas/1nem

>  <Rbt.Executable>
rbdock ($Id: //depot/dev/client3/rdock/2013.1/src/exe/rbdock.cxx#4 $)

>  <Rbt.Library>
libRbt.so (2013.1, Build901 2013/11/27)

>  <Rbt.Parameter_File>
/export/apps/rDock/src/rDock_2013.1_src/data/scripts/dock_solv.prm

>  <Rbt.Receptor>
prm/blind_docking_60.prm

>  <SCORE>
-4.54578

>  <SCORE.INTER>
-56.1357

>  <SCORE.INTER.CONST>
1

>  <SCORE.INTER.POLAR>
-9.67285

>  <SCORE.INTER.ROT>
9

>  <SCORE.INTER.SOLV>
46.7123

>  <SCORE.INTER.VDW>
-30.3517

>  <SCORE.INTER.norm>
-1.33656

>  <SCORE.INTRA>
44.3732

>  <SCORE.INTRA.DIHEDRAL>
17.3531

>  <SCORE.INTRA.DIHEDRAL.0>
22.4324

>  <SCORE.INTRA.POLAR>
0.731725

>  <SCORE.INTRA.POLAR.0>
-1.83749

>  <SCORE.INTRA.REPUL>
0.0286981

>  <SCORE.INTRA.REPUL.0>
0

>  <SCORE.INTRA.SOLV>
6.10851

>  <SCORE.INTRA.SOLV.lig_0>
-160.638

>  <SCORE.INTRA.VDW>
30.0111

>  <SCORE.INTRA.VDW.0>
-7.61953

>  <SCORE.INTRA.norm>
1.05651

>  <SCORE.RESTR>
7.21666

>  <SCORE.RESTR.CAVITY>
7.21666

>  <SCORE.RESTR.norm>
0.171825

>  <SCORE.SYSTEM>
0

>  <SCORE.SYSTEM.CONST>
0

>  <SCORE.SYSTEM.DIHEDRAL>
0

>  <SCORE.SYSTEM.SOLV>
0

>  <SCORE.SYSTEM.norm>
0

>  <SCORE.heavy>
42

>  <SCORE.norm>
-0.108233

>  <RMSD>
8.865

$$$$
1NEM.B
 OpenBabel11021811403D
libRbt.so/2013.1/901 2013/11/27
 42 45  0  0  0  0  0  0  0  0999 V2000
   -4.5274   -1.0020    4.4798 O   0  0  0  0  0  0  0  0  0  0  0  0
   -5.3990   -0.8175    3.3625 C   0  0  0  0  0  0  0  0  0  0  0  0
   -4.8640   -1.4454    2.0763 C   0  0  1  0  0  0  0  0  0  0  0  0
   -3.8158   -0.6523    1.5269 O   0  0  0  0  0  0  0  0  0  0  0  0
   -4.2097   -2.8056    2.2588 C   0  0  1  0  0  0  0  0  0  0  0  0
   -5.2530   -3.7473    2.5193 O   0  0  0  0  0  0  0  0  0  0  0  0
   -3.5173   -2.9181    0.9135 C   0  0  1  0  0  0  0  0  0  0  0  0
   -4.4470   -3.1054   -0.1588 O   0  0  0  0  0  0  0  0  0  0  0  0
   -2.9056   -1.5139    0.8431 C   0  0  2  0  0  0  0  0  0  0  0  0
   -4.9120   -4.8420    3.3209 C   0  0  2  0  0  0  0  0  0  0  0  0
   -6.0013   -5.9164    3.2002 C   0  0  2  0  0  0  0  0  0  0  0  0
   -7.3345   -5.3266    3.4917 N   0  3  0  0  0  0  0  0  0  0  0  0
   -5.6968   -7.1070    4.1152 C   0  0  1  0  0  0  0  0  0  0  0  0
   -4.5833   -7.8287    3.6055 O   0  0  0  0  0  0  0  0  0  0  0  0
   -5.3981   -6.6437    5.5444 C   0  0  2  0  0  0  0  0  0  0  0  0
   -6.5743   -6.1230    6.1508 O   0  0  0  0  0  0  0  0  0  0  0  0
   -4.3081   -5.5758    5.5206 C   0  0  1  0  0  0  0  0  0  0  0  0
   -4.7213   -4.4793    4.6822 O   0  0  0  0  0  0  0  0  0  0  0  0
   -3.9853   -5.0185    6.8958 C   0  0  0  0  0  0  0  0  0  0  0  0
   -2.8475   -4.0732    6.8556 N   0  3  0  0  0  0  0  0  0  0  0  0
    2.4481    3.2134    0.6744 C   0  0  0  0  0  0  0  0  0  0  0  0
   -0.6228    1.2147    0.1254 C   0  0  2  0  0  0  0  0  0  0  0  0
   -1.2897    2.0031   -0.9992 C   0  0  2  0  0  0  0  0  0  0  0  0
   -2.2867    1.1571   -1.6978 N   0  3  0  0  0  0  0  0  0  0  0  0
   -0.2436    2.4789   -1.9984 C   0  0  1  0  0  0  0  0  0  0  0  0
   -0.8651    3.2750   -2.9956 O   0  0  0  0  0  0  0  0  0  0  0  0
    0.8267    3.2893   -1.2707 C   0  0  2  0  0  0  0  0  0  0  0  0
    1.8437    3.6788   -2.1848 O   0  0  0  0  0  0  0  0  0  0  0  0
    2.6223    2.6128    2.0168 N   0  3  0  0  0  0  0  0  0  0  0  0
    1.4348    2.4430   -0.1539 C   0  0  2  0  0  0  0  0  0  0  0  0
    0.4010    1.9896    0.7436 O   0  0  0  0  0  0  0  0  0  0  0  0
    1.4258   -3.5382    1.3813 C   0  0  2  0  0  0  0  0  0  0  0  0
    2.0457   -4.4522    2.3680 N   0  3  0  0  0  0  0  0  0  0  0  0
    2.3857   -2.4014    1.0492 C   0  0  0  0  0  0  0  0  0  0  0  0
    1.7603   -1.4519    0.0368 C   0  0  2  0  0  0  0  0  0  0  0  0
    2.7236   -0.3950   -0.2375 N   0  3  0  0  0  0  0  0  0  0  0  0
    0.4643   -0.8745    0.6010 C   0  0  1  0  0  0  0  0  0  0  0  0
   -0.1355    0.0008   -0.3739 O   0  0  0  0  0  0  0  0  0  0  0  0
   -0.5222   -1.9956    0.9558 C   0  0  2  0  0  0  0  0  0  0  0  0
   -1.6882   -1.4252    1.5801 O   0  0  0  0  0  0  0  0  0  0  0  0
    0.1000   -3.0028    1.9197 C   0  0  1  0  0  0  0  0  0  0  0  0
   -0.8001   -4.0843    2.1220 O   0  0  0  0  0  0  0  0  0  0  0  0
  1  2  1  0  0  0  0
  3  2  1  1  0  0  0
  3  5  1  0  0  0  0
  3  4  1  0  0  0  0
  4  9  1  0  0  0  0
  5  7  1  0  0  0  0
  5  6  1  6  0  0  0
  7  9  1  0  0  0  0
  7  8  1  6  0  0  0
  9 40  1  1  0  0  0
 10  6  1  6  0  0  0
 10 11  1  0  0  0  0
 10 18  1  0  0  0  0
 11 13  1  0  0  0  0
 11 12  1  1  0  0  0
 13 15  1  0  0  0  0
 13 14  1  6  0  0  0
 15 17  1  0  0  0  0
 15 16  1  6  0  0  0
 17 19  1  1  0  0  0
 17 18  1  0  0  0  0
 19 20  1  0  0  0  0
 21 29  1  0  0  0  0
 22 23  1  0  0  0  0
 22 31  1  0  0  0  0
 22 38  1  6  0  0  0
 23 25  1  0  0  0  0
 23 24  1  6  0  0  0
 25 27  1  0  0  0  0
 25 26  1  6  0  0  0
 27 30  1  0  0  0  0
 27 28  1  6  0  0  0
 30 21  1  1  0  0  0
 30 31  1  0  0  0  0
 32 34  1  0  0  0  0
 32 41  1  0  0  0  0
 32 33  1  1  0  0  0
 34 35  1  0  0  0  0
 35 37  1  0  0  0  0
 35 36  1  1  0  0  0
 37 39  1  0  0  0  0
 37 38  1  6  0  0  0
 39 41  1  0  0  0  0
 39 40  1  1  0  0  0
 41 42  1  6  0  0  0
M  CHG  6  12   1  20   1  24   1  29   1  33   1  36   1
M  END
>  <CHROM.1>
-174.27946901,-75.61893206,-150.08431672,-165.30905994,-50.57105108,-168.24611691
44.99851903,80.12370526,70.69864092,175.07057149,179.11489090,157.47242149
-35.23389700,-177.13903184,52.41835220,-63.97798969,178.99827115,-61.52083287
165.79557075,-135.94720995,112.82100759,64.51180571,-1.98815918,-1.83454658
1.79972458,2.17693290,-0.00723602,2.52710973

>  <Name>
1NEM.B

>  <RI>
0

>  <Rbt.Current_Directory>
/home/itssahil/PROJECTS/Mol_Feturizer/New_Systems/rnas/1nem

>  <Rbt.Executable>
rbdock ($Id: //depot/dev/client3/rdock/2013.1/src/exe/rbdock.cxx#4 $)

>  <Rbt.Library>
libRbt.so (2013.1, Build901 2013/11/27)

>  <Rbt.Parameter_File>
/export/apps/rDock/src/rDock_2013.1_src/data/scripts/dock_solv.prm

>  <Rbt.Receptor>
prm/pocket_docking_5.prm

>  <SCORE>
-41.9257

>  <SCORE.INTER>
-47.0188

>  <SCORE.INTER.CONST>
1

>  <SCORE.INTER.POLAR>
-7.01542

>  <SCORE.INTER.ROT>
9

>  <SCORE.INTER.SOLV>
34.2462

>  <SCORE.INTER.VDW>
-28.9766

>  <SCORE.INTER.norm>
-1.1195

>  <SCORE.INTRA>
5.09307

>  <SCORE.INTRA.DIHEDRAL>
4.51695

>  <SCORE.INTRA.DIHEDRAL.0>
22.4324

>  <SCORE.INTRA.POLAR>
0.961735

>  <SCORE.INTRA.POLAR.0>
-1.83749

>  <SCORE.INTRA.REPUL>
0.00322756

>  <SCORE.INTRA.REPUL.0>
0

>  <SCORE.INTRA.SOLV>
-2.43247

>  <SCORE.INTRA.SOLV.lig_0>
-160.638

>  <SCORE.INTRA.VDW>
0.764797

>  <SCORE.INTRA.VDW.0>
-7.61953

>  <SCORE.INTRA.norm>
0.121264

>  <SCORE.RESTR>
0

>  <SCORE.RESTR.CAVITY>
0

>  <SCORE.RESTR.norm>
0

>  <SCORE.SYSTEM>
0

>  <SCORE.SYSTEM.CONST>
0

>  <SCORE.SYSTEM.DIHEDRAL>
0

>  <SCORE.SYSTEM.SOLV>
0

>  <SCORE.SYSTEM.norm>
0

>  <SCORE.heavy>
42

>  <SCORE.norm>
-0.998232

>  <RMSD>
8.878

$$$$
1NEM.B
 OpenBabel11021811403D
libRbt.so/2013.1/901 2013/11/27
 42 45  0  0  0  0  0  0  0  0999 V2000
   -4.3944    1.6014    1.6796 O   0  0  0  0  0  0  0  0  0  0  0  0
   -5.2208    0.4426    1.5516 C   0  0  0  0  0  0  0  0  0  0  0  0
   -4.6079   -0.6334    0.6565 C   0  0  1  0  0  0  0  0  0  0  0  0
   -3.4120   -0.1587    0.0451 O   0  0  0  0  0  0  0  0  0  0  0  0
   -4.1489   -1.8834    1.3903 C   0  0  1  0  0  0  0  0  0  0  0  0
   -5.3218   -2.5989    1.7849 O   0  0  0  0  0  0  0  0  0  0  0  0
   -3.3120   -2.5100    0.2909 C   0  0  1  0  0  0  0  0  0  0  0  0
   -4.1158   -2.9991   -0.7879 O   0  0  0  0  0  0  0  0  0  0  0  0
   -2.5329   -1.2662   -0.1526 C   0  0  2  0  0  0  0  0  0  0  0  0
   -5.1435   -3.5919    2.7542 C   0  0  2  0  0  0  0  0  0  0  0  0
   -5.9013   -4.8567    2.3283 C   0  0  2  0  0  0  0  0  0  0  0  0
   -7.3205   -4.5264    2.0336 N   0  3  0  0  0  0  0  0  0  0  0  0
   -5.7843   -5.9484    3.3970 C   0  0  1  0  0  0  0  0  0  0  0  0
   -4.4562   -6.4545    3.4194 O   0  0  0  0  0  0  0  0  0  0  0  0
   -6.1517   -5.4076    4.7822 C   0  0  2  0  0  0  0  0  0  0  0  0
   -7.5406   -5.1088    4.8435 O   0  0  0  0  0  0  0  0  0  0  0  0
   -5.3355   -4.1521    5.0761 C   0  0  1  0  0  0  0  0  0  0  0  0
   -5.5649   -3.1718    4.0453 O   0  0  0  0  0  0  0  0  0  0  0  0
   -5.6756   -3.5156    6.4122 C   0  0  0  0  0  0  0  0  0  0  0  0
   -4.8180   -2.3446    6.7004 N   0  3  0  0  0  0  0  0  0  0  0  0
    2.5005    2.9861    1.2456 C   0  0  0  0  0  0  0  0  0  0  0  0
    0.1924    0.9459   -0.8130 C   0  0  2  0  0  0  0  0  0  0  0  0
    0.2611    1.6820   -2.1488 C   0  0  2  0  0  0  0  0  0  0  0  0
   -0.2078    0.8010   -3.2449 N   0  3  0  0  0  0  0  0  0  0  0  0
    1.6910    2.1224   -2.4324 C   0  0  1  0  0  0  0  0  0  0  0  0
    1.7282    2.8719   -3.6371 O   0  0  0  0  0  0  0  0  0  0  0  0
    2.2048    2.9696   -1.2704 C   0  0  2  0  0  0  0  0  0  0  0  0
    3.5624    3.3271   -1.4955 O   0  0  0  0  0  0  0  0  0  0  0  0
    1.5465    4.0869    1.5121 N   0  3  0  0  0  0  0  0  0  0  0  0
    2.0901    2.1749    0.0290 C   0  0  2  0  0  0  0  0  0  0  0  0
    0.7263    1.7528    0.2334 O   0  0  0  0  0  0  0  0  0  0  0  0
    1.1229   -3.5900    1.7362 C   0  0  2  0  0  0  0  0  0  0  0  0
    1.2607   -4.3686    2.9884 N   0  3  0  0  0  0  0  0  0  0  0  0
    2.3547   -2.7164    1.5276 C   0  0  0  0  0  0  0  0  0  0  0  0
    2.2260   -1.9080    0.2442 C   0  0  2  0  0  0  0  0  0  0  0  0
    3.4292   -1.1002    0.1034 N   0  3  0  0  0  0  0  0  0  0  0  0
    0.9821   -1.0250    0.3115 C   0  0  1  0  0  0  0  0  0  0  0  0
    0.8519   -0.2846   -0.9178 O   0  0  0  0  0  0  0  0  0  0  0  0
   -0.2774   -1.8746    0.5313 C   0  0  2  0  0  0  0  0  0  0  0  0
   -1.4155   -1.0069    0.6944 O   0  0  0  0  0  0  0  0  0  0  0  0
   -0.1514   -2.7482    1.7770 C   0  0  1  0  0  0  0  0  0  0  0  0
   -1.2818   -3.6047    1.8719 O   0  0  0  0  0  0  0  0  0  0  0  0
  1  2  1  0  0  0  0
  3  2  1  1  0  0  0
  3  5  1  0  0  0  0
  3  4  1  0  0  0  0
  4  9  1  0  0  0  0
  5  7  1  0  0  0  0
  5  6  1  6  0  0  0
  7  9  1  0  0  0  0
  7  8  1  6  0  0  0
  9 40  1  1  0  0  0
 10  6  1  6  0  0  0
 10 11  1  0  0  0  0
 10 18  1  0  0  0  0
 11 13  1  0  0  0  0
 11 12  1  1  0  0  0
 13 15  1  0  0  0  0
 13 14  1  1  0  0  0
 15 17  1  0  0  0  0
 15 16  1  6  0  0  0
 17 19  1  1  0  0  0
 17 18  1  0  0  0  0
 19 20  1  0  0  0  0
 21 29  1  0  0  0  0
 22 23  1  0  0  0  0
 22 31  1  0  0  0  0
 22 38  1  6  0  0  0
 23 25  1  0  0  0  0
 23 24  1  6  0  0  0
 25 27  1  0  0  0  0
 25 26  1  6  0  0  0
 27 30  1  0  0  0  0
 27 28  1  6  0  0  0
 30 21  1  1  0  0  0
 30 31  1  0  0  0  0
 32 34  1  0  0  0  0
 32 41  1  0  0  0  0
 32 33  1  1  0  0  0
 34 35  1  0  0  0  0
 35 37  1  0  0  0  0
 35 36  1  1  0  0  0
 37 39  1  0  0  0  0
 37 38  1  6  0  0  0
 39 41  1  0  0  0  0
 39 40  1  1  0  0  0
 41 42  1  6  0  0  0
M  CHG  6  12   1  20   1  24   1  29   1  33   1  36   1
M  END
>  <CHROM.1>
151.89198698,-6.22620044,-164.42691478,-134.66743283,177.68289107,-170.69696664
-158.45697322,63.64984640,-78.11670075,176.91888725,80.15073849,67.70179500
-59.86333614,173.91257363,173.92055335,64.58039440,-55.83119957,-24.76515626
38.22136838,-152.06624586,127.23147076,167.87506594,-1.80506679,-1.34750577
1.21999472,2.35977336,-0.10263950,2.56951303

>  <Name>
1NEM.B

>  <RI>
0

>  <Rbt.Current_Directory>
/home/itssahil/PROJECTS/Mol_Feturizer/New_Systems/rnas/1nem

>  <Rbt.Executable>
rbdock ($Id: //depot/dev/client3/rdock/2013.1/src/exe/rbdock.cxx#4 $)

>  <Rbt.Library>
libRbt.so (2013.1, Build901 2013/11/27)

>  <Rbt.Parameter_File>
/export/apps/rDock/src/rDock_2013.1_src/data/scripts/dock_solv.prm

>  <Rbt.Receptor>
prm/pocket_docking_5.prm

>  <SCORE>
-31.4452

>  <SCORE.INTER>
-45.911

>  <SCORE.INTER.CONST>
1

>  <SCORE.INTER.POLAR>
-8.13163

>  <SCORE.INTER.ROT>
9

>  <SCORE.INTER.SOLV>
37.7259

>  <SCORE.INTER.VDW>
-25.6772

>  <SCORE.INTER.norm>
-1.09312

>  <SCORE.INTRA>
14.4659

>  <SCORE.INTRA.DIHEDRAL>
12.8475

>  <SCORE.INTRA.DIHEDRAL.0>
22.4324

>  <SCORE.INTRA.POLAR>
1.83059

>  <SCORE.INTRA.POLAR.0>
-1.83749

>  <SCORE.INTRA.REPUL>
0.0110338

>  <SCORE.INTRA.REPUL.0>
0

>  <SCORE.INTRA.SOLV>
-7.22746

>  <SCORE.INTRA.SOLV.lig_0>
-160.638

>  <SCORE.INTRA.VDW>
5.37664

>  <SCORE.INTRA.VDW.0>
-7.61953

>  <SCORE.INTRA.norm>
0.344425

>  <SCORE.RESTR>
0

>  <SCORE.RESTR.CAVITY>
0

>  <SCORE.RESTR.norm>
0

>  <SCORE.SYSTEM>
0

>  <SCORE.SYSTEM.CONST>
0

>  <SCORE.SYSTEM.DIHEDRAL>
0

>  <SCORE.SYSTEM.SOLV>
0

>  <SCORE.SYSTEM.norm>
0

>  <SCORE.heavy>
42

>  <SCORE.norm>
-0.748695

>  <RMSD>
8.881

$$$$
1NEM.B
 OpenBabel11021811403D
libRbt.so/2013.1/901 2013/11/27
 42 45  0  0  0  0  0  0  0  0999 V2000
   -0.7723   -5.9212    1.3253 O   0  0  0  0  0  0  0  0  0  0  0  0
   -2.1561   -5.8558    1.6758 C   0  0  0  0  0  0  0  0  0  0  0  0
   -2.5447   -4.5324    2.3334 C   0  0  1  0  0  0  0  0  0  0  0  0
   -1.5096   -3.5670    2.1724 O   0  0  0  0  0  0  0  0  0  0  0  0
   -3.7546   -3.8488    1.7168 C   0  0  1  0  0  0  0  0  0  0  0  0
   -4.9079   -4.6038    2.0953 O   0  0  0  0  0  0  0  0  0  0  0  0
   -3.6035   -2.4798    2.3531 C   0  0  1  0  0  0  0  0  0  0  0  0
   -3.8788   -2.5034    3.7577 O   0  0  0  0  0  0  0  0  0  0  0  0
   -2.1039   -2.2702    2.1121 C   0  0  2  0  0  0  0  0  0  0  0  0
   -5.9661   -4.6171    1.1803 C   0  0  2  0  0  0  0  0  0  0  0  0
   -6.7706   -3.3174    1.3181 C   0  0  2  0  0  0  0  0  0  0  0  0
   -7.1781   -3.1172    2.7338 N   0  3  0  0  0  0  0  0  0  0  0  0
   -7.9790   -3.3216    0.3763 C   0  0  1  0  0  0  0  0  0  0  0  0
   -7.5369   -3.1945   -0.9686 O   0  0  0  0  0  0  0  0  0  0  0  0
   -8.7950   -4.6089    0.5296 C   0  0  2  0  0  0  0  0  0  0  0  0
   -9.4343   -4.6402    1.7994 O   0  0  0  0  0  0  0  0  0  0  0  0
   -7.8776   -5.8190    0.3784 C   0  0  1  0  0  0  0  0  0  0  0  0
   -6.8140   -5.7458    1.3476 O   0  0  0  0  0  0  0  0  0  0  0  0
   -8.5961   -7.1431    0.5702 C   0  0  0  0  0  0  0  0  0  0  0  0
   -9.2659   -7.5928   -0.6703 N   0  3  0  0  0  0  0  0  0  0  0  0
    4.0628    1.4175    2.7197 C   0  0  0  0  0  0  0  0  0  0  0  0
    1.7184   -0.4273    0.5226 C   0  0  2  0  0  0  0  0  0  0  0  0
    2.0508   -1.8726    0.8855 C   0  0  2  0  0  0  0  0  0  0  0  0
    0.9408   -2.7703    0.4860 N   0  3  0  0  0  0  0  0  0  0  0  0
    2.2849   -1.9965    2.3851 C   0  0  1  0  0  0  0  0  0  0  0  0
    2.6686   -3.3265    2.6987 O   0  0  0  0  0  0  0  0  0  0  0  0
    3.3772   -1.0195    2.8143 C   0  0  2  0  0  0  0  0  0  0  0  0
    3.5534   -1.0796    4.2239 O   0  0  0  0  0  0  0  0  0  0  0  0
    3.7199    2.2214    3.9152 N   0  3  0  0  0  0  0  0  0  0  0  0
    2.9821    0.3980    2.4047 C   0  0  2  0  0  0  0  0  0  0  0  0
    2.7387    0.4541    0.9843 O   0  0  0  0  0  0  0  0  0  0  0  0
   -3.0979    1.3982   -0.7468 C   0  0  2  0  0  0  0  0  0  0  0  0
   -4.1633    1.6432   -1.7459 N   0  3  0  0  0  0  0  0  0  0  0  0
   -1.7544    1.8699   -1.2915 C   0  0  0  0  0  0  0  0  0  0  0  0
   -0.6485    1.6221   -0.2752 C   0  0  2  0  0  0  0  0  0  0  0  0
    0.6021    2.0936   -0.8531 N   0  3  0  0  0  0  0  0  0  0  0  0
   -0.5700    0.1326    0.0511 C   0  0  1  0  0  0  0  0  0  0  0  0
    0.4597   -0.0898    1.0343 O   0  0  0  0  0  0  0  0  0  0  0  0
   -1.9123   -0.3774    0.5937 C   0  0  2  0  0  0  0  0  0  0  0  0
   -1.8364   -1.8020    0.7921 O   0  0  0  0  0  0  0  0  0  0  0  0
   -3.0546   -0.0832   -0.3755 C   0  0  1  0  0  0  0  0  0  0  0  0
   -4.2899   -0.4584    0.2192 O   0  0  0  0  0  0  0  0  0  0  0  0
  1  2  1  0  0  0  0
  3  2  1  6  0  0  0
  3  5  1  0  0  0  0
  3  4  1  0  0  0  0
  4  9  1  0  0  0  0
  5  7  1  0  0  0  0
  5  6  1  1  0  0  0
  7  9  1  0  0  0  0
  7  8  1  1  0  0  0
  9 40  1  6  0  0  0
 10  6  1  1  0  0  0
 10 11  1  0  0  0  0
 10 18  1  0  0  0  0
 11 13  1  0  0  0  0
 11 12  1  1  0  0  0
 13 15  1  0  0  0  0
 13 14  1  6  0  0  0
 15 17  1  0  0  0  0
 15 16  1  1  0  0  0
 17 19  1  1  0  0  0
 17 18  1  0  0  0  0
 19 20  1  0  0  0  0
 21 29  1  0  0  0  0
 22 23  1  0  0  0  0
 22 31  1  0  0  0  0
 22 38  1  1  0  0  0
 23 25  1  0  0  0  0
 23 24  1  1  0  0  0
 25 27  1  0  0  0  0
 25 26  1  6  0  0  0
 27 30  1  0  0  0  0
 27 28  1  1  0  0  0
 30 21  1  6  0  0  0
 30 31  1  0  0  0  0
 32 34  1  0  0  0  0
 32 41  1  0  0  0  0
 32 33  1  6  0  0  0
 34 35  1  0  0  0  0
 35 37  1  0  0  0  0
 35 36  1  6  0  0  0
 37 39  1  0  0  0  0
 37 38  1  1  0  0  0
 39 41  1  0  0  0  0
 39 40  1  6  0  0  0
 41 42  1  1  0  0  0
M  CHG  6  12   1  20   1  24   1  29   1  33   1  36   1
M  END
>  <CHROM.1>
64.74350487,12.99531309,-148.67316792,-80.04534216,54.96526073,-159.51915719
-80.42331013,-174.48896340,88.96605146,83.58204548,157.64294899,-103.90480342
-90.95314039,-112.03186187,34.30433810,69.84150262,-176.41749165,8.19339223
-178.49311501,-94.03587778,122.43342986,169.77152190,-2.42869123,-2.17790274
1.19549360,-2.75806006,-0.29601667,-0.42878639

>  <Name>
1NEM.B

>  <RI>
0

>  <Rbt.Current_Directory>
/home/itssahil/PROJECTS/Mol_Feturizer/New_Systems/rnas/1nem

>  <Rbt.Executable>
rbdock ($Id: //depot/dev/client3/rdock/2013.1/src/exe/rbdock.cxx#4 $)

>  <Rbt.Library>
libRbt.so (2013.1, Build901 2013/11/27)

>  <Rbt.Parameter_File>
/export/apps/rDock/src/rDock_2013.1_src/data/scripts/dock_solv.prm

>  <Rbt.Receptor>
prm/blind_docking_60.prm

>  <SCORE>
-27.4069

>  <SCORE.INTER>
-47.2204

>  <SCORE.INTER.CONST>
1

>  <SCORE.INTER.POLAR>
-9.60893

>  <SCORE.INTER.ROT>
9

>  <SCORE.INTER.SOLV>
43.5147

>  <SCORE.INTER.VDW>
-23.5554

>  <SCORE.INTER.norm>
-1.1243

>  <SCORE.INTRA>
13.2818

>  <SCORE.INTRA.DIHEDRAL>
28.2965

>  <SCORE.INTRA.DIHEDRAL.0>
22.4324

>  <SCORE.INTRA.POLAR>
-0.759928

>  <SCORE.INTRA.POLAR.0>
-1.83749

>  <SCORE.INTRA.REPUL>
0

>  <SCORE.INTRA.REPUL.0>
0

>  <SCORE.INTRA.SOLV>
-1.75394

>  <SCORE.INTRA.SOLV.lig_0>
-160.638

>  <SCORE.INTRA.VDW>
2.5943

>  <SCORE.INTRA.VDW.0>
-7.61953

>  <SCORE.INTRA.norm>
0.316234

>  <SCORE.RESTR>
6.5317

>  <SCORE.RESTR.CAVITY>
6.5317

>  <SCORE.RESTR.norm>
0.155517

>  <SCORE.SYSTEM>
0

>  <SCORE.SYSTEM.CONST>
0

>  <SCORE.SYSTEM.DIHEDRAL>
0

>  <SCORE.SYSTEM.SOLV>
0

>  <SCORE.SYSTEM.norm>
0

>  <SCORE.heavy>
42

>  <SCORE.norm>
-0.652544

>  <RMSD>
8.888

$$$$
1NEM.B
 OpenBabel11021811403D
libRbt.so/2013.1/901 2013/11/27
 42 45  0  0  0  0  0  0  0  0999 V2000
   -6.3945   -1.8375    1.5570 O   0  0  0  0  0  0  0  0  0  0  0  0
   -6.2264   -3.0595    0.8354 C   0  0  0  0  0  0  0  0  0  0  0  0
   -4.7755   -3.5373    0.7976 C   0  0  1  0  0  0  0  0  0  0  0  0
   -3.9175   -2.5044    0.3217 O   0  0  0  0  0  0  0  0  0  0  0  0
   -4.1847   -3.8796    2.1561 C   0  0  1  0  0  0  0  0  0  0  0  0
   -4.7850   -5.1043    2.5839 O   0  0  0  0  0  0  0  0  0  0  0  0
   -2.7194   -3.9438    1.7680 C   0  0  1  0  0  0  0  0  0  0  0  0
   -2.4264   -5.0812    0.9497 O   0  0  0  0  0  0  0  0  0  0  0  0
   -2.6377   -2.6589    0.9355 C   0  0  2  0  0  0  0  0  0  0  0  0
   -5.9170   -4.9870    3.3976 C   0  0  2  0  0  0  0  0  0  0  0  0
   -5.5090   -5.1843    4.8638 C   0  0  2  0  0  0  0  0  0  0  0  0
   -4.7644   -6.4618    5.0188 N   0  3  0  0  0  0  0  0  0  0  0  0
   -6.7334   -5.1278    5.7830 C   0  0  1  0  0  0  0  0  0  0  0  0
   -7.2247   -3.7953    5.8427 O   0  0  0  0  0  0  0  0  0  0  0  0
   -7.8411   -6.0621    5.2865 C   0  0  2  0  0  0  0  0  0  0  0  0
   -7.4459   -7.4199    5.4361 O   0  0  0  0  0  0  0  0  0  0  0  0
   -8.1432   -5.7662    3.8202 C   0  0  1  0  0  0  0  0  0  0  0  0
   -6.9406   -5.9061    3.0391 O   0  0  0  0  0  0  0  0  0  0  0  0
   -9.1963   -6.6861    3.2281 C   0  0  0  0  0  0  0  0  0  0  0  0
  -10.4584   -6.6500    3.9999 N   0  3  0  0  0  0  0  0  0  0  0  0
    3.9964    0.6997   -0.2062 C   0  0  0  0  0  0  0  0  0  0  0  0
    1.1993   -1.6143    0.5348 C   0  0  2  0  0  0  0  0  0  0  0  0
    1.8133   -2.4744    1.6367 C   0  0  2  0  0  0  0  0  0  0  0  0
    0.7478   -3.1595    2.4067 N   0  3  0  0  0  0  0  0  0  0  0  0
    2.6395   -1.6091    2.5789 C   0  0  1  0  0  0  0  0  0  0  0  0
    3.2671   -2.4300    3.5519 O   0  0  0  0  0  0  0  0  0  0  0  0
    3.6916   -0.8439    1.7795 C   0  0  2  0  0  0  0  0  0  0  0  0
    4.4219    0.0187    2.6421 O   0  0  0  0  0  0  0  0  0  0  0  0
    4.7389   -0.2475   -1.0691 N   0  3  0  0  0  0  0  0  0  0  0  0
    3.0052   -0.0222    0.6900 C   0  0  2  0  0  0  0  0  0  0  0  0
    2.2100   -0.8812   -0.1522 O   0  0  0  0  0  0  0  0  0  0  0  0
   -3.0264    1.3387   -0.6600 C   0  0  2  0  0  0  0  0  0  0  0  0
   -4.1733    1.6595   -1.5405 N   0  3  0  0  0  0  0  0  0  0  0  0
   -1.7770    1.0964   -1.4993 C   0  0  0  0  0  0  0  0  0  0  0  0
   -0.5897    0.7631   -0.6069 C   0  0  2  0  0  0  0  0  0  0  0  0
    0.5662    0.5456   -1.4653 N   0  3  0  0  0  0  0  0  0  0  0  0
   -0.8970   -0.4838    0.2189 C   0  0  1  0  0  0  0  0  0  0  0  0
    0.2200   -0.7760    1.0810 O   0  0  0  0  0  0  0  0  0  0  0  0
   -2.1577   -0.2763    1.0697 C   0  0  2  0  0  0  0  0  0  0  0  0
   -2.4784   -1.5024    1.7542 O   0  0  0  0  0  0  0  0  0  0  0  0
   -3.3528    0.1251    0.2088 C   0  0  1  0  0  0  0  0  0  0  0  0
   -4.4609    0.4267    1.0464 O   0  0  0  0  0  0  0  0  0  0  0  0
  1  2  1  0  0  0  0
  3  2  1  1  0  0  0
  3  5  1  0  0  0  0
  3  4  1  0  0  0  0
  4  9  1  0  0  0  0
  5  7  1  0  0  0  0
  5  6  1  6  0  0  0
  7  9  1  0  0  0  0
  7  8  1  6  0  0  0
  9 40  1  1  0  0  0
 10  6  1  6  0  0  0
 10 11  1  0  0  0  0
 10 18  1  0  0  0  0
 11 13  1  0  0  0  0
 11 12  1  6  0  0  0
 13 15  1  0  0  0  0
 13 14  1  6  0  0  0
 15 17  1  0  0  0  0
 15 16  1  6  0  0  0
 17 19  1  6  0  0  0
 17 18  1  0  0  0  0
 19 20  1  0  0  0  0
 21 29  1  0  0  0  0
 22 23  1  0  0  0  0
 22 31  1  0  0  0  0
 22 38  1  1  0  0  0
 23 25  1  0  0  0  0
 23 24  1  1  0  0  0
 25 27  1  0  0  0  0
 25 26  1  1  0  0  0
 27 30  1  0  0  0  0
 27 28  1  1  0  0  0
 30 21  1  6  0  0  0
 30 31  1  0  0  0  0
 32 34  1  0  0  0  0
 32 41  1  0  0  0  0
 32 33  1  6  0  0  0
 34 35  1  0  0  0  0
 35 37  1  0  0  0  0
 35 36  1  6  0  0  0
 37 39  1  0  0  0  0
 37 38  1  1  0  0  0
 39 41  1  0  0  0  0
 39 40  1  6  0  0  0
 41 42  1  1  0  0  0
M  CHG  6  12   1  20   1  24   1  29   1  33   1  36   1
M  END
>  <CHROM.1>
55.75691067,-52.93311114,-93.68205239,-99.42762670,66.60816993,-75.86554746
63.68744407,-55.40619667,68.19374769,56.15406933,-59.21673353,69.95399739
132.85626060,-146.99599002,-150.58291634,-67.00349475,163.40233471,-32.88863569
-58.41826874,-89.58773629,-55.22171033,-51.64537797,-2.59080809,-2.52343184
1.81395557,2.55874596,0.09388931,2.41299014

>  <Name>
1NEM.B

>  <RI>
0

>  <Rbt.Current_Directory>
/home/itssahil/PROJECTS/Mol_Feturizer/New_Systems/rnas/1nem

>  <Rbt.Executable>
rbdock ($Id: //depot/dev/client3/rdock/2013.1/src/exe/rbdock.cxx#4 $)

>  <Rbt.Library>
libRbt.so (2013.1, Build901 2013/11/27)

>  <Rbt.Parameter_File>
/export/apps/rDock/src/rDock_2013.1_src/data/scripts/dock_solv.prm

>  <Rbt.Receptor>
prm/pocket_docking_6.prm

>  <SCORE>
-26.168

>  <SCORE.INTER>
-34.1723

>  <SCORE.INTER.CONST>
1

>  <SCORE.INTER.POLAR>
-5.12176

>  <SCORE.INTER.ROT>
9

>  <SCORE.INTER.SOLV>
35.4568

>  <SCORE.INTER.VDW>
-27.128

>  <SCORE.INTER.norm>
-0.813627

>  <SCORE.INTRA>
7.57641

>  <SCORE.INTRA.DIHEDRAL>
6.28521

>  <SCORE.INTRA.DIHEDRAL.0>
22.4324

>  <SCORE.INTRA.POLAR>
-0.357679

>  <SCORE.INTRA.POLAR.0>
-1.83749

>  <SCORE.INTRA.REPUL>
0

>  <SCORE.INTRA.REPUL.0>
0

>  <SCORE.INTRA.SOLV>
0.769548

>  <SCORE.INTRA.SOLV.lig_0>
-160.638

>  <SCORE.INTRA.VDW>
5.26514

>  <SCORE.INTRA.VDW.0>
-7.61953

>  <SCORE.INTRA.norm>
0.180391

>  <SCORE.RESTR>
0.427911

>  <SCORE.RESTR.CAVITY>
0.427911

>  <SCORE.RESTR.norm>
0.0101884

>  <SCORE.SYSTEM>
0

>  <SCORE.SYSTEM.CONST>
0

>  <SCORE.SYSTEM.DIHEDRAL>
0

>  <SCORE.SYSTEM.SOLV>
0

>  <SCORE.SYSTEM.norm>
0

>  <SCORE.heavy>
42

>  <SCORE.norm>
-0.623048

>  <RMSD>
8.890

$$$$
1NEM.B
 OpenBabel11021811403D
libRbt.so/2013.1/901 2013/11/27
 42 45  0  0  0  0  0  0  0  0999 V2000
   -3.9960    2.7763   -0.1549 O   0  0  0  0  0  0  0  0  0  0  0  0
   -3.3153    1.6633    0.4282 C   0  0  0  0  0  0  0  0  0  0  0  0
   -2.0930    1.2216   -0.3754 C   0  0  1  0  0  0  0  0  0  0  0  0
   -1.1057    2.2484   -0.3955 O   0  0  0  0  0  0  0  0  0  0  0  0
   -1.3452    0.0337    0.2086 C   0  0  1  0  0  0  0  0  0  0  0  0
   -2.1535   -1.1252   -0.0080 O   0  0  0  0  0  0  0  0  0  0  0  0
   -0.0702    0.1314   -0.6079 C   0  0  1  0  0  0  0  0  0  0  0  0
   -0.2801   -0.2136   -1.9812 O   0  0  0  0  0  0  0  0  0  0  0  0
    0.1825    1.6377   -0.4743 C   0  0  2  0  0  0  0  0  0  0  0  0
   -2.6271   -1.7720    1.1386 C   0  0  2  0  0  0  0  0  0  0  0  0
   -2.0135   -3.1765    1.2172 C   0  0  2  0  0  0  0  0  0  0  0  0
   -2.2553   -3.9108   -0.0527 N   0  3  0  0  0  0  0  0  0  0  0  0
   -2.5586   -3.9429    2.4267 C   0  0  1  0  0  0  0  0  0  0  0  0
   -2.0369   -3.3804    3.6233 O   0  0  0  0  0  0  0  0  0  0  0  0
   -4.0894   -3.9007    2.4639 C   0  0  2  0  0  0  0  0  0  0  0  0
   -4.6307   -4.6590    1.3896 O   0  0  0  0  0  0  0  0  0  0  0  0
   -4.5653   -2.4537    2.3716 C   0  0  1  0  0  0  0  0  0  0  0  0
   -4.0463   -1.8477    1.1718 O   0  0  0  0  0  0  0  0  0  0  0  0
   -6.0779   -2.3209    2.3471 C   0  0  0  0  0  0  0  0  0  0  0  0
   -6.6549   -2.8110    1.0756 N   0  3  0  0  0  0  0  0  0  0  0  0
    2.3236    6.8674   -2.8832 C   0  0  0  0  0  0  0  0  0  0  0  0
    2.6740    5.1716    0.3922 C   0  0  2  0  0  0  0  0  0  0  0  0
    1.2673    5.3385    0.9617 C   0  0  2  0  0  0  0  0  0  0  0  0
    1.0325    4.3549    2.0457 N   0  3  0  0  0  0  0  0  0  0  0  0
    0.2299    5.1376   -0.1349 C   0  0  1  0  0  0  0  0  0  0  0  0
   -1.0682    5.3715    0.3891 O   0  0  0  0  0  0  0  0  0  0  0  0
    0.5123    6.0987   -1.2875 C   0  0  2  0  0  0  0  0  0  0  0  0
   -0.4101    5.8700   -2.3451 O   0  0  0  0  0  0  0  0  0  0  0  0
    3.5449    6.4334   -3.5994 N   0  3  0  0  0  0  0  0  0  0  0  0
    1.9379    5.8839   -1.7920 C   0  0  2  0  0  0  0  0  0  0  0  0
    2.8772    6.0512   -0.7106 O   0  0  0  0  0  0  0  0  0  0  0  0
    3.8844    0.3203    2.2144 C   0  0  2  0  0  0  0  0  0  0  0  0
    4.0356   -0.6313    3.3391 N   0  3  0  0  0  0  0  0  0  0  0  0
    4.6453    1.6068    2.5144 C   0  0  0  0  0  0  0  0  0  0  0  0
    4.4968    2.5960    1.3670 C   0  0  2  0  0  0  0  0  0  0  0  0
    5.2443    3.7965    1.7136 N   0  3  0  0  0  0  0  0  0  0  0  0
    3.0202    2.9178    1.1492 C   0  0  1  0  0  0  0  0  0  0  0  0
    2.8863    3.8324    0.0438 O   0  0  0  0  0  0  0  0  0  0  0  0
    2.2223    1.6402    0.8541 C   0  0  2  0  0  0  0  0  0  0  0  0
    0.8221    1.9638    0.7577 O   0  0  0  0  0  0  0  0  0  0  0  0
    2.4047    0.6004    1.9569 C   0  0  1  0  0  0  0  0  0  0  0  0
    1.7523   -0.6061    1.5840 O   0  0  0  0  0  0  0  0  0  0  0  0
  1  2  1  0  0  0  0
  3  2  1  1  0  0  0
  3  5  1  0  0  0  0
  3  4  1  0  0  0  0
  4  9  1  0  0  0  0
  5  7  1  0  0  0  0
  5  6  1  6  0  0  0
  7  9  1  0  0  0  0
  7  8  1  6  0  0  0
  9 40  1  1  0  0  0
 10  6  1  6  0  0  0
 10 11  1  0  0  0  0
 10 18  1  0  0  0  0
 11 13  1  0  0  0  0
 11 12  1  6  0  0  0
 13 15  1  0  0  0  0
 13 14  1  1  0  0  0
 15 17  1  0  0  0  0
 15 16  1  6  0  0  0
 17 19  1  6  0  0  0
 17 18  1  0  0  0  0
 19 20  1  0  0  0  0
 21 29  1  0  0  0  0
 22 23  1  0  0  0  0
 22 31  1  0  0  0  0
 22 38  1  6  0  0  0
 23 25  1  0  0  0  0
 23 24  1  1  0  0  0
 25 27  1  0  0  0  0
 25 26  1  1  0  0  0
 27 30  1  0  0  0  0
 27 28  1  6  0  0  0
 30 21  1  6  0  0  0
 30 31  1  0  0  0  0
 32 34  1  0  0  0  0
 32 41  1  0  0  0  0
 32 33  1  1  0  0  0
 34 35  1  0  0  0  0
 35 37  1  0  0  0  0
 35 36  1  1  0  0  0
 37 39  1  0  0  0  0
 37 38  1  6  0  0  0
 39 41  1  0  0  0  0
 39 40  1  1  0  0  0
 41 42  1  6  0  0  0
M  CHG  6  12   1  20   1  24   1  29   1  33   1  36   1
M  END
>  <CHROM.1>
86.15703614,64.14398925,-116.20465063,-115.33584923,34.56677096,-170.72402386
48.42621412,-68.95035796,65.75151764,-70.27713698,151.41913093,-165.03865583
153.41783904,-71.03531069,-75.80811057,179.93971535,67.65533993,134.27194480
-72.07504822,-101.48102115,121.57748297,93.84670905,-0.15968692,1.29074380
0.56253524,2.27051835,0.27598948,2.67153964

>  <Name>
1NEM.B

>  <RI>
0

>  <Rbt.Current_Directory>
/home/itssahil/PROJECTS/Mol_Feturizer/New_Systems/rnas/1nem

>  <Rbt.Executable>
rbdock ($Id: //depot/dev/client3/rdock/2013.1/src/exe/rbdock.cxx#4 $)

>  <Rbt.Library>
libRbt.so (2013.1, Build901 2013/11/27)

>  <Rbt.Parameter_File>
/export/apps/rDock/src/rDock_2013.1_src/data/scripts/dock_solv.prm

>  <Rbt.Receptor>
prm/pocket_docking_8.prm

>  <SCORE>
-40.2549

>  <SCORE.INTER>
-54.949

>  <SCORE.INTER.CONST>
1

>  <SCORE.INTER.POLAR>
-8.93679

>  <SCORE.INTER.ROT>
9

>  <SCORE.INTER.SOLV>
31.2364

>  <SCORE.INTER.VDW>
-26.8555

>  <SCORE.INTER.norm>
-1.30831

>  <SCORE.INTRA>
14.6941

>  <SCORE.INTRA.DIHEDRAL>
25.0381

>  <SCORE.INTRA.DIHEDRAL.0>
22.4324

>  <SCORE.INTRA.POLAR>
-0.682015

>  <SCORE.INTRA.POLAR.0>
-1.83749

>  <SCORE.INTRA.REPUL>
0

>  <SCORE.INTRA.REPUL.0>
0

>  <SCORE.INTRA.SOLV>
-0.19498

>  <SCORE.INTRA.SOLV.lig_0>
-160.638

>  <SCORE.INTRA.VDW>
4.59139

>  <SCORE.INTRA.VDW.0>
-7.61953

>  <SCORE.INTRA.norm>
0.349859

>  <SCORE.RESTR>
0

>  <SCORE.RESTR.CAVITY>
0

>  <SCORE.RESTR.norm>
0

>  <SCORE.SYSTEM>
0

>  <SCORE.SYSTEM.CONST>
0

>  <SCORE.SYSTEM.DIHEDRAL>
0

>  <SCORE.SYSTEM.SOLV>
0

>  <SCORE.SYSTEM.norm>
0

>  <SCORE.heavy>
42

>  <SCORE.norm>
-0.95845

>  <RMSD>
8.898

$$$$
1NEM.B
 OpenBabel11021811403D
libRbt.so/2013.1/901 2013/11/27
 42 45  0  0  0  0  0  0  0  0999 V2000
   -1.9844   -6.2208    0.4485 O   0  0  0  0  0  0  0  0  0  0  0  0
   -1.8444   -5.9989    1.8533 C   0  0  0  0  0  0  0  0  0  0  0  0
   -2.2982   -4.6059    2.2871 C   0  0  1  0  0  0  0  0  0  0  0  0
   -1.2182   -3.6796    2.2160 O   0  0  0  0  0  0  0  0  0  0  0  0
   -3.3542   -3.9756    1.3931 C   0  0  1  0  0  0  0  0  0  0  0  0
   -4.5819   -4.6672    1.6335 O   0  0  0  0  0  0  0  0  0  0  0  0
   -3.2719   -2.5477    1.8992 C   0  0  1  0  0  0  0  0  0  0  0  0
   -3.7941   -2.4134    3.2252 O   0  0  0  0  0  0  0  0  0  0  0  0
   -1.7470   -2.3884    1.9134 C   0  0  2  0  0  0  0  0  0  0  0  0
   -5.7511   -4.0057    1.2426 C   0  0  2  0  0  0  0  0  0  0  0  0
   -6.4514   -3.4390    2.4851 C   0  0  2  0  0  0  0  0  0  0  0  0
   -6.6550   -4.5145    3.4912 N   0  3  0  0  0  0  0  0  0  0  0  0
   -7.7723   -2.7618    2.1054 C   0  0  1  0  0  0  0  0  0  0  0  0
   -7.5057   -1.5552    1.4028 O   0  0  0  0  0  0  0  0  0  0  0  0
   -8.6358   -3.6820    1.2371 C   0  0  2  0  0  0  0  0  0  0  0  0
   -9.1017   -4.7875    2.0006 O   0  0  0  0  0  0  0  0  0  0  0  0
   -7.8202   -4.1782    0.0465 C   0  0  1  0  0  0  0  0  0  0  0  0
   -6.6350   -4.8495    0.5161 O   0  0  0  0  0  0  0  0  0  0  0  0
   -8.5844   -5.1435   -0.8425 C   0  0  0  0  0  0  0  0  0  0  0  0
   -7.8309   -6.3960   -1.0737 N   0  3  0  0  0  0  0  0  0  0  0  0
   -4.2236    0.0903    0.9568 C   0  0  0  0  0  0  0  0  0  0  0  0
   -0.9288    0.0487   -0.7371 C   0  0  2  0  0  0  0  0  0  0  0  0
   -1.1332    1.1213   -1.8043 C   0  0  2  0  0  0  0  0  0  0  0  0
    0.1763    1.6069   -2.3012 N   0  3  0  0  0  0  0  0  0  0  0  0
   -1.9195    2.2914   -1.2285 C   0  0  1  0  0  0  0  0  0  0  0  0
   -2.1698    3.2451   -2.2494 O   0  0  0  0  0  0  0  0  0  0  0  0
   -3.2380    1.7847   -0.6481 C   0  0  2  0  0  0  0  0  0  0  0  0
   -3.9470    2.8605   -0.0468 O   0  0  0  0  0  0  0  0  0  0  0  0
   -5.3572    0.2293    0.0141 N   0  3  0  0  0  0  0  0  0  0  0  0
   -2.9539    0.7073    0.3967 C   0  0  2  0  0  0  0  0  0  0  0  0
   -2.1793   -0.3591   -0.1886 O   0  0  0  0  0  0  0  0  0  0  0  0
    2.3910   -2.7548    1.4015 C   0  0  2  0  0  0  0  0  0  0  0  0
    3.0255   -3.7965    2.2415 N   0  3  0  0  0  0  0  0  0  0  0  0
    2.7130   -1.3714    1.9551 C   0  0  0  0  0  0  0  0  0  0  0  0
    2.0649   -0.2898    1.1022 C   0  0  2  0  0  0  0  0  0  0  0  0
    2.4106    1.0010    1.6805 N   0  3  0  0  0  0  0  0  0  0  0  0
    0.5511   -0.4879    1.0780 C   0  0  1  0  0  0  0  0  0  0  0  0
   -0.0519    0.5224    0.2462 O   0  0  0  0  0  0  0  0  0  0  0  0
    0.1925   -1.8777    0.5340 C   0  0  2  0  0  0  0  0  0  0  0  0
   -1.2321   -2.0714    0.6220 O   0  0  0  0  0  0  0  0  0  0  0  0
    0.8822   -2.9837    1.3288 C   0  0  1  0  0  0  0  0  0  0  0  0
    0.6229   -4.2401    0.7167 O   0  0  0  0  0  0  0  0  0  0  0  0
  1  2  1  0  0  0  0
  3  2  1  6  0  0  0
  3  5  1  0  0  0  0
  3  4  1  0  0  0  0
  4  9  1  0  0  0  0
  5  7  1  0  0  0  0
  5  6  1  1  0  0  0
  7  9  1  0  0  0  0
  7  8  1  1  0  0  0
  9 40  1  6  0  0  0
 10  6  1  1  0  0  0
 10 11  1  0  0  0  0
 10 18  1  0  0  0  0
 11 13  1  0  0  0  0
 11 12  1  1  0  0  0
 13 15  1  0  0  0  0
 13 14  1  6  0  0  0
 15 17  1  0  0  0  0
 15 16  1  1  0  0  0
 17 19  1  1  0  0  0
 17 18  1  0  0  0  0
 19 20  1  0  0  0  0
 21 29  1  0  0  0  0
 22 23  1  0  0  0  0
 22 31  1  0  0  0  0
 22 38  1  1  0  0  0
 23 25  1  0  0  0  0
 23 24  1  1  0  0  0
 25 27  1  0  0  0  0
 25 26  1  6  0  0  0
 27 30  1  0  0  0  0
 27 28  1  1  0  0  0
 30 21  1  6  0  0  0
 30 31  1  0  0  0  0
 32 34  1  0  0  0  0
 32 41  1  0  0  0  0
 32 33  1  1  0  0  0
 34 35  1  0  0  0  0
 35 37  1  0  0  0  0
 35 36  1  1  0  0  0
 37 39  1  0  0  0  0
 37 38  1  6  0  0  0
 39 41  1  0  0  0  0
 39 40  1  1  0  0  0
 41 42  1  6  0  0  0
M  CHG  6  12   1  20   1  24   1  29   1  33   1  36   1
M  END
>  <CHROM.1>
79.29367780,-89.18372351,160.90969972,-103.91449166,-175.58006584,-66.42544510
48.23643565,-65.88740301,169.64769347,-127.75211395,169.57842969,24.02817118
43.58945443,-161.73760402,-71.63017340,-22.43155990,-48.69597576,-58.69517174
73.90630127,128.74304775,-77.58898317,54.10255378,-2.90224136,-2.06833865
0.81799199,-2.66202298,-0.08965476,-0.35524436

>  <Name>
1NEM.B

>  <RI>
0

>  <Rbt.Current_Directory>
/home/itssahil/PROJECTS/Mol_Feturizer/New_Systems/rnas/1nem

>  <Rbt.Executable>
rbdock ($Id: //depot/dev/client3/rdock/2013.1/src/exe/rbdock.cxx#4 $)

>  <Rbt.Library>
libRbt.so (2013.1, Build901 2013/11/27)

>  <Rbt.Parameter_File>
/export/apps/rDock/src/rDock_2013.1_src/data/scripts/dock_solv.prm

>  <Rbt.Receptor>
prm/blind_docking_60.prm

>  <SCORE>
19.7316

>  <SCORE.INTER>
-19.4607

>  <SCORE.INTER.CONST>
1

>  <SCORE.INTER.POLAR>
-5.34385

>  <SCORE.INTER.ROT>
9

>  <SCORE.INTER.SOLV>
45.2439

>  <SCORE.INTER.VDW>
-19.8423

>  <SCORE.INTER.norm>
-0.46335

>  <SCORE.INTRA>
31.6608

>  <SCORE.INTRA.DIHEDRAL>
17.1499

>  <SCORE.INTRA.DIHEDRAL.0>
22.4324

>  <SCORE.INTRA.POLAR>
-0.162904

>  <SCORE.INTRA.POLAR.0>
-1.83749

>  <SCORE.INTRA.REPUL>
0.0917803

>  <SCORE.INTRA.REPUL.0>
0

>  <SCORE.INTRA.SOLV>
0.791157

>  <SCORE.INTRA.SOLV.lig_0>
-160.638

>  <SCORE.INTRA.VDW>
22.7853

>  <SCORE.INTRA.VDW.0>
-7.61953

>  <SCORE.INTRA.norm>
0.753829

>  <SCORE.RESTR>
7.53149

>  <SCORE.RESTR.CAVITY>
7.53149

>  <SCORE.RESTR.norm>
0.179321

>  <SCORE.SYSTEM>
0

>  <SCORE.SYSTEM.CONST>
0

>  <SCORE.SYSTEM.DIHEDRAL>
0

>  <SCORE.SYSTEM.SOLV>
0

>  <SCORE.SYSTEM.norm>
0

>  <SCORE.heavy>
42

>  <SCORE.norm>
0.4698

>  <RMSD>
8.905

$$$$
1NEM.B
 OpenBabel11021811403D
libRbt.so/2013.1/901 2013/11/27
 42 45  0  0  0  0  0  0  0  0999 V2000
   -4.6566    1.9466    2.3095 O   0  0  0  0  0  0  0  0  0  0  0  0
   -3.9326    2.1217    1.0899 C   0  0  0  0  0  0  0  0  0  0  0  0
   -3.4416    0.8045    0.4911 C   0  0  1  0  0  0  0  0  0  0  0  0
   -2.4065    1.0383   -0.4594 O   0  0  0  0  0  0  0  0  0  0  0  0
   -2.7898   -0.1413    1.4872 C   0  0  1  0  0  0  0  0  0  0  0  0
   -3.8299   -0.6739    2.3104 O   0  0  0  0  0  0  0  0  0  0  0  0
   -2.1403   -1.1036    0.5105 C   0  0  1  0  0  0  0  0  0  0  0  0
   -3.1041   -1.9097   -0.1756 O   0  0  0  0  0  0  0  0  0  0  0  0
   -1.5230   -0.0833   -0.4532 C   0  0  2  0  0  0  0  0  0  0  0  0
   -3.9306   -2.0686    2.3546 C   0  0  2  0  0  0  0  0  0  0  0  0
   -4.8650   -2.4724    3.5032 C   0  0  2  0  0  0  0  0  0  0  0  0
   -4.4145   -1.8433    4.7727 N   0  3  0  0  0  0  0  0  0  0  0  0
   -4.9505   -3.9972    3.6264 C   0  0  1  0  0  0  0  0  0  0  0  0
   -5.6754   -4.5255    2.5237 O   0  0  0  0  0  0  0  0  0  0  0  0
   -3.5550   -4.6272    3.6733 C   0  0  2  0  0  0  0  0  0  0  0  0
   -2.9006   -4.2882    4.8894 O   0  0  0  0  0  0  0  0  0  0  0  0
   -2.7313   -4.1390    2.4850 C   0  0  1  0  0  0  0  0  0  0  0  0
   -2.6649   -2.6998    2.4991 O   0  0  0  0  0  0  0  0  0  0  0  0
   -1.3099   -4.6736    2.4813 C   0  0  0  0  0  0  0  0  0  0  0  0
   -0.7351   -4.7049    1.1181 N   0  3  0  0  0  0  0  0  0  0  0  0
    4.5431    3.4721   -4.1747 C   0  0  0  0  0  0  0  0  0  0  0  0
    2.4635    3.0403   -1.1389 C   0  0  2  0  0  0  0  0  0  0  0  0
    1.4952    4.2126   -1.2766 C   0  0  2  0  0  0  0  0  0  0  0  0
    0.2917    3.9849   -0.4415 N   0  3  0  0  0  0  0  0  0  0  0  0
    1.0757    4.3787   -2.7310 C   0  0  1  0  0  0  0  0  0  0  0  0
    0.2381    5.5175   -2.8579 O   0  0  0  0  0  0  0  0  0  0  0  0
    2.3170    4.5395   -3.6057 C   0  0  2  0  0  0  0  0  0  0  0  0
    1.9375    4.6257   -4.9732 O   0  0  0  0  0  0  0  0  0  0  0  0
    5.4773    2.3678   -3.8573 N   0  3  0  0  0  0  0  0  0  0  0  0
    3.2418    3.3409   -3.4025 C   0  0  2  0  0  0  0  0  0  0  0  0
    3.5812    3.2072   -2.0073 O   0  0  0  0  0  0  0  0  0  0  0  0
    2.5322   -2.0790    0.0861 C   0  0  2  0  0  0  0  0  0  0  0  0
    2.8298   -3.1877    1.0218 N   0  3  0  0  0  0  0  0  0  0  0  0
    3.6683   -1.0625    0.1045 C   0  0  0  0  0  0  0  0  0  0  0  0
    3.3748    0.0850   -0.8517 C   0  0  2  0  0  0  0  0  0  0  0  0
    4.4931    1.0153   -0.7884 N   0  3  0  0  0  0  0  0  0  0  0  0
    2.0715    0.7720   -0.4508 C   0  0  1  0  0  0  0  0  0  0  0  0
    1.7864    1.8384   -1.3771 O   0  0  0  0  0  0  0  0  0  0  0  0
    0.9068   -0.2279   -0.4496 C   0  0  2  0  0  0  0  0  0  0  0  0
   -0.2827    0.4258    0.0322 O   0  0  0  0  0  0  0  0  0  0  0  0
    1.2000   -1.4257    0.4504 C   0  0  1  0  0  0  0  0  0  0  0  0
    0.1545   -2.3806    0.3248 O   0  0  0  0  0  0  0  0  0  0  0  0
  1  2  1  0  0  0  0
  3  2  1  1  0  0  0
  3  5  1  0  0  0  0
  3  4  1  0  0  0  0
  4  9  1  0  0  0  0
  5  7  1  0  0  0  0
  5  6  1  1  0  0  0
  7  9  1  0  0  0  0
  7  8  1  6  0  0  0
  9 40  1  1  0  0  0
 10  6  1  1  0  0  0
 10 11  1  0  0  0  0
 10 18  1  0  0  0  0
 11 13  1  0  0  0  0
 11 12  1  1  0  0  0
 13 15  1  0  0  0  0
 13 14  1  6  0  0  0
 15 17  1  0  0  0  0
 15 16  1  1  0  0  0
 17 19  1  1  0  0  0
 17 18  1  0  0  0  0
 19 20  1  0  0  0  0
 21 29  1  0  0  0  0
 22 23  1  0  0  0  0
 22 31  1  0  0  0  0
 22 38  1  6  0  0  0
 23 25  1  0  0  0  0
 23 24  1  1  0  0  0
 25 27  1  0  0  0  0
 25 26  1  1  0  0  0
 27 30  1  0  0  0  0
 27 28  1  6  0  0  0
 30 21  1  6  0  0  0
 30 31  1  0  0  0  0
 32 34  1  0  0  0  0
 32 41  1  0  0  0  0
 32 33  1  1  0  0  0
 34 35  1  0  0  0  0
 35 37  1  0  0  0  0
 35 36  1  1  0  0  0
 37 39  1  0  0  0  0
 37 38  1  6  0  0  0
 39 41  1  0  0  0  0
 39 40  1  1  0  0  0
 41 42  1  6  0  0  0
M  CHG  6  12   1  20   1  24   1  29   1  33   1  36   1
M  END
>  <CHROM.1>
-158.56165209,-162.12619617,123.97682952,167.35841104,175.04330373,-150.18306784
-148.00640153,59.50680760,168.61894680,155.05692316,60.58692691,174.30783924
-73.16142555,-135.54747357,167.60324960,-57.10920101,60.04697084,90.04592436
176.62957704,-81.53940467,151.80364152,-61.72837759,-0.38915138,-0.04064490
0.21032838,2.28102506,-0.34495275,2.69864060

>  <Name>
1NEM.B

>  <RI>
0

>  <Rbt.Current_Directory>
/home/itssahil/PROJECTS/Mol_Feturizer/New_Systems/rnas/1nem

>  <Rbt.Executable>
rbdock ($Id: //depot/dev/client3/rdock/2013.1/src/exe/rbdock.cxx#4 $)

>  <Rbt.Library>
libRbt.so (2013.1, Build901 2013/11/27)

>  <Rbt.Parameter_File>
/export/apps/rDock/src/rDock_2013.1_src/data/scripts/dock_solv.prm

>  <Rbt.Receptor>
prm/pocket_docking_7.prm

>  <SCORE>
-26.7912

>  <SCORE.INTER>
-43.6461

>  <SCORE.INTER.CONST>
1

>  <SCORE.INTER.POLAR>
-7.10354

>  <SCORE.INTER.ROT>
9

>  <SCORE.INTER.SOLV>
30.4793

>  <SCORE.INTER.VDW>
-25.1787

>  <SCORE.INTER.norm>
-1.03919

>  <SCORE.INTRA>
16.3607

>  <SCORE.INTRA.DIHEDRAL>
11.1071

>  <SCORE.INTRA.DIHEDRAL.0>
22.4324

>  <SCORE.INTRA.POLAR>
-0.494282

>  <SCORE.INTRA.POLAR.0>
-1.83749

>  <SCORE.INTRA.REPUL>
0.537884

>  <SCORE.INTRA.REPUL.0>
0

>  <SCORE.INTRA.SOLV>
6.54571

>  <SCORE.INTRA.SOLV.lig_0>
-160.638

>  <SCORE.INTRA.VDW>
6.52545

>  <SCORE.INTRA.VDW.0>
-7.61953

>  <SCORE.INTRA.norm>
0.389541

>  <SCORE.RESTR>
0.494123

>  <SCORE.RESTR.CAVITY>
0.494123

>  <SCORE.RESTR.norm>
0.0117648

>  <SCORE.SYSTEM>
0

>  <SCORE.SYSTEM.CONST>
0

>  <SCORE.SYSTEM.DIHEDRAL>
0

>  <SCORE.SYSTEM.SOLV>
0

>  <SCORE.SYSTEM.norm>
0

>  <SCORE.heavy>
42

>  <SCORE.norm>
-0.637887

>  <RMSD>
8.908

$$$$
1NEM.B
 OpenBabel11021811403D
libRbt.so/2013.1/901 2013/11/27
 42 45  0  0  0  0  0  0  0  0999 V2000
   -5.2881    0.8056    3.1827 O   0  0  0  0  0  0  0  0  0  0  0  0
   -5.2321   -0.6155    3.0430 C   0  0  0  0  0  0  0  0  0  0  0  0
   -4.6799   -1.0624    1.6902 C   0  0  1  0  0  0  0  0  0  0  0  0
   -3.6050   -0.2212    1.2823 O   0  0  0  0  0  0  0  0  0  0  0  0
   -4.0553   -2.4486    1.6865 C   0  0  1  0  0  0  0  0  0  0  0  0
   -5.1216   -3.3952    1.7872 O   0  0  0  0  0  0  0  0  0  0  0  0
   -3.3348   -2.3805    0.3530 C   0  0  1  0  0  0  0  0  0  0  0  0
   -4.2433   -2.3906   -0.7532 O   0  0  0  0  0  0  0  0  0  0  0  0
   -2.6956   -0.9945    0.4989 C   0  0  2  0  0  0  0  0  0  0  0  0
   -5.1509   -4.1724    2.9501 C   0  0  2  0  0  0  0  0  0  0  0  0
   -6.1171   -5.3477    2.7491 C   0  0  2  0  0  0  0  0  0  0  0  0
   -7.4446   -4.8468    2.3052 N   0  3  0  0  0  0  0  0  0  0  0  0
   -6.2270   -6.1877    4.0257 C   0  0  1  0  0  0  0  0  0  0  0  0
   -5.0148   -6.9001    4.2346 O   0  0  0  0  0  0  0  0  0  0  0  0
   -6.5216   -5.3067    5.2436 C   0  0  2  0  0  0  0  0  0  0  0  0
   -7.8335   -4.7650    5.1556 O   0  0  0  0  0  0  0  0  0  0  0  0
   -5.4966   -4.1787    5.3212 C   0  0  1  0  0  0  0  0  0  0  0  0
   -5.5186   -3.4181    4.0977 O   0  0  0  0  0  0  0  0  0  0  0  0
   -5.7458   -3.2209    6.4730 C   0  0  0  0  0  0  0  0  0  0  0  0
   -4.6656   -2.2176    6.6006 N   0  3  0  0  0  0  0  0  0  0  0  0
    2.3112    3.1062    1.5075 C   0  0  0  0  0  0  0  0  0  0  0  0
   -0.3920    1.2689   -0.2372 C   0  0  2  0  0  0  0  0  0  0  0  0
   -0.6808    2.2093   -1.4047 C   0  0  2  0  0  0  0  0  0  0  0  0
   -1.3899    1.4833   -2.4852 N   0  3  0  0  0  0  0  0  0  0  0  0
    0.6201    2.7820   -1.9514 C   0  0  1  0  0  0  0  0  0  0  0  0
    0.3337    3.7129   -2.9838 O   0  0  0  0  0  0  0  0  0  0  0  0
    1.3901    3.4673   -0.8247 C   0  0  2  0  0  0  0  0  0  0  0  0
    2.6378    3.9443   -1.3118 O   0  0  0  0  0  0  0  0  0  0  0  0
    2.4827    2.1354    2.6126 N   0  3  0  0  0  0  0  0  0  0  0  0
    1.6265    2.4718    0.3094 C   0  0  2  0  0  0  0  0  0  0  0  0
    0.3692    1.9340    0.7674 O   0  0  0  0  0  0  0  0  0  0  0  0
    1.3466   -3.5154    1.2031 C   0  0  2  0  0  0  0  0  0  0  0  0
    1.8368   -4.4592    2.2337 N   0  3  0  0  0  0  0  0  0  0  0  0
    2.4411   -2.5147    0.8502 C   0  0  0  0  0  0  0  0  0  0  0  0
    1.9502   -1.5360   -0.2074 C   0  0  2  0  0  0  0  0  0  0  0  0
    3.0376   -0.6128   -0.4997 N   0  3  0  0  0  0  0  0  0  0  0  0
    0.7243   -0.7871    0.3100 C   0  0  1  0  0  0  0  0  0  0  0  0
    0.2491    0.1164   -0.7070 O   0  0  0  0  0  0  0  0  0  0  0  0
   -0.3952   -1.7683    0.6845 C   0  0  2  0  0  0  0  0  0  0  0  0
   -1.4938   -1.0396    1.2649 O   0  0  0  0  0  0  0  0  0  0  0  0
    0.0864   -2.8057    1.6957 C   0  0  1  0  0  0  0  0  0  0  0  0
   -0.9400   -3.7635    1.9181 O   0  0  0  0  0  0  0  0  0  0  0  0
  1  2  1  0  0  0  0
  3  2  1  1  0  0  0
  3  5  1  0  0  0  0
  3  4  1  0  0  0  0
  4  9  1  0  0  0  0
  5  7  1  0  0  0  0
  5  6  1  6  0  0  0
  7  9  1  0  0  0  0
  7  8  1  6  0  0  0
  9 40  1  1  0  0  0
 10  6  1  6  0  0  0
 10 11  1  0  0  0  0
 10 18  1  0  0  0  0
 11 13  1  0  0  0  0
 11 12  1  1  0  0  0
 13 15  1  0  0  0  0
 13 14  1  1  0  0  0
 15 17  1  0  0  0  0
 15 16  1  6  0  0  0
 17 19  1  1  0  0  0
 17 18  1  0  0  0  0
 19 20  1  0  0  0  0
 21 29  1  0  0  0  0
 22 23  1  0  0  0  0
 22 31  1  0  0  0  0
 22 38  1  6  0  0  0
 23 25  1  0  0  0  0
 23 24  1  6  0  0  0
 25 27  1  0  0  0  0
 25 26  1  6  0  0  0
 27 30  1  0  0  0  0
 27 28  1  6  0  0  0
 30 21  1  1  0  0  0
 30 31  1  0  0  0  0
 32 34  1  0  0  0  0
 32 41  1  0  0  0  0
 32 33  1  1  0  0  0
 34 35  1  0  0  0  0
 35 37  1  0  0  0  0
 35 36  1  1  0  0  0
 37 39  1  0  0  0  0
 37 38  1  6  0  0  0
 39 41  1  0  0  0  0
 39 40  1  1  0  0  0
 41 42  1  6  0  0  0
M  CHG  6  12   1  20   1  24   1  29   1  33   1  36   1
M  END
>  <CHROM.1>
41.42008563,39.09132794,-115.18722698,-166.04063369,-150.51069106,-179.73898977
45.28412152,-58.92786094,86.86592760,174.49820398,96.68910947,177.82111705
21.09117434,172.86174903,95.10564873,-179.27705339,175.20754713,60.05277888
-44.68167054,-150.63944141,111.99367912,-60.56125012,-2.05155044,-1.35559503
1.54328852,2.34839649,-0.19611108,2.68476205

>  <Name>
1NEM.B

>  <RI>
0

>  <Rbt.Current_Directory>
/home/itssahil/PROJECTS/Mol_Feturizer/New_Systems/rnas/1nem

>  <Rbt.Executable>
rbdock ($Id: //depot/dev/client3/rdock/2013.1/src/exe/rbdock.cxx#4 $)

>  <Rbt.Library>
libRbt.so (2013.1, Build901 2013/11/27)

>  <Rbt.Parameter_File>
/export/apps/rDock/src/rDock_2013.1_src/data/scripts/dock_solv.prm

>  <Rbt.Receptor>
prm/pocket_docking_8.prm

>  <SCORE>
-27.0743

>  <SCORE.INTER>
-35.7108

>  <SCORE.INTER.CONST>
1

>  <SCORE.INTER.POLAR>
-5.31197

>  <SCORE.INTER.ROT>
9

>  <SCORE.INTER.SOLV>
34.1539

>  <SCORE.INTER.VDW>
-27.0853

>  <SCORE.INTER.norm>
-0.850257

>  <SCORE.INTRA>
8.43095

>  <SCORE.INTRA.DIHEDRAL>
14.2117

>  <SCORE.INTRA.DIHEDRAL.0>
22.4324

>  <SCORE.INTRA.POLAR>
0.835271

>  <SCORE.INTRA.POLAR.0>
-1.83749

>  <SCORE.INTRA.REPUL>
0.0265053

>  <SCORE.INTRA.REPUL.0>
0

>  <SCORE.INTRA.SOLV>
-6.15975

>  <SCORE.INTRA.SOLV.lig_0>
-160.638

>  <SCORE.INTRA.VDW>
1.43251

>  <SCORE.INTRA.VDW.0>
-7.61953

>  <SCORE.INTRA.norm>
0.200737

>  <SCORE.RESTR>
0.205551

>  <SCORE.RESTR.CAVITY>
0.205551

>  <SCORE.RESTR.norm>
0.00489407

>  <SCORE.SYSTEM>
0

>  <SCORE.SYSTEM.CONST>
0

>  <SCORE.SYSTEM.DIHEDRAL>
0

>  <SCORE.SYSTEM.SOLV>
0

>  <SCORE.SYSTEM.norm>
0

>  <SCORE.heavy>
42

>  <SCORE.norm>
-0.644626

>  <RMSD>
8.909

$$$$
1NEM.B
 OpenBabel11021811403D
libRbt.so/2013.1/901 2013/11/27
 42 45  0  0  0  0  0  0  0  0999 V2000
   -2.3317   -4.1390    6.1068 O   0  0  0  0  0  0  0  0  0  0  0  0
   -3.3503   -4.6746    5.2597 C   0  0  0  0  0  0  0  0  0  0  0  0
   -4.2657   -3.6012    4.6724 C   0  0  1  0  0  0  0  0  0  0  0  0
   -3.7759   -2.2990    4.9790 O   0  0  0  0  0  0  0  0  0  0  0  0
   -4.3419   -3.5938    3.1540 C   0  0  1  0  0  0  0  0  0  0  0  0
   -5.1024   -4.7386    2.7613 O   0  0  0  0  0  0  0  0  0  0  0  0
   -5.0025   -2.2424    2.9563 C   0  0  1  0  0  0  0  0  0  0  0  0
   -6.3678   -2.2402    3.3865 O   0  0  0  0  0  0  0  0  0  0  0  0
   -4.1437   -1.4150    3.9199 C   0  0  2  0  0  0  0  0  0  0  0  0
   -6.1577   -4.5050    1.8729 C   0  0  2  0  0  0  0  0  0  0  0  0
   -7.4785   -4.4713    2.6538 C   0  0  2  0  0  0  0  0  0  0  0  0
   -7.6191   -5.7045    3.4721 N   0  3  0  0  0  0  0  0  0  0  0  0
   -8.6675   -4.2821    1.7062 C   0  0  1  0  0  0  0  0  0  0  0  0
   -8.6573   -2.9597    1.1851 O   0  0  0  0  0  0  0  0  0  0  0  0
   -8.6212   -5.2893    0.5530 C   0  0  2  0  0  0  0  0  0  0  0  0
   -8.8599   -6.6051    1.0365 O   0  0  0  0  0  0  0  0  0  0  0  0
   -7.2581   -5.2249   -0.1302 C   0  0  1  0  0  0  0  0  0  0  0  0
   -6.2188   -5.4753    0.8358 O   0  0  0  0  0  0  0  0  0  0  0  0
   -7.1041   -6.2322   -1.2561 C   0  0  0  0  0  0  0  0  0  0  0  0
   -8.3746   -6.4451   -1.9844 N   0  3  0  0  0  0  0  0  0  0  0  0
    1.7433   -0.5274    1.1811 C   0  0  0  0  0  0  0  0  0  0  0  0
   -0.7939   -3.1541    0.5565 C   0  0  2  0  0  0  0  0  0  0  0  0
    0.0259   -4.4188    0.8004 C   0  0  2  0  0  0  0  0  0  0  0  0
   -0.8713   -5.5696    1.0616 N   0  3  0  0  0  0  0  0  0  0  0  0
    0.9530   -4.2215    1.9923 C   0  0  1  0  0  0  0  0  0  0  0  0
    1.7639   -5.3741    2.1606 O   0  0  0  0  0  0  0  0  0  0  0  0
    1.8288   -2.9922    1.7605 C   0  0  2  0  0  0  0  0  0  0  0  0
    2.6487   -2.7606    2.8988 O   0  0  0  0  0  0  0  0  0  0  0  0
    2.4189    0.0155    2.3818 N   0  3  0  0  0  0  0  0  0  0  0  0
    0.9412   -1.7748    1.5088 C   0  0  2  0  0  0  0  0  0  0  0  0
    0.0604   -2.0250    0.3947 O   0  0  0  0  0  0  0  0  0  0  0  0
   -4.2690   -0.0112   -0.0419 C   0  0  2  0  0  0  0  0  0  0  0  0
   -5.5025    0.7188   -0.4147 N   0  3  0  0  0  0  0  0  0  0  0  0
   -4.2897   -1.4112   -0.6451 C   0  0  0  0  0  0  0  0  0  0  0  0
   -3.0279   -2.1747   -0.2680 C   0  0  2  0  0  0  0  0  0  0  0  0
   -3.1088   -3.4965   -0.8734 N   0  3  0  0  0  0  0  0  0  0  0  0
   -2.9201   -2.2775    1.2516 C   0  0  1  0  0  0  0  0  0  0  0  0
   -1.7094   -2.9765    1.6007 O   0  0  0  0  0  0  0  0  0  0  0  0
   -2.9068   -0.8825    1.8921 C   0  0  2  0  0  0  0  0  0  0  0  0
   -2.9101   -1.0161    3.3262 O   0  0  0  0  0  0  0  0  0  0  0  0
   -4.1288   -0.0663    1.4784 C   0  0  1  0  0  0  0  0  0  0  0  0
   -4.0130    1.2543    1.9914 O   0  0  0  0  0  0  0  0  0  0  0  0
  1  2  1  0  0  0  0
  3  2  1  6  0  0  0
  3  5  1  0  0  0  0
  3  4  1  0  0  0  0
  4  9  1  0  0  0  0
  5  7  1  0  0  0  0
  5  6  1  1  0  0  0
  7  9  1  0  0  0  0
  7  8  1  1  0  0  0
  9 40  1  6  0  0  0
 10  6  1  1  0  0  0
 10 11  1  0  0  0  0
 10 18  1  0  0  0  0
 11 13  1  0  0  0  0
 11 12  1  6  0  0  0
 13 15  1  0  0  0  0
 13 14  1  6  0  0  0
 15 17  1  0  0  0  0
 15 16  1  1  0  0  0
 17 19  1  6  0  0  0
 17 18  1  0  0  0  0
 19 20  1  0  0  0  0
 21 29  1  0  0  0  0
 22 23  1  0  0  0  0
 22 31  1  0  0  0  0
 22 38  1  1  0  0  0
 23 25  1  0  0  0  0
 23 24  1  1  0  0  0
 25 27  1  0  0  0  0
 25 26  1  6  0  0  0
 27 30  1  0  0  0  0
 27 28  1  1  0  0  0
 30 21  1  6  0  0  0
 30 31  1  0  0  0  0
 32 34  1  0  0  0  0
 32 41  1  0  0  0  0
 32 33  1  1  0  0  0
 34 35  1  0  0  0  0
 35 37  1  0  0  0  0
 35 36  1  6  0  0  0
 37 39  1  0  0  0  0
 37 38  1  6  0  0  0
 39 41  1  0  0  0  0
 39 40  1  1  0  0  0
 41 42  1  6  0  0  0
M  CHG  6  12   1  20   1  24   1  29   1  33   1  36   1
M  END
>  <CHROM.1>
75.32042454,7.39545517,129.21045063,-100.53378306,72.83120883,141.80767728
169.10410372,-119.20364973,-171.05206068,34.82405940,35.94880466,-73.28250117
-10.01195901,-151.47236621,-151.21705565,53.92712938,174.88912963,162.24536310
143.75747138,12.51933362,-73.91134851,-73.02707094,-3.61549463,-3.14385366
1.75306384,-0.28026583,0.14168216,3.04215209

>  <Name>
1NEM.B

>  <RI>
0

>  <Rbt.Current_Directory>
/home/itssahil/PROJECTS/Mol_Feturizer/New_Systems/rnas/1nem

>  <Rbt.Executable>
rbdock ($Id: //depot/dev/client3/rdock/2013.1/src/exe/rbdock.cxx#4 $)

>  <Rbt.Library>
libRbt.so (2013.1, Build901 2013/11/27)

>  <Rbt.Parameter_File>
/export/apps/rDock/src/rDock_2013.1_src/data/scripts/dock_solv.prm

>  <Rbt.Receptor>
prm/blind_docking_20.prm

>  <SCORE>
1.62983

>  <SCORE.INTER>
-40.6877

>  <SCORE.INTER.CONST>
1

>  <SCORE.INTER.POLAR>
-7.90052

>  <SCORE.INTER.ROT>
9

>  <SCORE.INTER.SOLV>
57.911

>  <SCORE.INTER.VDW>
-29.6937

>  <SCORE.INTER.norm>
-0.968754

>  <SCORE.INTRA>
41.5408

>  <SCORE.INTRA.DIHEDRAL>
33.5091

>  <SCORE.INTRA.DIHEDRAL.0>
22.4324

>  <SCORE.INTRA.POLAR>
0.971166

>  <SCORE.INTRA.POLAR.0>
-1.83749

>  <SCORE.INTRA.REPUL>
0

>  <SCORE.INTRA.REPUL.0>
0

>  <SCORE.INTRA.SOLV>
2.15591

>  <SCORE.INTRA.SOLV.lig_0>
-160.638

>  <SCORE.INTRA.VDW>
20.4063

>  <SCORE.INTRA.VDW.0>
-7.61953

>  <SCORE.INTRA.norm>
0.989067

>  <SCORE.RESTR>
0.77671

>  <SCORE.RESTR.CAVITY>
0.77671

>  <SCORE.RESTR.norm>
0.0184931

>  <SCORE.SYSTEM>
0

>  <SCORE.SYSTEM.CONST>
0

>  <SCORE.SYSTEM.DIHEDRAL>
0

>  <SCORE.SYSTEM.SOLV>
0

>  <SCORE.SYSTEM.norm>
0

>  <SCORE.heavy>
42

>  <SCORE.norm>
0.0388055

>  <RMSD>
8.912

$$$$
1NEM.B
 OpenBabel11021811403D
libRbt.so/2013.1/901 2013/11/27
 42 45  0  0  0  0  0  0  0  0999 V2000
   -3.5841    3.4387   -1.6026 O   0  0  0  0  0  0  0  0  0  0  0  0
   -3.9618    2.5052   -0.5887 C   0  0  0  0  0  0  0  0  0  0  0  0
   -3.4261    1.0968   -0.8427 C   0  0  1  0  0  0  0  0  0  0  0  0
   -2.0206    1.1266   -1.0731 O   0  0  0  0  0  0  0  0  0  0  0  0
   -3.5639    0.1439    0.3340 C   0  0  1  0  0  0  0  0  0  0  0  0
   -4.9490   -0.1894    0.4507 O   0  0  0  0  0  0  0  0  0  0  0  0
   -2.6404   -0.9602   -0.1455 C   0  0  1  0  0  0  0  0  0  0  0  0
   -3.1873   -1.6774   -1.2571 O   0  0  0  0  0  0  0  0  0  0  0  0
   -1.4577   -0.0985   -0.6032 C   0  0  2  0  0  0  0  0  0  0  0  0
   -5.2652   -1.2124    1.3512 C   0  0  2  0  0  0  0  0  0  0  0  0
   -6.1032   -0.6345    2.4997 C   0  0  2  0  0  0  0  0  0  0  0  0
   -5.4049    0.5299    3.1052 N   0  3  0  0  0  0  0  0  0  0  0  0
   -6.4156   -1.7123    3.5428 C   0  0  1  0  0  0  0  0  0  0  0  0
   -7.3460   -2.6426    3.0046 O   0  0  0  0  0  0  0  0  0  0  0  0
   -5.1438   -2.4490    3.9746 C   0  0  2  0  0  0  0  0  0  0  0  0
   -4.2988   -1.5808    4.7190 O   0  0  0  0  0  0  0  0  0  0  0  0
   -4.4055   -2.9638    2.7423 C   0  0  1  0  0  0  0  0  0  0  0  0
   -4.1086   -1.8643    1.8597 O   0  0  0  0  0  0  0  0  0  0  0  0
   -3.0993   -3.6633    3.0752 C   0  0  0  0  0  0  0  0  0  0  0  0
   -3.0412   -5.0265    2.5025 N   0  3  0  0  0  0  0  0  0  0  0  0
    5.2257    4.0221   -0.6290 C   0  0  0  0  0  0  0  0  0  0  0  0
    2.2917    2.7245    1.2244 C   0  0  2  0  0  0  0  0  0  0  0  0
    1.2599    3.8137    0.9414 C   0  0  2  0  0  0  0  0  0  0  0  0
   -0.1089    3.2998    1.1859 N   0  3  0  0  0  0  0  0  0  0  0  0
    1.3726    4.2806   -0.5037 C   0  0  1  0  0  0  0  0  0  0  0  0
    0.4625    5.3454   -0.7324 O   0  0  0  0  0  0  0  0  0  0  0  0
    2.8015    4.7419   -0.7817 C   0  0  2  0  0  0  0  0  0  0  0  0
    2.9326    5.1144   -2.1476 O   0  0  0  0  0  0  0  0  0  0  0  0
    6.1314    2.8508   -0.6015 N   0  3  0  0  0  0  0  0  0  0  0  0
    3.7740    3.6084   -0.4613 C   0  0  2  0  0  0  0  0  0  0  0  0
    3.6038    3.1803    0.9052 O   0  0  0  0  0  0  0  0  0  0  0  0
    1.6130   -2.5009    1.7201 C   0  0  2  0  0  0  0  0  0  0  0  0
    1.3150   -3.6939    2.5455 N   0  3  0  0  0  0  0  0  0  0  0  0
    2.6192   -1.6087    2.4382 C   0  0  0  0  0  0  0  0  0  0  0  0
    2.9335   -0.3762    1.6018 C   0  0  2  0  0  0  0  0  0  0  0  0
    3.8965    0.4294    2.3392 N   0  3  0  0  0  0  0  0  0  0  0  0
    1.6521    0.4115    1.3393 C   0  0  1  0  0  0  0  0  0  0  0  0
    1.9536    1.5606    0.5238 O   0  0  0  0  0  0  0  0  0  0  0  0
    0.6122   -0.4628    0.6248 C   0  0  2  0  0  0  0  0  0  0  0  0
   -0.6171    0.2750    0.4864 O   0  0  0  0  0  0  0  0  0  0  0  0
    0.3247   -1.7414    1.4079 C   0  0  1  0  0  0  0  0  0  0  0  0
   -0.5450   -2.5746    0.6529 O   0  0  0  0  0  0  0  0  0  0  0  0
  1  2  1  0  0  0  0
  3  2  1  1  0  0  0
  3  5  1  0  0  0  0
  3  4  1  0  0  0  0
  4  9  1  0  0  0  0
  5  7  1  0  0  0  0
  5  6  1  6  0  0  0
  7  9  1  0  0  0  0
  7  8  1  6  0  0  0
  9 40  1  1  0  0  0
 10  6  1  6  0  0  0
 10 11  1  0  0  0  0
 10 18  1  0  0  0  0
 11 13  1  0  0  0  0
 11 12  1  1  0  0  0
 13 15  1  0  0  0  0
 13 14  1  6  0  0  0
 15 17  1  0  0  0  0
 15 16  1  6  0  0  0
 17 19  1  1  0  0  0
 17 18  1  0  0  0  0
 19 20  1  0  0  0  0
 21 29  1  0  0  0  0
 22 23  1  0  0  0  0
 22 31  1  0  0  0  0
 22 38  1  6  0  0  0
 23 25  1  0  0  0  0
 23 24  1  6  0  0  0
 25 27  1  0  0  0  0
 25 26  1  1  0  0  0
 27 30  1  0  0  0  0
 27 28  1  6  0  0  0
 30 21  1  1  0  0  0
 30 31  1  0  0  0  0
 32 34  1  0  0  0  0
 32 41  1  0  0  0  0
 32 33  1  1  0  0  0
 34 35  1  0  0  0  0
 35 37  1  0  0  0  0
 35 36  1  1  0  0  0
 37 39  1  0  0  0  0
 37 38  1  6  0  0  0
 39 41  1  0  0  0  0
 39 40  1  1  0  0  0
 41 42  1  6  0  0  0
M  CHG  6  12   1  20   1  24   1  29   1  33   1  36   1
M  END
>  <CHROM.1>
52.44568814,52.19889845,170.83380038,114.90702470,64.77670259,-143.13323430
82.14388012,-72.27577550,170.21680045,125.50200212,-15.40273565,-167.72929004
-75.49335835,-117.11458711,-42.89600688,-175.38778522,-63.07687498,66.82062798
-58.28292810,-89.78734084,153.56194341,-84.47135451,-0.90506729,0.35489433
0.96932145,0.62153224,-0.02121250,-0.47250452

>  <Name>
1NEM.B

>  <RI>
0

>  <Rbt.Current_Directory>
/home/itssahil/PROJECTS/Mol_Feturizer/New_Systems/rnas/1nem

>  <Rbt.Executable>
rbdock ($Id: //depot/dev/client3/rdock/2013.1/src/exe/rbdock.cxx#4 $)

>  <Rbt.Library>
libRbt.so (2013.1, Build901 2013/11/27)

>  <Rbt.Parameter_File>
/export/apps/rDock/src/rDock_2013.1_src/data/scripts/dock_solv.prm

>  <Rbt.Receptor>
prm/pocket_docking_7.prm

>  <SCORE>
-33.6176

>  <SCORE.INTER>
-46.038

>  <SCORE.INTER.CONST>
1

>  <SCORE.INTER.POLAR>
-6.65228

>  <SCORE.INTER.ROT>
9

>  <SCORE.INTER.SOLV>
35.4255

>  <SCORE.INTER.VDW>
-29.9262

>  <SCORE.INTER.norm>
-1.09614

>  <SCORE.INTRA>
12.4203

>  <SCORE.INTRA.DIHEDRAL>
19.8973

>  <SCORE.INTRA.DIHEDRAL.0>
22.4324

>  <SCORE.INTRA.POLAR>
-0.301911

>  <SCORE.INTRA.POLAR.0>
-1.83749

>  <SCORE.INTRA.REPUL>
0.223401

>  <SCORE.INTRA.REPUL.0>
0

>  <SCORE.INTRA.SOLV>
-3.26874

>  <SCORE.INTRA.SOLV.lig_0>
-160.638

>  <SCORE.INTRA.VDW>
4.01558

>  <SCORE.INTRA.VDW.0>
-7.61953

>  <SCORE.INTRA.norm>
0.295723

>  <SCORE.RESTR>
0

>  <SCORE.RESTR.CAVITY>
0

>  <SCORE.RESTR.norm>
0

>  <SCORE.SYSTEM>
0

>  <SCORE.SYSTEM.CONST>
0

>  <SCORE.SYSTEM.DIHEDRAL>
0

>  <SCORE.SYSTEM.SOLV>
0

>  <SCORE.SYSTEM.norm>
0

>  <SCORE.heavy>
42

>  <SCORE.norm>
-0.800419

>  <RMSD>
8.915

$$$$
1NEM.B
 OpenBabel11021811403D
libRbt.so/2013.1/901 2013/11/27
 42 45  0  0  0  0  0  0  0  0999 V2000
   -5.6525    0.8003    3.1828 O   0  0  0  0  0  0  0  0  0  0  0  0
   -5.4992   -0.5866    2.8746 C   0  0  0  0  0  0  0  0  0  0  0  0
   -4.9116   -0.8294    1.4851 C   0  0  1  0  0  0  0  0  0  0  0  0
   -3.9283    0.1538    1.1754 O   0  0  0  0  0  0  0  0  0  0  0  0
   -4.1514   -2.1378    1.3375 C   0  0  1  0  0  0  0  0  0  0  0  0
   -5.1171   -3.1916    1.3306 O   0  0  0  0  0  0  0  0  0  0  0  0
   -3.4479   -1.8563    0.0231 C   0  0  1  0  0  0  0  0  0  0  0  0
   -4.3562   -1.8394   -1.0832 O   0  0  0  0  0  0  0  0  0  0  0  0
   -2.9500   -0.4368    0.3195 C   0  0  2  0  0  0  0  0  0  0  0  0
   -5.0702   -4.0805    2.4100 C   0  0  2  0  0  0  0  0  0  0  0  0
   -6.1155   -5.1847    2.2020 C   0  0  2  0  0  0  0  0  0  0  0  0
   -7.4517   -4.5823    1.9533 N   0  3  0  0  0  0  0  0  0  0  0  0
   -6.1406   -6.1439    3.3965 C   0  0  1  0  0  0  0  0  0  0  0  0
   -4.9547   -6.9276    3.4047 O   0  0  0  0  0  0  0  0  0  0  0  0
   -6.2598   -5.3784    4.7179 C   0  0  2  0  0  0  0  0  0  0  0  0
   -7.5417   -4.7721    4.8236 O   0  0  0  0  0  0  0  0  0  0  0  0
   -5.1713   -4.3114    4.7929 C   0  0  1  0  0  0  0  0  0  0  0  0
   -5.2762   -3.4305    3.6575 O   0  0  0  0  0  0  0  0  0  0  0  0
   -5.2479   -3.4649    6.0513 C   0  0  0  0  0  0  0  0  0  0  0  0
   -4.6156   -2.1400    5.8652 N   0  3  0  0  0  0  0  0  0  0  0  0
    2.8002    3.2936    0.8399 C   0  0  0  0  0  0  0  0  0  0  0  0
   -0.2276    1.6326   -0.5020 C   0  0  2  0  0  0  0  0  0  0  0  0
   -0.4751    2.4501   -1.7674 C   0  0  2  0  0  0  0  0  0  0  0  0
   -1.3433    1.6967   -2.7035 N   0  3  0  0  0  0  0  0  0  0  0  0
    0.8468    2.7700   -2.4524 C   0  0  1  0  0  0  0  0  0  0  0  0
    0.6098    3.5947   -3.5830 O   0  0  0  0  0  0  0  0  0  0  0  0
    1.7732    3.4810   -1.4684 C   0  0  2  0  0  0  0  0  0  0  0  0
    3.0346    3.7215   -2.0789 O   0  0  0  0  0  0  0  0  0  0  0  0
    2.6669    2.6185    2.1511 N   0  3  0  0  0  0  0  0  0  0  0  0
    1.9596    2.6123   -0.2260 C   0  0  2  0  0  0  0  0  0  0  0  0
    0.6791    2.3097    0.3643 O   0  0  0  0  0  0  0  0  0  0  0  0
    0.7877   -3.2161    1.3840 C   0  0  2  0  0  0  0  0  0  0  0  0
    1.1058   -4.1251    2.5091 N   0  3  0  0  0  0  0  0  0  0  0  0
    2.0090   -2.3738    1.0334 C   0  0  0  0  0  0  0  0  0  0  0  0
    1.6958   -1.4322   -0.1210 C   0  0  2  0  0  0  0  0  0  0  0  0
    2.8976   -0.6612   -0.4063 N   0  3  0  0  0  0  0  0  0  0  0  0
    0.5373   -0.5136    0.2604 C   0  0  1  0  0  0  0  0  0  0  0  0
    0.2287    0.3549   -0.8472 O   0  0  0  0  0  0  0  0  0  0  0  0
   -0.7078   -1.3321    0.6295 C   0  0  2  0  0  0  0  0  0  0  0  0
   -1.7459   -0.4427    1.0833 O   0  0  0  0  0  0  0  0  0  0  0  0
   -0.4079   -2.3344    1.7412 C   0  0  1  0  0  0  0  0  0  0  0  0
   -1.5493   -3.1519    1.9635 O   0  0  0  0  0  0  0  0  0  0  0  0
  1  2  1  0  0  0  0
  3  2  1  1  0  0  0
  3  5  1  0  0  0  0
  3  4  1  0  0  0  0
  4  9  1  0  0  0  0
  5  7  1  0  0  0  0
  5  6  1  6  0  0  0
  7  9  1  0  0  0  0
  7  8  1  6  0  0  0
  9 40  1  1  0  0  0
 10  6  1  6  0  0  0
 10 11  1  0  0  0  0
 10 18  1  0  0  0  0
 11 13  1  0  0  0  0
 11 12  1  1  0  0  0
 13 15  1  0  0  0  0
 13 14  1  1  0  0  0
 15 17  1  0  0  0  0
 15 16  1  6  0  0  0
 17 19  1  1  0  0  0
 17 18  1  0  0  0  0
 19 20  1  0  0  0  0
 21 29  1  0  0  0  0
 22 23  1  0  0  0  0
 22 31  1  0  0  0  0
 22 38  1  6  0  0  0
 23 25  1  0  0  0  0
 23 24  1  6  0  0  0
 25 27  1  0  0  0  0
 25 26  1  6  0  0  0
 27 30  1  0  0  0  0
 27 28  1  6  0  0  0
 30 21  1  1  0  0  0
 30 31  1  0  0  0  0
 32 34  1  0  0  0  0
 32 41  1  0  0  0  0
 32 33  1  1  0  0  0
 34 35  1  0  0  0  0
 35 37  1  0  0  0  0
 35 36  1  1  0  0  0
 37 39  1  0  0  0  0
 37 38  1  6  0  0  0
 39 41  1  0  0  0  0
 39 40  1  1  0  0  0
 41 42  1  6  0  0  0
M  CHG  6  12   1  20   1  24   1  29   1  33   1  36   1
M  END
>  <CHROM.1>
-172.81865418,37.01163421,-114.65277587,-176.82337966,77.26984592,161.93991271
172.57656972,-178.65564329,77.74741289,-155.76279152,125.77965258,164.48936310
-34.32334747,178.39461596,-32.28330502,-70.01443197,65.08787507,-29.98740102
-175.90609755,-147.09859084,118.77577327,66.41791117,-2.07851062,-1.16381960
1.24099521,2.32138727,-0.03751982,2.55225841

>  <Name>
1NEM.B

>  <RI>
0

>  <Rbt.Current_Directory>
/home/itssahil/PROJECTS/Mol_Feturizer/New_Systems/rnas/1nem

>  <Rbt.Executable>
rbdock ($Id: //depot/dev/client3/rdock/2013.1/src/exe/rbdock.cxx#4 $)

>  <Rbt.Library>
libRbt.so (2013.1, Build901 2013/11/27)

>  <Rbt.Parameter_File>
/export/apps/rDock/src/rDock_2013.1_src/data/scripts/dock_solv.prm

>  <Rbt.Receptor>
prm/pocket_docking_6.prm

>  <SCORE>
-32.277

>  <SCORE.INTER>
-42.7767

>  <SCORE.INTER.CONST>
1

>  <SCORE.INTER.POLAR>
-6.60128

>  <SCORE.INTER.ROT>
9

>  <SCORE.INTER.SOLV>
33.2172

>  <SCORE.INTER.VDW>
-27.186

>  <SCORE.INTER.norm>
-1.01849

>  <SCORE.INTRA>
10.4997

>  <SCORE.INTRA.DIHEDRAL>
14.3143

>  <SCORE.INTRA.DIHEDRAL.0>
22.4324

>  <SCORE.INTRA.POLAR>
0.586942

>  <SCORE.INTRA.POLAR.0>
-1.83749

>  <SCORE.INTRA.REPUL>
0

>  <SCORE.INTRA.REPUL.0>
0

>  <SCORE.INTRA.SOLV>
-2.62069

>  <SCORE.INTRA.SOLV.lig_0>
-160.638

>  <SCORE.INTRA.VDW>
2.65728

>  <SCORE.INTRA.VDW.0>
-7.61953

>  <SCORE.INTRA.norm>
0.249993

>  <SCORE.RESTR>
0

>  <SCORE.RESTR.CAVITY>
0

>  <SCORE.RESTR.norm>
0

>  <SCORE.SYSTEM>
0

>  <SCORE.SYSTEM.CONST>
0

>  <SCORE.SYSTEM.DIHEDRAL>
0

>  <SCORE.SYSTEM.SOLV>
0

>  <SCORE.SYSTEM.norm>
0

>  <SCORE.heavy>
42

>  <SCORE.norm>
-0.768501

>  <RMSD>
8.935

$$$$
1NEM.B
 OpenBabel11021811403D
libRbt.so/2013.1/901 2013/11/27
 42 45  0  0  0  0  0  0  0  0999 V2000
   -2.8885    2.7992    0.8770 O   0  0  0  0  0  0  0  0  0  0  0  0
   -3.6222    1.6201    1.2139 C   0  0  0  0  0  0  0  0  0  0  0  0
   -3.2895    0.4309    0.3139 C   0  0  1  0  0  0  0  0  0  0  0  0
   -1.8895    0.3697    0.0573 O   0  0  0  0  0  0  0  0  0  0  0  0
   -3.5895   -0.9294    0.9233 C   0  0  1  0  0  0  0  0  0  0  0  0
   -5.0104   -1.0841    0.9380 O   0  0  0  0  0  0  0  0  0  0  0  0
   -2.8242   -1.8012   -0.0545 C   0  0  1  0  0  0  0  0  0  0  0  0
   -3.4436   -1.8387   -1.3445 O   0  0  0  0  0  0  0  0  0  0  0  0
   -1.5197   -0.9981   -0.1181 C   0  0  2  0  0  0  0  0  0  0  0  0
   -5.4929   -2.3252    1.3671 C   0  0  2  0  0  0  0  0  0  0  0  0
   -7.0202   -2.2559    1.5004 C   0  0  2  0  0  0  0  0  0  0  0  0
   -7.4055   -1.1091    2.3645 N   0  3  0  0  0  0  0  0  0  0  0  0
   -7.5820   -3.5786    2.0316 C   0  0  1  0  0  0  0  0  0  0  0  0
   -7.4687   -4.5818    1.0309 O   0  0  0  0  0  0  0  0  0  0  0  0
   -6.8403   -4.0268    3.2946 C   0  0  2  0  0  0  0  0  0  0  0  0
   -7.1307   -3.1495    4.3754 O   0  0  0  0  0  0  0  0  0  0  0  0
   -5.3377   -4.0452    3.0283 C   0  0  1  0  0  0  0  0  0  0  0  0
   -4.9060   -2.7412    2.5933 O   0  0  0  0  0  0  0  0  0  0  0  0
   -4.5177   -4.4277    4.2478 C   0  0  0  0  0  0  0  0  0  0  0  0
   -3.0640   -4.3353    3.9872 N   0  3  0  0  0  0  0  0  0  0  0  0
    5.1853   -0.9567    4.5581 C   0  0  0  0  0  0  0  0  0  0  0  0
    2.1378   -0.2068    2.5890 C   0  0  2  0  0  0  0  0  0  0  0  0
    2.5022    1.1485    1.9877 C   0  0  2  0  0  0  0  0  0  0  0  0
    1.6479    1.4340    0.8104 N   0  3  0  0  0  0  0  0  0  0  0  0
    3.9648    1.1582    1.5637 C   0  0  1  0  0  0  0  0  0  0  0  0
    4.3113    2.4463    1.0787 O   0  0  0  0  0  0  0  0  0  0  0  0
    4.8451    0.7915    2.7564 C   0  0  2  0  0  0  0  0  0  0  0  0
    6.2068    0.7307    2.3521 O   0  0  0  0  0  0  0  0  0  0  0  0
    6.1829   -2.0121    4.2688 N   0  3  0  0  0  0  0  0  0  0  0  0
    4.4117   -0.5639    3.3116 C   0  0  2  0  0  0  0  0  0  0  0  0
    3.0139   -0.5310    3.6652 O   0  0  0  0  0  0  0  0  0  0  0  0
    0.2633   -4.9457    0.9976 C   0  0  2  0  0  0  0  0  0  0  0  0
   -0.5543   -6.1540    1.2526 N   0  3  0  0  0  0  0  0  0  0  0  0
    1.3737   -4.8392    2.0367 C   0  0  0  0  0  0  0  0  0  0  0  0
    2.2216   -3.5996    1.7883 C   0  0  2  0  0  0  0  0  0  0  0  0
    3.2596   -3.5574    2.8085 N   0  3  0  0  0  0  0  0  0  0  0  0
    1.3443   -2.3515    1.8520 C   0  0  1  0  0  0  0  0  0  0  0  0
    2.1487   -1.1855    1.5879 O   0  0  0  0  0  0  0  0  0  0  0  0
    0.2081   -2.4314    0.8229 C   0  0  2  0  0  0  0  0  0  0  0  0
   -0.6587   -1.2919    0.9799 O   0  0  0  0  0  0  0  0  0  0  0  0
   -0.6214   -3.7001    1.0043 C   0  0  1  0  0  0  0  0  0  0  0  0
   -1.5792   -3.7942   -0.0418 O   0  0  0  0  0  0  0  0  0  0  0  0
  1  2  1  0  0  0  0
  3  2  1  1  0  0  0
  3  5  1  0  0  0  0
  3  4  1  0  0  0  0
  4  9  1  0  0  0  0
  5  7  1  0  0  0  0
  5  6  1  6  0  0  0
  7  9  1  0  0  0  0
  7  8  1  6  0  0  0
  9 40  1  1  0  0  0
 10  6  1  1  0  0  0
 10 11  1  0  0  0  0
 10 18  1  0  0  0  0
 11 13  1  0  0  0  0
 11 12  1  1  0  0  0
 13 15  1  0  0  0  0
 13 14  1  6  0  0  0
 15 17  1  0  0  0  0
 15 16  1  1  0  0  0
 17 19  1  1  0  0  0
 17 18  1  0  0  0  0
 19 20  1  0  0  0  0
 21 29  1  0  0  0  0
 22 23  1  0  0  0  0
 22 31  1  0  0  0  0
 22 38  1  6  0  0  0
 23 25  1  0  0  0  0
 23 24  1  6  0  0  0
 25 27  1  0  0  0  0
 25 26  1  1  0  0  0
 27 30  1  0  0  0  0
 27 28  1  6  0  0  0
 30 21  1  1  0  0  0
 30 31  1  0  0  0  0
 32 34  1  0  0  0  0
 32 41  1  0  0  0  0
 32 33  1  1  0  0  0
 34 35  1  0  0  0  0
 35 37  1  0  0  0  0
 35 36  1  1  0  0  0
 37 39  1  0  0  0  0
 37 38  1  6  0  0  0
 39 41  1  0  0  0  0
 39 40  1  1  0  0  0
 41 42  1  6  0  0  0
M  CHG  6  12   1  20   1  24   1  29   1  33   1  36   1
M  END
>  <CHROM.1>
62.42247856,40.96414743,175.06605992,172.47687005,86.55872907,-159.74048334
-80.30782042,-58.47070564,176.89322566,-175.60005030,-92.33580991,-105.49850948
178.67762058,-156.38211746,-164.85437996,-168.41035764,68.54571734,-77.54810170
-6.53416025,-122.90765359,162.24840014,-35.84536623,-1.01252984,-1.71164611
1.82411590,2.93108177,0.12130985,2.84134286

>  <Name>
1NEM.B

>  <RI>
0

>  <Rbt.Current_Directory>
/home/itssahil/PROJECTS/Mol_Feturizer/New_Systems/rnas/1nem

>  <Rbt.Executable>
rbdock ($Id: //depot/dev/client3/rdock/2013.1/src/exe/rbdock.cxx#4 $)

>  <Rbt.Library>
libRbt.so (2013.1, Build901 2013/11/27)

>  <Rbt.Parameter_File>
/export/apps/rDock/src/rDock_2013.1_src/data/scripts/dock_solv.prm

>  <Rbt.Receptor>
prm/blind_docking_80.prm

>  <SCORE>
7.90617

>  <SCORE.INTER>
-17.2354

>  <SCORE.INTER.CONST>
1

>  <SCORE.INTER.POLAR>
-5.18674

>  <SCORE.INTER.ROT>
9

>  <SCORE.INTER.SOLV>
54.6695

>  <SCORE.INTER.VDW>
-22.0243

>  <SCORE.INTER.norm>
-0.410366

>  <SCORE.INTRA>
16.636

>  <SCORE.INTRA.DIHEDRAL>
11.4285

>  <SCORE.INTRA.DIHEDRAL.0>
22.4324

>  <SCORE.INTRA.POLAR>
0.459663

>  <SCORE.INTRA.POLAR.0>
-1.83749

>  <SCORE.INTRA.REPUL>
0.0129977

>  <SCORE.INTRA.REPUL.0>
0

>  <SCORE.INTRA.SOLV>
0.694705

>  <SCORE.INTRA.SOLV.lig_0>
-160.638

>  <SCORE.INTRA.VDW>
8.94653

>  <SCORE.INTRA.VDW.0>
-7.61953

>  <SCORE.INTRA.norm>
0.396095

>  <SCORE.RESTR>
8.50554

>  <SCORE.RESTR.CAVITY>
8.50554

>  <SCORE.RESTR.norm>
0.202513

>  <SCORE.SYSTEM>
0

>  <SCORE.SYSTEM.CONST>
0

>  <SCORE.SYSTEM.DIHEDRAL>
0

>  <SCORE.SYSTEM.SOLV>
0

>  <SCORE.SYSTEM.norm>
0

>  <SCORE.heavy>
42

>  <SCORE.norm>
0.188242

>  <RMSD>
8.938

$$$$
1NEM.B
 OpenBabel11021811403D
libRbt.so/2013.1/901 2013/11/27
 42 45  0  0  0  0  0  0  0  0999 V2000
   -3.4668    2.3297   -0.4712 O   0  0  0  0  0  0  0  0  0  0  0  0
   -2.7448    1.6036   -1.4680 C   0  0  0  0  0  0  0  0  0  0  0  0
   -2.2556    0.2411   -0.9791 C   0  0  1  0  0  0  0  0  0  0  0  0
   -0.8372    0.1507   -1.0765 O   0  0  0  0  0  0  0  0  0  0  0  0
   -2.5201   -0.0375    0.4919 C   0  0  1  0  0  0  0  0  0  0  0  0
   -3.9235   -0.2684    0.6348 O   0  0  0  0  0  0  0  0  0  0  0  0
   -1.6146   -1.2415    0.6718 C   0  0  1  0  0  0  0  0  0  0  0  0
   -2.1115   -2.3980   -0.0099 O   0  0  0  0  0  0  0  0  0  0  0  0
   -0.3647   -0.7067   -0.0372 C   0  0  2  0  0  0  0  0  0  0  0  0
   -4.2925   -1.4483    1.2897 C   0  0  2  0  0  0  0  0  0  0  0  0
   -4.5764   -2.5382    0.2472 C   0  0  2  0  0  0  0  0  0  0  0  0
   -5.5652   -2.0470   -0.7484 N   0  3  0  0  0  0  0  0  0  0  0  0
   -5.0476   -3.8299    0.9231 C   0  0  1  0  0  0  0  0  0  0  0  0
   -3.9611   -4.4304    1.6157 O   0  0  0  0  0  0  0  0  0  0  0  0
   -6.1926   -3.5553    1.9028 C   0  0  2  0  0  0  0  0  0  0  0  0
   -7.3651   -3.1696    1.1967 O   0  0  0  0  0  0  0  0  0  0  0  0
   -5.7833   -2.4521    2.8745 C   0  0  1  0  0  0  0  0  0  0  0  0
   -5.4185   -1.2682    2.1388 O   0  0  0  0  0  0  0  0  0  0  0  0
   -6.8832   -2.0761    3.8518 C   0  0  0  0  0  0  0  0  0  0  0  0
   -7.0291   -3.0778    4.9312 N   0  3  0  0  0  0  0  0  0  0  0  0
    1.4055    1.1194   -2.4461 C   0  0  0  0  0  0  0  0  0  0  0  0
    3.5232    1.7719    0.5232 C   0  0  2  0  0  0  0  0  0  0  0  0
    4.0454    3.1720    0.2100 C   0  0  2  0  0  0  0  0  0  0  0  0
    4.5345    3.8259    1.4472 N   0  3  0  0  0  0  0  0  0  0  0  0
    2.9394    4.0192   -0.4048 C   0  0  1  0  0  0  0  0  0  0  0  0
    3.4573    5.2914   -0.7624 O   0  0  0  0  0  0  0  0  0  0  0  0
    2.3811    3.3136   -1.6386 C   0  0  2  0  0  0  0  0  0  0  0  0
    1.3014    4.0647   -2.1784 O   0  0  0  0  0  0  0  0  0  0  0  0
    2.3472    1.2135   -3.5851 N   0  3  0  0  0  0  0  0  0  0  0  0
    1.8948    1.9185   -1.2508 C   0  0  2  0  0  0  0  0  0  0  0  0
    2.9676    1.1704   -0.6432 O   0  0  0  0  0  0  0  0  0  0  0  0
    2.7428   -2.3105    2.4804 C   0  0  2  0  0  0  0  0  0  0  0  0
    2.4780   -3.6037    3.1518 N   0  3  0  0  0  0  0  0  0  0  0  0
    3.3494   -1.3235    3.4713 C   0  0  0  0  0  0  0  0  0  0  0  0
    3.6251    0.0121    2.7950 C   0  0  2  0  0  0  0  0  0  0  0  0
    4.2022    0.9050    3.7899 N   0  3  0  0  0  0  0  0  0  0  0  0
    2.3256    0.5869    2.2360 C   0  0  1  0  0  0  0  0  0  0  0  0
    2.5996    1.8367    1.5732 O   0  0  0  0  0  0  0  0  0  0  0  0
    1.6827   -0.3886    1.2404 C   0  0  2  0  0  0  0  0  0  0  0  0
    0.4110    0.1354    0.8127 O   0  0  0  0  0  0  0  0  0  0  0  0
    1.4546   -1.7603    1.8705 C   0  0  1  0  0  0  0  0  0  0  0  0
    0.9756   -2.6627    0.8821 O   0  0  0  0  0  0  0  0  0  0  0  0
  1  2  1  0  0  0  0
  3  2  1  1  0  0  0
  3  5  1  0  0  0  0
  3  4  1  0  0  0  0
  4  9  1  0  0  0  0
  5  7  1  0  0  0  0
  5  6  1  6  0  0  0
  7  9  1  0  0  0  0
  7  8  1  6  0  0  0
  9 40  1  1  0  0  0
 10  6  1  6  0  0  0
 10 11  1  0  0  0  0
 10 18  1  0  0  0  0
 11 13  1  0  0  0  0
 11 12  1  6  0  0  0
 13 15  1  0  0  0  0
 13 14  1  1  0  0  0
 15 17  1  0  0  0  0
 15 16  1  6  0  0  0
 17 19  1  1  0  0  0
 17 18  1  0  0  0  0
 19 20  1  0  0  0  0
 21 29  1  0  0  0  0
 22 23  1  0  0  0  0
 22 31  1  0  0  0  0
 22 38  1  1  0  0  0
 23 25  1  0  0  0  0
 23 24  1  1  0  0  0
 25 27  1  0  0  0  0
 25 26  1  6  0  0  0
 27 30  1  0  0  0  0
 27 28  1  1  0  0  0
 30 21  1  6  0  0  0
 30 31  1  0  0  0  0
 32 34  1  0  0  0  0
 32 41  1  0  0  0  0
 32 33  1  1  0  0  0
 34 35  1  0  0  0  0
 35 37  1  0  0  0  0
 35 36  1  1  0  0  0
 37 39  1  0  0  0  0
 37 38  1  6  0  0  0
 39 41  1  0  0  0  0
 39 40  1  1  0  0  0
 41 42  1  6  0  0  0
M  CHG  6  12   1  20   1  24   1  29   1  33   1  36   1
M  END
>  <CHROM.1>
-56.04839507,-121.09391458,127.55323620,-95.60040044,63.48937493,-134.96472739
-171.60170283,-163.42828464,62.11775260,76.52564270,20.47675270,46.03639701
-50.42063956,-162.31823580,54.81747268,-178.58676156,68.64770640,-148.39601092
-63.61103707,58.26971563,-175.21574355,59.33202734,-0.62668648,-0.18548946
0.74359877,2.66913157,0.24723917,2.37338165

>  <Name>
1NEM.B

>  <RI>
0

>  <Rbt.Current_Directory>
/home/itssahil/PROJECTS/Mol_Feturizer/New_Systems/rnas/1nem

>  <Rbt.Executable>
rbdock ($Id: //depot/dev/client3/rdock/2013.1/src/exe/rbdock.cxx#4 $)

>  <Rbt.Library>
libRbt.so (2013.1, Build901 2013/11/27)

>  <Rbt.Parameter_File>
/export/apps/rDock/src/rDock_2013.1_src/data/scripts/dock_solv.prm

>  <Rbt.Receptor>
prm/pocket_docking_4.prm

>  <SCORE>
-11.8942

>  <SCORE.INTER>
-32.4586

>  <SCORE.INTER.CONST>
1

>  <SCORE.INTER.POLAR>
-5.59983

>  <SCORE.INTER.ROT>
9

>  <SCORE.INTER.SOLV>
34.1064

>  <SCORE.INTER.VDW>
-23.9418

>  <SCORE.INTER.norm>
-0.772824

>  <SCORE.INTRA>
19.2341

>  <SCORE.INTRA.DIHEDRAL>
10.6688

>  <SCORE.INTRA.DIHEDRAL.0>
22.4324

>  <SCORE.INTRA.POLAR>
1.3727

>  <SCORE.INTRA.POLAR.0>
-1.83749

>  <SCORE.INTRA.REPUL>
0

>  <SCORE.INTRA.REPUL.0>
0

>  <SCORE.INTRA.SOLV>
-1.66313

>  <SCORE.INTRA.SOLV.lig_0>
-160.638

>  <SCORE.INTRA.VDW>
10.0641

>  <SCORE.INTRA.VDW.0>
-7.61953

>  <SCORE.INTRA.norm>
0.457955

>  <SCORE.RESTR>
1.33031

>  <SCORE.RESTR.CAVITY>
1.33031

>  <SCORE.RESTR.norm>
0.0316741

>  <SCORE.SYSTEM>
0

>  <SCORE.SYSTEM.CONST>
0

>  <SCORE.SYSTEM.DIHEDRAL>
0

>  <SCORE.SYSTEM.SOLV>
0

>  <SCORE.SYSTEM.norm>
0

>  <SCORE.heavy>
42

>  <SCORE.norm>
-0.283195

>  <RMSD>
8.942

$$$$
1NEM.B
 OpenBabel11021811403D
libRbt.so/2013.1/901 2013/11/27
 42 45  0  0  0  0  0  0  0  0999 V2000
   -0.1898    0.9260   -1.5823 O   0  0  0  0  0  0  0  0  0  0  0  0
   -0.2777    0.1384   -0.3932 C   0  0  0  0  0  0  0  0  0  0  0  0
    0.9672   -0.7122   -0.1456 C   0  0  1  0  0  0  0  0  0  0  0  0
    2.1162    0.1134    0.0211 O   0  0  0  0  0  0  0  0  0  0  0  0
    0.9353   -1.5246    1.1392 C   0  0  1  0  0  0  0  0  0  0  0  0
    0.0031   -2.5906    0.9446 O   0  0  0  0  0  0  0  0  0  0  0  0
    2.4005   -1.9119    1.2113 C   0  0  1  0  0  0  0  0  0  0  0  0
    2.7607   -2.8550    0.1965 O   0  0  0  0  0  0  0  0  0  0  0  0
    3.0229   -0.5443    0.9065 C   0  0  2  0  0  0  0  0  0  0  0  0
   -1.1900   -2.5090    1.6707 C   0  0  2  0  0  0  0  0  0  0  0  0
   -1.9884   -3.8057    1.4796 C   0  0  2  0  0  0  0  0  0  0  0  0
   -2.1632   -4.0884    0.0305 N   0  3  0  0  0  0  0  0  0  0  0  0
   -3.3342   -3.7298    2.2078 C   0  0  1  0  0  0  0  0  0  0  0  0
   -3.1207   -3.7785    3.6123 O   0  0  0  0  0  0  0  0  0  0  0  0
   -4.0867   -2.4454    1.8467 C   0  0  2  0  0  0  0  0  0  0  0  0
   -4.5090   -2.4854    0.4894 O   0  0  0  0  0  0  0  0  0  0  0  0
   -3.1810   -1.2386    2.0749 C   0  0  1  0  0  0  0  0  0  0  0  0
   -1.9751   -1.3834    1.2999 O   0  0  0  0  0  0  0  0  0  0  0  0
   -3.8303    0.0790    1.6897 C   0  0  0  0  0  0  0  0  0  0  0  0
   -5.0984    0.3038    2.4185 N   0  3  0  0  0  0  0  0  0  0  0  0
    5.9541    4.3334   -2.3593 C   0  0  0  0  0  0  0  0  0  0  0  0
    4.5577    3.7071    1.0148 C   0  0  2  0  0  0  0  0  0  0  0  0
    3.0605    3.8252    0.7400 C   0  0  2  0  0  0  0  0  0  0  0  0
    2.2871    3.1671    1.8200 N   0  3  0  0  0  0  0  0  0  0  0  0
    2.7188    3.1742   -0.5936 C   0  0  1  0  0  0  0  0  0  0  0  0
    1.3397    3.3585   -0.8738 O   0  0  0  0  0  0  0  0  0  0  0  0
    3.5675    3.7982   -1.6991 C   0  0  2  0  0  0  0  0  0  0  0  0
    3.3045    3.1484   -2.9361 O   0  0  0  0  0  0  0  0  0  0  0  0
    7.3818    4.1847   -1.9952 N   0  3  0  0  0  0  0  0  0  0  0  0
    5.0470    3.6559   -1.3470 C   0  0  2  0  0  0  0  0  0  0  0  0
    5.3112    4.2566   -0.0628 O   0  0  0  0  0  0  0  0  0  0  0  0
    5.6182    0.2123    4.8460 C   0  0  2  0  0  0  0  0  0  0  0  0
    5.5076   -0.2382    6.2525 N   0  3  0  0  0  0  0  0  0  0  0  0
    5.9691    1.6951    4.7999 C   0  0  0  0  0  0  0  0  0  0  0  0
    6.0839    2.1729    3.3591 C   0  0  2  0  0  0  0  0  0  0  0  0
    6.4206    3.5893    3.3845 N   0  3  0  0  0  0  0  0  0  0  0  0
    4.7626    1.9403    2.6301 C   0  0  1  0  0  0  0  0  0  0  0  0
    4.8884    2.3690    1.2601 O   0  0  0  0  0  0  0  0  0  0  0  0
    4.3746    0.4556    2.6667 C   0  0  2  0  0  0  0  0  0  0  0  0
    3.0774    0.2866    2.0640 O   0  0  0  0  0  0  0  0  0  0  0  0
    4.3164   -0.0713    4.0983 C   0  0  1  0  0  0  0  0  0  0  0  0
    4.0772   -1.4723    4.0788 O   0  0  0  0  0  0  0  0  0  0  0  0
  1  2  1  0  0  0  0
  3  2  1  1  0  0  0
  3  5  1  0  0  0  0
  3  4  1  0  0  0  0
  4  9  1  0  0  0  0
  5  7  1  0  0  0  0
  5  6  1  6  0  0  0
  7  9  1  0  0  0  0
  7  8  1  6  0  0  0
  9 40  1  1  0  0  0
 10  6  1  6  0  0  0
 10 11  1  0  0  0  0
 10 18  1  0  0  0  0
 11 13  1  0  0  0  0
 11 12  1  6  0  0  0
 13 15  1  0  0  0  0
 13 14  1  1  0  0  0
 15 17  1  0  0  0  0
 15 16  1  6  0  0  0
 17 19  1  6  0  0  0
 17 18  1  0  0  0  0
 19 20  1  0  0  0  0
 21 29  1  0  0  0  0
 22 23  1  0  0  0  0
 22 31  1  0  0  0  0
 22 38  1  6  0  0  0
 23 25  1  0  0  0  0
 23 24  1  1  0  0  0
 25 27  1  0  0  0  0
 25 26  1  6  0  0  0
 27 30  1  0  0  0  0
 27 28  1  6  0  0  0
 30 21  1  6  0  0  0
 30 31  1  0  0  0  0
 32 34  1  0  0  0  0
 32 41  1  0  0  0  0
 32 33  1  1  0  0  0
 34 35  1  0  0  0  0
 35 37  1  0  0  0  0
 35 36  1  1  0  0  0
 37 39  1  0  0  0  0
 37 38  1  6  0  0  0
 39 41  1  0  0  0  0
 39 40  1  1  0  0  0
 41 42  1  6  0  0  0
M  CHG  6  12   1  20   1  24   1  29   1  33   1  36   1
M  END
>  <CHROM.1>
-60.46697685,61.54735585,-110.07450932,-173.02447935,-173.21674398,-139.91811529
-128.50392530,-48.07500394,173.77507480,57.17885882,176.29387012,179.86513613
20.29056727,-87.53783341,-62.41372496,61.15996938,52.73977491,-172.67626588
-59.80413977,-89.93989942,118.77912046,177.05074957,1.80492535,0.41835076
1.22672577,2.74970482,0.44291076,2.22420285

>  <Name>
1NEM.B

>  <RI>
0

>  <Rbt.Current_Directory>
/home/itssahil/PROJECTS/Mol_Feturizer/New_Systems/rnas/1nem

>  <Rbt.Executable>
rbdock ($Id: //depot/dev/client3/rdock/2013.1/src/exe/rbdock.cxx#4 $)

>  <Rbt.Library>
libRbt.so (2013.1, Build901 2013/11/27)

>  <Rbt.Parameter_File>
/export/apps/rDock/src/rDock_2013.1_src/data/scripts/dock_solv.prm

>  <Rbt.Receptor>
prm/pocket_docking_7.prm

>  <SCORE>
-41.7703

>  <SCORE.INTER>
-46.1527

>  <SCORE.INTER.CONST>
1

>  <SCORE.INTER.POLAR>
-6.89286

>  <SCORE.INTER.ROT>
9

>  <SCORE.INTER.SOLV>
30.3284

>  <SCORE.INTER.VDW>
-27.5018

>  <SCORE.INTER.norm>
-1.09887

>  <SCORE.INTRA>
4.38247

>  <SCORE.INTRA.DIHEDRAL>
11.6963

>  <SCORE.INTRA.DIHEDRAL.0>
22.4324

>  <SCORE.INTRA.POLAR>
-0.45965

>  <SCORE.INTRA.POLAR.0>
-1.83749

>  <SCORE.INTRA.REPUL>
0

>  <SCORE.INTRA.REPUL.0>
0

>  <SCORE.INTRA.SOLV>
-3.17042

>  <SCORE.INTRA.SOLV.lig_0>
-160.638

>  <SCORE.INTRA.VDW>
1.68232

>  <SCORE.INTRA.VDW.0>
-7.61953

>  <SCORE.INTRA.norm>
0.104345

>  <SCORE.RESTR>
0

>  <SCORE.RESTR.CAVITY>
0

>  <SCORE.RESTR.norm>
0

>  <SCORE.SYSTEM>
0

>  <SCORE.SYSTEM.CONST>
0

>  <SCORE.SYSTEM.DIHEDRAL>
0

>  <SCORE.SYSTEM.SOLV>
0

>  <SCORE.SYSTEM.norm>
0

>  <SCORE.heavy>
42

>  <SCORE.norm>
-0.99453

>  <RMSD>
8.942

$$$$
1NEM.B
 OpenBabel11021811403D
libRbt.so/2013.1/901 2013/11/27
 42 45  0  0  0  0  0  0  0  0999 V2000
   -4.2392    3.3874   -0.7185 O   0  0  0  0  0  0  0  0  0  0  0  0
   -4.0429    2.3785    0.2743 C   0  0  0  0  0  0  0  0  0  0  0  0
   -3.6808    1.0177   -0.3189 C   0  0  1  0  0  0  0  0  0  0  0  0
   -2.4623    1.0965   -1.0528 O   0  0  0  0  0  0  0  0  0  0  0  0
   -3.3968   -0.0668    0.7081 C   0  0  1  0  0  0  0  0  0  0  0  0
   -4.6474   -0.4336    1.2952 O   0  0  0  0  0  0  0  0  0  0  0  0
   -2.7504   -1.0931   -0.2034 C   0  0  1  0  0  0  0  0  0  0  0  0
   -3.6925   -1.6858   -1.1036 O   0  0  0  0  0  0  0  0  0  0  0  0
   -1.7997   -0.1654   -0.9690 C   0  0  2  0  0  0  0  0  0  0  0  0
   -4.6339   -1.5588    2.1265 C   0  0  2  0  0  0  0  0  0  0  0  0
   -4.8244   -2.8204    1.2737 C   0  0  2  0  0  0  0  0  0  0  0  0
   -6.0418   -2.6876    0.4307 N   0  3  0  0  0  0  0  0  0  0  0  0
   -4.8806   -4.0718    2.1560 C   0  0  1  0  0  0  0  0  0  0  0  0
   -3.5922   -4.3335    2.6963 O   0  0  0  0  0  0  0  0  0  0  0  0
   -5.8903   -3.9002    3.2951 C   0  0  2  0  0  0  0  0  0  0  0  0
   -7.2152   -3.8658    2.7797 O   0  0  0  0  0  0  0  0  0  0  0  0
   -5.5933   -2.6101    4.0542 C   0  0  1  0  0  0  0  0  0  0  0  0
   -5.6243   -1.4934    3.1443 O   0  0  0  0  0  0  0  0  0  0  0  0
   -6.5827   -2.3315    5.1720 C   0  0  0  0  0  0  0  0  0  0  0  0
   -6.0659   -2.7672    6.4885 N   0  3  0  0  0  0  0  0  0  0  0  0
    2.8833    3.9919    1.0317 C   0  0  0  0  0  0  0  0  0  0  0  0
    0.7280    2.3787   -1.5138 C   0  0  2  0  0  0  0  0  0  0  0  0
    0.7798    3.4095   -2.6389 C   0  0  2  0  0  0  0  0  0  0  0  0
    0.3797    2.7874   -3.9236 N   0  3  0  0  0  0  0  0  0  0  0  0
    2.1882    3.9740   -2.7690 C   0  0  1  0  0  0  0  0  0  0  0  0
    2.2055    4.9855   -3.7645 O   0  0  0  0  0  0  0  0  0  0  0  0
    2.6337    4.5501   -1.4268 C   0  0  2  0  0  0  0  0  0  0  0  0
    3.9734    5.0168   -1.5215 O   0  0  0  0  0  0  0  0  0  0  0  0
    1.9512    5.0619    1.4551 N   0  3  0  0  0  0  0  0  0  0  0  0
    2.5398    3.4687   -0.3521 C   0  0  2  0  0  0  0  0  0  0  0  0
    1.1980    2.9438   -0.2928 O   0  0  0  0  0  0  0  0  0  0  0  0
    2.1696   -2.4325    0.1275 C   0  0  2  0  0  0  0  0  0  0  0  0
    2.4702   -3.3972    1.2102 N   0  3  0  0  0  0  0  0  0  0  0  0
    3.3228   -1.4474   -0.0277 C   0  0  0  0  0  0  0  0  0  0  0  0
    3.0264   -0.4475   -1.1366 C   0  0  2  0  0  0  0  0  0  0  0  0
    4.1614    0.4594   -1.2343 N   0  3  0  0  0  0  0  0  0  0  0  0
    1.7446    0.3171   -0.8148 C   0  0  1  0  0  0  0  0  0  0  0  0
    1.4560    1.2410   -1.8822 O   0  0  0  0  0  0  0  0  0  0  0  0
    0.5636   -0.6482   -0.6421 C   0  0  2  0  0  0  0  0  0  0  0  0
   -0.6032    0.0931   -0.2377 O   0  0  0  0  0  0  0  0  0  0  0  0
    0.8574   -1.7061    0.4186 C   0  0  1  0  0  0  0  0  0  0  0  0
   -0.2066   -2.6479    0.4569 O   0  0  0  0  0  0  0  0  0  0  0  0
  1  2  1  0  0  0  0
  3  2  1  1  0  0  0
  3  5  1  0  0  0  0
  3  4  1  0  0  0  0
  4  9  1  0  0  0  0
  5  7  1  0  0  0  0
  5  6  1  6  0  0  0
  7  9  1  0  0  0  0
  7  8  1  6  0  0  0
  9 40  1  1  0  0  0
 10  6  1  6  0  0  0
 10 11  1  0  0  0  0
 10 18  1  0  0  0  0
 11 13  1  0  0  0  0
 11 12  1  1  0  0  0
 13 15  1  0  0  0  0
 13 14  1  1  0  0  0
 15 17  1  0  0  0  0
 15 16  1  6  0  0  0
 17 19  1  1  0  0  0
 17 18  1  0  0  0  0
 19 20  1  0  0  0  0
 21 29  1  0  0  0  0
 22 23  1  0  0  0  0
 22 31  1  0  0  0  0
 22 38  1  6  0  0  0
 23 25  1  0  0  0  0
 23 24  1  6  0  0  0
 25 27  1  0  0  0  0
 25 26  1  6  0  0  0
 27 30  1  0  0  0  0
 27 28  1  6  0  0  0
 30 21  1  1  0  0  0
 30 31  1  0  0  0  0
 32 34  1  0  0  0  0
 32 41  1  0  0  0  0
 32 33  1  1  0  0  0
 34 35  1  0  0  0  0
 35 37  1  0  0  0  0
 35 36  1  1  0  0  0
 37 39  1  0  0  0  0
 37 38  1  6  0  0  0
 39 41  1  0  0  0  0
 39 40  1  1  0  0  0
 41 42  1  6  0  0  0
M  CHG  6  12   1  20   1  24   1  29   1  33   1  36   1
M  END
>  <CHROM.1>
62.04836266,60.95570422,170.82947930,-86.31274051,50.76368547,-143.88472660
153.30758836,64.82307305,-169.06640406,97.70992930,65.48052572,61.31592162
173.18416785,166.66528724,-56.83561678,-67.12186712,74.85241628,-138.80535514
-6.66315205,-152.59154926,131.01769534,-61.58796540,-1.23903627,0.10802026
0.28644759,2.42649906,-0.22034444,2.73511339

>  <Name>
1NEM.B

>  <RI>
0

>  <Rbt.Current_Directory>
/home/itssahil/PROJECTS/Mol_Feturizer/New_Systems/rnas/1nem

>  <Rbt.Executable>
rbdock ($Id: //depot/dev/client3/rdock/2013.1/src/exe/rbdock.cxx#4 $)

>  <Rbt.Library>
libRbt.so (2013.1, Build901 2013/11/27)

>  <Rbt.Parameter_File>
/export/apps/rDock/src/rDock_2013.1_src/data/scripts/dock_solv.prm

>  <Rbt.Receptor>
prm/pocket_docking_6.prm

>  <SCORE>
-34.8137

>  <SCORE.INTER>
-45.7052

>  <SCORE.INTER.CONST>
1

>  <SCORE.INTER.POLAR>
-7.74056

>  <SCORE.INTER.ROT>
9

>  <SCORE.INTER.SOLV>
29.1577

>  <SCORE.INTER.VDW>
-23.9875

>  <SCORE.INTER.norm>
-1.08822

>  <SCORE.INTRA>
10.8914

>  <SCORE.INTRA.DIHEDRAL>
10.976

>  <SCORE.INTRA.DIHEDRAL.0>
22.4324

>  <SCORE.INTRA.POLAR>
0.858042

>  <SCORE.INTRA.POLAR.0>
-1.83749

>  <SCORE.INTRA.REPUL>
0

>  <SCORE.INTRA.REPUL.0>
0

>  <SCORE.INTRA.SOLV>
-5.09922

>  <SCORE.INTRA.SOLV.lig_0>
-160.638

>  <SCORE.INTRA.VDW>
5.03571

>  <SCORE.INTRA.VDW.0>
-7.61953

>  <SCORE.INTRA.norm>
0.25932

>  <SCORE.RESTR>
0

>  <SCORE.RESTR.CAVITY>
0

>  <SCORE.RESTR.norm>
0

>  <SCORE.SYSTEM>
0

>  <SCORE.SYSTEM.CONST>
0

>  <SCORE.SYSTEM.DIHEDRAL>
0

>  <SCORE.SYSTEM.SOLV>
0

>  <SCORE.SYSTEM.norm>
0

>  <SCORE.heavy>
42

>  <SCORE.norm>
-0.828899

>  <RMSD>
8.944

$$$$
1NEM.B
 OpenBabel11021811403D
libRbt.so/2013.1/901 2013/11/27
 42 45  0  0  0  0  0  0  0  0999 V2000
   -4.8712   -5.2621    5.5723 O   0  0  0  0  0  0  0  0  0  0  0  0
   -4.5001   -3.9915    6.1109 C   0  0  0  0  0  0  0  0  0  0  0  0
   -4.9907   -2.8170    5.2657 C   0  0  1  0  0  0  0  0  0  0  0  0
   -4.0282   -1.7667    5.2560 O   0  0  0  0  0  0  0  0  0  0  0  0
   -5.1753   -3.1309    3.7896 C   0  0  1  0  0  0  0  0  0  0  0  0
   -6.3361   -3.9569    3.6729 O   0  0  0  0  0  0  0  0  0  0  0  0
   -5.2967   -1.7146    3.2592 C   0  0  1  0  0  0  0  0  0  0  0  0
   -6.5250   -1.0937    3.6528 O   0  0  0  0  0  0  0  0  0  0  0  0
   -4.1196   -1.0789    4.0083 C   0  0  2  0  0  0  0  0  0  0  0  0
   -6.5786   -4.5079    2.4100 C   0  0  2  0  0  0  0  0  0  0  0  0
   -6.7102   -3.3767    1.3812 C   0  0  2  0  0  0  0  0  0  0  0  0
   -7.7278   -2.3916    1.8332 N   0  3  0  0  0  0  0  0  0  0  0  0
   -7.0416   -3.9369   -0.0058 C   0  0  1  0  0  0  0  0  0  0  0  0
   -5.9076   -4.6147   -0.5306 O   0  0  0  0  0  0  0  0  0  0  0  0
   -8.2319   -4.8989    0.0564 C   0  0  2  0  0  0  0  0  0  0  0  0
   -9.4258   -4.1885    0.3598 O   0  0  0  0  0  0  0  0  0  0  0  0
   -7.9758   -5.9644    1.1185 C   0  0  1  0  0  0  0  0  0  0  0  0
   -7.7361   -5.3331    2.3913 O   0  0  0  0  0  0  0  0  0  0  0  0
   -9.1331   -6.9332    1.2865 C   0  0  0  0  0  0  0  0  0  0  0  0
  -10.3366   -6.2668    1.8317 N   0  3  0  0  0  0  0  0  0  0  0  0
    1.3637   -0.5869    1.2048 C   0  0  0  0  0  0  0  0  0  0  0  0
   -0.8685   -3.4830    0.6073 C   0  0  2  0  0  0  0  0  0  0  0  0
    0.0671   -4.6463    0.9275 C   0  0  2  0  0  0  0  0  0  0  0  0
   -0.7166   -5.8733    1.2065 N   0  3  0  0  0  0  0  0  0  0  0  0
    0.9265   -4.3104    2.1389 C   0  0  1  0  0  0  0  0  0  0  0  0
    1.8444   -5.3661    2.3788 O   0  0  0  0  0  0  0  0  0  0  0  0
    1.6798   -3.0066    1.8853 C   0  0  2  0  0  0  0  0  0  0  0  0
    2.4311   -2.6497    3.0385 O   0  0  0  0  0  0  0  0  0  0  0  0
    2.3737   -0.2093    2.2198 N   0  3  0  0  0  0  0  0  0  0  0  0
    0.6820   -1.8975    1.5572 C   0  0  2  0  0  0  0  0  0  0  0  0
   -0.1287   -2.2783    0.4270 O   0  0  0  0  0  0  0  0  0  0  0  0
   -4.1665   -0.2011    0.0004 C   0  0  2  0  0  0  0  0  0  0  0  0
   -5.3423    0.6229   -0.3629 N   0  3  0  0  0  0  0  0  0  0  0  0
   -4.2955   -1.5914   -0.6114 C   0  0  0  0  0  0  0  0  0  0  0  0
   -3.0940   -2.4510   -0.2441 C   0  0  2  0  0  0  0  0  0  0  0  0
   -3.2771   -3.7588   -0.8575 N   0  3  0  0  0  0  0  0  0  0  0  0
   -2.9890   -2.5715    1.2744 C   0  0  1  0  0  0  0  0  0  0  0  0
   -1.8336   -3.3627    1.6143 O   0  0  0  0  0  0  0  0  0  0  0  0
   -2.8676   -1.1858    1.9235 C   0  0  2  0  0  0  0  0  0  0  0  0
   -2.8760   -1.3281    3.3568 O   0  0  0  0  0  0  0  0  0  0  0  0
   -4.0256   -0.2766    1.5199 C   0  0  1  0  0  0  0  0  0  0  0  0
   -3.8081    1.0281    2.0406 O   0  0  0  0  0  0  0  0  0  0  0  0
  1  2  1  0  0  0  0
  3  2  1  1  0  0  0
  3  5  1  0  0  0  0
  3  4  1  0  0  0  0
  4  9  1  0  0  0  0
  5  7  1  0  0  0  0
  5  6  1  1  0  0  0
  7  9  1  0  0  0  0
  7  8  1  1  0  0  0
  9 40  1  6  0  0  0
 10  6  1  1  0  0  0
 10 11  1  0  0  0  0
 10 18  1  0  0  0  0
 11 13  1  0  0  0  0
 11 12  1  1  0  0  0
 13 15  1  0  0  0  0
 13 14  1  1  0  0  0
 15 17  1  0  0  0  0
 15 16  1  1  0  0  0
 17 19  1  1  0  0  0
 17 18  1  0  0  0  0
 19 20  1  0  0  0  0
 21 29  1  0  0  0  0
 22 23  1  0  0  0  0
 22 31  1  0  0  0  0
 22 38  1  1  0  0  0
 23 25  1  0  0  0  0
 23 24  1  1  0  0  0
 25 27  1  0  0  0  0
 25 26  1  6  0  0  0
 27 30  1  0  0  0  0
 27 28  1  1  0  0  0
 30 21  1  6  0  0  0
 30 31  1  0  0  0  0
 32 34  1  0  0  0  0
 32 41  1  0  0  0  0
 32 33  1  1  0  0  0
 34 35  1  0  0  0  0
 35 37  1  0  0  0  0
 35 36  1  6  0  0  0
 37 39  1  0  0  0  0
 37 38  1  6  0  0  0
 39 41  1  0  0  0  0
 39 40  1  1  0  0  0
 41 42  1  6  0  0  0
M  CHG  6  12   1  20   1  24   1  29   1  33   1  36   1
M  END
>  <CHROM.1>
-40.56118164,-143.28183623,-171.66339779,-58.11350082,92.89904015,157.84441967
169.06200380,-154.91985700,64.27654090,-66.36941790,128.86258582,-50.34121123
174.54899614,-163.31632411,-152.55116988,-161.19258135,72.80998272,37.24149940
-48.09876184,19.06694922,-99.21642980,87.56205136,-3.86136251,-3.01923090
1.91592434,-2.91672709,-0.02895969,-0.06511530

>  <Name>
1NEM.B

>  <RI>
0

>  <Rbt.Current_Directory>
/home/itssahil/PROJECTS/Mol_Feturizer/New_Systems/rnas/1nem

>  <Rbt.Executable>
rbdock ($Id: //depot/dev/client3/rdock/2013.1/src/exe/rbdock.cxx#4 $)

>  <Rbt.Library>
libRbt.so (2013.1, Build901 2013/11/27)

>  <Rbt.Parameter_File>
/export/apps/rDock/src/rDock_2013.1_src/data/scripts/dock_solv.prm

>  <Rbt.Receptor>
prm/blind_docking_100.prm

>  <SCORE>
-41.8409

>  <SCORE.INTER>
-64.1692

>  <SCORE.INTER.CONST>
1

>  <SCORE.INTER.POLAR>
-9.30742

>  <SCORE.INTER.ROT>
9

>  <SCORE.INTER.SOLV>
54.8762

>  <SCORE.INTER.VDW>
-39.6468

>  <SCORE.INTER.norm>
-1.52784

>  <SCORE.INTRA>
22.3283

>  <SCORE.INTRA.DIHEDRAL>
17.5732

>  <SCORE.INTRA.DIHEDRAL.0>
22.4324

>  <SCORE.INTRA.POLAR>
-2.21487

>  <SCORE.INTRA.POLAR.0>
-1.83749

>  <SCORE.INTRA.REPUL>
0

>  <SCORE.INTRA.REPUL.0>
0

>  <SCORE.INTRA.SOLV>
9.78012

>  <SCORE.INTRA.SOLV.lig_0>
-160.638

>  <SCORE.INTRA.VDW>
16.1822

>  <SCORE.INTRA.VDW.0>
-7.61953

>  <SCORE.INTRA.norm>
0.531626

>  <SCORE.RESTR>
0

>  <SCORE.RESTR.CAVITY>
0

>  <SCORE.RESTR.norm>
0

>  <SCORE.SYSTEM>
0

>  <SCORE.SYSTEM.CONST>
0

>  <SCORE.SYSTEM.DIHEDRAL>
0

>  <SCORE.SYSTEM.SOLV>
0

>  <SCORE.SYSTEM.norm>
0

>  <SCORE.heavy>
42

>  <SCORE.norm>
-0.996212

>  <RMSD>
8.953

$$$$
1NEM.B
 OpenBabel11021811403D
libRbt.so/2013.1/901 2013/11/27
 42 45  0  0  0  0  0  0  0  0999 V2000
   -5.0583   -5.0786    5.5699 O   0  0  0  0  0  0  0  0  0  0  0  0
   -4.3039   -3.8661    5.6235 C   0  0  0  0  0  0  0  0  0  0  0  0
   -4.9288   -2.7360    4.8067 C   0  0  1  0  0  0  0  0  0  0  0  0
   -3.9875   -1.6879    4.5947 O   0  0  0  0  0  0  0  0  0  0  0  0
   -5.3379   -3.1247    3.3950 C   0  0  1  0  0  0  0  0  0  0  0  0
   -6.4964   -3.9553    3.5020 O   0  0  0  0  0  0  0  0  0  0  0  0
   -5.5511   -1.7373    2.8193 C   0  0  1  0  0  0  0  0  0  0  0  0
   -6.7081   -1.0967    3.3673 O   0  0  0  0  0  0  0  0  0  0  0  0
   -4.2769   -1.0645    3.3433 C   0  0  2  0  0  0  0  0  0  0  0  0
   -6.8492   -4.6752    2.3554 C   0  0  2  0  0  0  0  0  0  0  0  0
   -7.0076   -3.7046    1.1772 C   0  0  2  0  0  0  0  0  0  0  0  0
   -7.9506   -2.6133    1.5382 N   0  3  0  0  0  0  0  0  0  0  0  0
   -7.4580   -4.4476   -0.0847 C   0  0  1  0  0  0  0  0  0  0  0  0
   -6.3919   -5.2519   -0.5716 O   0  0  0  0  0  0  0  0  0  0  0  0
   -8.6786   -5.3287    0.1985 C   0  0  2  0  0  0  0  0  0  0  0  0
   -9.8187   -4.5220    0.4658 O   0  0  0  0  0  0  0  0  0  0  0  0
   -8.3911   -6.2357    1.3916 C   0  0  1  0  0  0  0  0  0  0  0  0
   -8.0372   -5.4349    2.5359 O   0  0  0  0  0  0  0  0  0  0  0  0
   -9.5716   -7.1094    1.7780 C   0  0  0  0  0  0  0  0  0  0  0  0
   -9.8430   -8.1516    0.7632 N   0  3  0  0  0  0  0  0  0  0  0  0
   -2.9133   -5.1565    1.1572 C   0  0  0  0  0  0  0  0  0  0  0  0
   -0.8920   -2.2382    2.2178 C   0  0  2  0  0  0  0  0  0  0  0  0
    0.4116   -2.9177    2.6301 C   0  0  2  0  0  0  0  0  0  0  0  0
    1.5193   -1.9327    2.6515 N   0  3  0  0  0  0  0  0  0  0  0  0
    0.7511   -4.0372    1.6552 C   0  0  1  0  0  0  0  0  0  0  0  0
    1.9216   -4.7104    2.0923 O   0  0  0  0  0  0  0  0  0  0  0  0
   -0.4183   -5.0158    1.5736 C   0  0  2  0  0  0  0  0  0  0  0  0
   -0.1375   -6.0264    0.6137 O   0  0  0  0  0  0  0  0  0  0  0  0
   -3.3947   -5.4430    2.5280 N   0  3  0  0  0  0  0  0  0  0  0  0
   -1.6854   -4.2628    1.1729 C   0  0  2  0  0  0  0  0  0  0  0  0
   -1.9432   -3.1939    2.1061 O   0  0  0  0  0  0  0  0  0  0  0  0
   -3.3565    1.7099    0.3259 C   0  0  2  0  0  0  0  0  0  0  0  0
   -4.5245    2.4777   -0.1639 N   0  3  0  0  0  0  0  0  0  0  0  0
   -2.5823    1.1306   -0.8527 C   0  0  0  0  0  0  0  0  0  0  0  0
   -1.3793    0.3363   -0.3637 C   0  0  2  0  0  0  0  0  0  0  0  0
   -0.6852   -0.1863   -1.5322 N   0  3  0  0  0  0  0  0  0  0  0  0
   -1.8437   -0.7983    0.5464 C   0  0  1  0  0  0  0  0  0  0  0  0
   -0.6977   -1.5275    1.0273 O   0  0  0  0  0  0  0  0  0  0  0  0
   -2.6366   -0.2487    1.7403 C   0  0  2  0  0  0  0  0  0  0  0  0
   -3.1476   -1.3469    2.5198 O   0  0  0  0  0  0  0  0  0  0  0  0
   -3.8133    0.6093    1.2820 C   0  0  1  0  0  0  0  0  0  0  0  0
   -4.4417    1.1961    2.4139 O   0  0  0  0  0  0  0  0  0  0  0  0
  1  2  1  0  0  0  0
  3  2  1  6  0  0  0
  3  5  1  0  0  0  0
  3  4  1  0  0  0  0
  4  9  1  0  0  0  0
  5  7  1  0  0  0  0
  5  6  1  1  0  0  0
  7  9  1  0  0  0  0
  7  8  1  1  0  0  0
  9 40  1  6  0  0  0
 10  6  1  1  0  0  0
 10 11  1  0  0  0  0
 10 18  1  0  0  0  0
 11 13  1  0  0  0  0
 11 12  1  1  0  0  0
 13 15  1  0  0  0  0
 13 14  1  1  0  0  0
 15 17  1  0  0  0  0
 15 16  1  1  0  0  0
 17 19  1  1  0  0  0
 17 18  1  0  0  0  0
 19 20  1  0  0  0  0
 21 29  1  0  0  0  0
 22 23  1  0  0  0  0
 22 31  1  0  0  0  0
 22 38  1  6  0  0  0
 23 25  1  0  0  0  0
 23 24  1  6  0  0  0
 25 27  1  0  0  0  0
 25 26  1  1  0  0  0
 27 30  1  0  0  0  0
 27 28  1  6  0  0  0
 30 21  1  1  0  0  0
 30 31  1  0  0  0  0
 32 34  1  0  0  0  0
 32 41  1  0  0  0  0
 32 33  1  6  0  0  0
 34 35  1  0  0  0  0
 35 37  1  0  0  0  0
 35 36  1  6  0  0  0
 37 39  1  0  0  0  0
 37 38  1  1  0  0  0
 39 41  1  0  0  0  0
 39 40  1  6  0  0  0
 41 42  1  1  0  0  0
M  CHG  6  12   1  20   1  24   1  29   1  33   1  36   1
M  END
>  <CHROM.1>
72.11817379,-164.40430765,-165.45958175,-54.88886312,65.64770240,-135.77227212
24.88513882,-44.30565206,57.20659281,69.43917644,160.18508821,75.90234884
-77.93887191,-178.02896014,-66.91971957,76.06981974,4.11162603,163.88497458
-25.55258031,156.91056158,-157.66641369,68.73369864,-4.12465994,-2.95889606
1.80805637,-2.66648059,-0.04109772,-0.18471284

>  <Name>
1NEM.B

>  <RI>
0

>  <Rbt.Current_Directory>
/home/itssahil/PROJECTS/Mol_Feturizer/New_Systems/rnas/1nem

>  <Rbt.Executable>
rbdock ($Id: //depot/dev/client3/rdock/2013.1/src/exe/rbdock.cxx#4 $)

>  <Rbt.Library>
libRbt.so (2013.1, Build901 2013/11/27)

>  <Rbt.Parameter_File>
/export/apps/rDock/src/rDock_2013.1_src/data/scripts/dock_solv.prm

>  <Rbt.Receptor>
prm/blind_docking_20.prm

>  <SCORE>
-37.9008

>  <SCORE.INTER>
-67.7257

>  <SCORE.INTER.CONST>
1

>  <SCORE.INTER.POLAR>
-11.0142

>  <SCORE.INTER.ROT>
9

>  <SCORE.INTER.SOLV>
52.0631

>  <SCORE.INTER.VDW>
-35.3909

>  <SCORE.INTER.norm>
-1.61252

>  <SCORE.INTRA>
27.5458

>  <SCORE.INTRA.DIHEDRAL>
9.55217

>  <SCORE.INTRA.DIHEDRAL.0>
22.4324

>  <SCORE.INTRA.POLAR>
0.941372

>  <SCORE.INTRA.POLAR.0>
-1.83749

>  <SCORE.INTRA.REPUL>
0.25623

>  <SCORE.INTRA.REPUL.0>
0

>  <SCORE.INTRA.SOLV>
3.52938

>  <SCORE.INTRA.SOLV.lig_0>
-160.638

>  <SCORE.INTRA.VDW>
16.5232

>  <SCORE.INTRA.VDW.0>
-7.61953

>  <SCORE.INTRA.norm>
0.655852

>  <SCORE.RESTR>
2.2791

>  <SCORE.RESTR.CAVITY>
2.2791

>  <SCORE.RESTR.norm>
0.0542643

>  <SCORE.SYSTEM>
0

>  <SCORE.SYSTEM.CONST>
0

>  <SCORE.SYSTEM.DIHEDRAL>
0

>  <SCORE.SYSTEM.SOLV>
0

>  <SCORE.SYSTEM.norm>
0

>  <SCORE.heavy>
42

>  <SCORE.norm>
-0.9024

>  <RMSD>
8.956

$$$$
1NEM.B
 OpenBabel11021811403D
libRbt.so/2013.1/901 2013/11/27
 42 45  0  0  0  0  0  0  0  0999 V2000
   -5.6422    0.4151    3.2366 O   0  0  0  0  0  0  0  0  0  0  0  0
   -5.1585   -0.9285    3.1827 C   0  0  0  0  0  0  0  0  0  0  0  0
   -4.6042   -1.3104    1.8110 C   0  0  1  0  0  0  0  0  0  0  0  0
   -3.5981   -0.3891    1.4002 O   0  0  0  0  0  0  0  0  0  0  0  0
   -3.8859   -2.6496    1.7674 C   0  0  1  0  0  0  0  0  0  0  0  0
   -4.8823   -3.6695    1.8687 O   0  0  0  0  0  0  0  0  0  0  0  0
   -3.1987   -2.5065    0.4223 C   0  0  1  0  0  0  0  0  0  0  0  0
   -4.1264   -2.5585   -0.6667 O   0  0  0  0  0  0  0  0  0  0  0  0
   -2.6537   -1.0826    0.5844 C   0  0  2  0  0  0  0  0  0  0  0  0
   -4.8824   -4.4187    3.0503 C   0  0  2  0  0  0  0  0  0  0  0  0
   -6.0273   -5.4396    3.0021 C   0  0  2  0  0  0  0  0  0  0  0  0
   -7.3115   -4.7524    2.7042 N   0  3  0  0  0  0  0  0  0  0  0  0
   -6.1019   -6.2374    4.3080 C   0  0  1  0  0  0  0  0  0  0  0  0
   -4.9905   -7.1196    4.3929 O   0  0  0  0  0  0  0  0  0  0  0  0
   -6.1133   -5.3068    5.5246 C   0  0  2  0  0  0  0  0  0  0  0  0
   -7.3327   -4.5770    5.5767 O   0  0  0  0  0  0  0  0  0  0  0  0
   -4.9327   -4.3431    5.4448 C   0  0  1  0  0  0  0  0  0  0  0  0
   -4.9927   -3.6034    4.2097 O   0  0  0  0  0  0  0  0  0  0  0  0
   -4.8964   -3.3442    6.5880 C   0  0  0  0  0  0  0  0  0  0  0  0
   -6.0238   -2.3879    6.5219 N   0  3  0  0  0  0  0  0  0  0  0  0
    1.6963    1.4750   -4.4792 C   0  0  0  0  0  0  0  0  0  0  0  0
    0.7566    1.2166   -0.9047 C   0  0  2  0  0  0  0  0  0  0  0  0
   -0.3721    2.2415   -0.8225 C   0  0  2  0  0  0  0  0  0  0  0  0
   -1.2065    1.9909    0.3769 N   0  3  0  0  0  0  0  0  0  0  0  0
   -1.2438    2.1630   -2.0687 C   0  0  1  0  0  0  0  0  0  0  0  0
   -2.2414    3.1713   -2.0161 O   0  0  0  0  0  0  0  0  0  0  0  0
   -0.3761    2.3468   -3.3117 C   0  0  2  0  0  0  0  0  0  0  0  0
   -1.1713    2.2059   -4.4820 O   0  0  0  0  0  0  0  0  0  0  0  0
    3.0948    1.6172   -4.0133 N   0  3  0  0  0  0  0  0  0  0  0  0
    0.7360    1.2998   -3.3157 C   0  0  2  0  0  0  0  0  0  0  0  0
    1.5093    1.3930   -2.1019 O   0  0  0  0  0  0  0  0  0  0  0  0
    1.4385   -3.4937    1.4132 C   0  0  2  0  0  0  0  0  0  0  0  0
    1.9737   -4.3281    2.5135 N   0  3  0  0  0  0  0  0  0  0  0  0
    2.5066   -2.5179    0.9324 C   0  0  0  0  0  0  0  0  0  0  0  0
    1.9694   -1.6514   -0.1980 C   0  0  2  0  0  0  0  0  0  0  0  0
    3.0332   -0.7470   -0.6109 N   0  3  0  0  0  0  0  0  0  0  0  0
    0.7481   -0.8716    0.2834 C   0  0  1  0  0  0  0  0  0  0  0  0
    0.2290   -0.0759   -0.8000 O   0  0  0  0  0  0  0  0  0  0  0  0
   -0.3446   -1.8262    0.7846 C   0  0  2  0  0  0  0  0  0  0  0  0
   -1.4364   -1.0590    1.3266 O   0  0  0  0  0  0  0  0  0  0  0  0
    0.1829   -2.7558    1.8747 C   0  0  1  0  0  0  0  0  0  0  0  0
   -0.8216   -3.7005    2.2195 O   0  0  0  0  0  0  0  0  0  0  0  0
  1  2  1  0  0  0  0
  3  2  1  1  0  0  0
  3  5  1  0  0  0  0
  3  4  1  0  0  0  0
  4  9  1  0  0  0  0
  5  7  1  0  0  0  0
  5  6  1  6  0  0  0
  7  9  1  0  0  0  0
  7  8  1  6  0  0  0
  9 40  1  1  0  0  0
 10  6  1  6  0  0  0
 10 11  1  0  0  0  0
 10 18  1  0  0  0  0
 11 13  1  0  0  0  0
 11 12  1  1  0  0  0
 13 15  1  0  0  0  0
 13 14  1  1  0  0  0
 15 17  1  0  0  0  0
 15 16  1  6  0  0  0
 17 19  1  1  0  0  0
 17 18  1  0  0  0  0
 19 20  1  0  0  0  0
 21 29  1  0  0  0  0
 22 23  1  0  0  0  0
 22 31  1  0  0  0  0
 22 38  1  6  0  0  0
 23 25  1  0  0  0  0
 23 24  1  1  0  0  0
 25 27  1  0  0  0  0
 25 26  1  1  0  0  0
 27 30  1  0  0  0  0
 27 28  1  6  0  0  0
 30 21  1  6  0  0  0
 30 31  1  0  0  0  0
 32 34  1  0  0  0  0
 32 41  1  0  0  0  0
 32 33  1  1  0  0  0
 34 35  1  0  0  0  0
 35 37  1  0  0  0  0
 35 36  1  1  0  0  0
 37 39  1  0  0  0  0
 37 38  1  6  0  0  0
 39 41  1  0  0  0  0
 39 40  1  1  0  0  0
 41 42  1  6  0  0  0
M  CHG  6  12   1  20   1  24   1  29   1  33   1  36   1
M  END
>  <CHROM.1>
-179.44250666,54.77294276,-111.65716049,178.78979853,60.07964477,173.46136865
-72.43481632,59.34227530,75.06680215,-67.50083752,34.41293214,123.98544273
-153.64393173,-122.09055993,-156.48864603,-74.83790781,-178.69643903,177.97590170
-61.49884201,-90.20788751,110.87163134,172.40491103,-2.18889482,-1.60303614
1.14152145,2.25362692,-0.26849620,2.46983762

>  <Name>
1NEM.B

>  <RI>
0

>  <Rbt.Current_Directory>
/home/itssahil/PROJECTS/Mol_Feturizer/New_Systems/rnas/1nem

>  <Rbt.Executable>
rbdock ($Id: //depot/dev/client3/rdock/2013.1/src/exe/rbdock.cxx#4 $)

>  <Rbt.Library>
libRbt.so (2013.1, Build901 2013/11/27)

>  <Rbt.Parameter_File>
/export/apps/rDock/src/rDock_2013.1_src/data/scripts/dock_solv.prm

>  <Rbt.Receptor>
prm/pocket_docking_4.prm

>  <SCORE>
-31.3456

>  <SCORE.INTER>
-38.001

>  <SCORE.INTER.CONST>
1

>  <SCORE.INTER.POLAR>
-4.55727

>  <SCORE.INTER.ROT>
9

>  <SCORE.INTER.SOLV>
33.6629

>  <SCORE.INTER.VDW>
-30.9641

>  <SCORE.INTER.norm>
-0.904785

>  <SCORE.INTRA>
6.44037

>  <SCORE.INTRA.DIHEDRAL>
14.8491

>  <SCORE.INTRA.DIHEDRAL.0>
22.4324

>  <SCORE.INTRA.POLAR>
-1.37629

>  <SCORE.INTRA.POLAR.0>
-1.83749

>  <SCORE.INTRA.REPUL>
0

>  <SCORE.INTRA.REPUL.0>
0

>  <SCORE.INTRA.SOLV>
1.64055

>  <SCORE.INTRA.SOLV.lig_0>
-160.638

>  <SCORE.INTRA.VDW>
2.87491

>  <SCORE.INTRA.VDW.0>
-7.61953

>  <SCORE.INTRA.norm>
0.153342

>  <SCORE.RESTR>
0.21502

>  <SCORE.RESTR.CAVITY>
0.21502

>  <SCORE.RESTR.norm>
0.00511953

>  <SCORE.SYSTEM>
0

>  <SCORE.SYSTEM.CONST>
0

>  <SCORE.SYSTEM.DIHEDRAL>
0

>  <SCORE.SYSTEM.SOLV>
0

>  <SCORE.SYSTEM.norm>
0

>  <SCORE.heavy>
42

>  <SCORE.norm>
-0.746324

>  <RMSD>
8.957

$$$$
1NEM.B
 OpenBabel11021811403D
libRbt.so/2013.1/901 2013/11/27
 42 45  0  0  0  0  0  0  0  0999 V2000
   -4.8385   -4.9833    5.7639 O   0  0  0  0  0  0  0  0  0  0  0  0
   -4.6337   -3.6642    6.2741 C   0  0  0  0  0  0  0  0  0  0  0  0
   -5.1305   -2.5727    5.3272 C   0  0  1  0  0  0  0  0  0  0  0  0
   -4.1812   -1.5143    5.2366 O   0  0  0  0  0  0  0  0  0  0  0  0
   -5.2961   -3.0138    3.8817 C   0  0  1  0  0  0  0  0  0  0  0  0
   -6.4452   -3.8622    3.8256 O   0  0  0  0  0  0  0  0  0  0  0  0
   -5.4300   -1.6497    3.2313 C   0  0  1  0  0  0  0  0  0  0  0  0
   -6.6699   -1.0139    3.5593 O   0  0  0  0  0  0  0  0  0  0  0  0
   -4.2687   -0.9366    3.9339 C   0  0  2  0  0  0  0  0  0  0  0  0
   -6.6336   -4.5701    2.6336 C   0  0  2  0  0  0  0  0  0  0  0  0
   -6.6988   -3.5805    1.4623 C   0  0  2  0  0  0  0  0  0  0  0  0
   -7.7232   -2.5374    1.7320 N   0  3  0  0  0  0  0  0  0  0  0  0
   -6.9700   -4.3129    0.1442 C   0  0  1  0  0  0  0  0  0  0  0  0
   -5.8215   -5.0616   -0.2313 O   0  0  0  0  0  0  0  0  0  0  0  0
   -8.1755   -5.2495    0.2699 C   0  0  2  0  0  0  0  0  0  0  0  0
   -9.3726   -4.4966    0.4190 O   0  0  0  0  0  0  0  0  0  0  0  0
   -7.9866   -6.1706    1.4720 C   0  0  1  0  0  0  0  0  0  0  0  0
   -7.8004   -5.3818    2.6632 O   0  0  0  0  0  0  0  0  0  0  0  0
   -9.1643   -7.1005    1.7050 C   0  0  0  0  0  0  0  0  0  0  0  0
  -10.3791   -6.3614    2.1148 N   0  3  0  0  0  0  0  0  0  0  0  0
    1.2737   -0.3741    1.1103 C   0  0  0  0  0  0  0  0  0  0  0  0
   -0.8738   -3.3517    0.6112 C   0  0  2  0  0  0  0  0  0  0  0  0
    0.0892   -4.4752    0.9874 C   0  0  2  0  0  0  0  0  0  0  0  0
   -0.6642   -5.7106    1.3092 N   0  3  0  0  0  0  0  0  0  0  0  0
    0.9267   -4.0671    2.1920 C   0  0  1  0  0  0  0  0  0  0  0  0
    1.8701   -5.0868    2.4834 O   0  0  0  0  0  0  0  0  0  0  0  0
    1.6475   -2.7546    1.8923 C   0  0  2  0  0  0  0  0  0  0  0  0
    2.3770   -2.3309    3.0367 O   0  0  0  0  0  0  0  0  0  0  0  0
    0.6958    0.1589   -0.1446 N   0  3  0  0  0  0  0  0  0  0  0  0
    0.6238   -1.6874    1.5098 C   0  0  2  0  0  0  0  0  0  0  0  0
   -0.1647   -2.1357    0.3887 O   0  0  0  0  0  0  0  0  0  0  0  0
   -4.2176   -0.1150   -0.0777 C   0  0  2  0  0  0  0  0  0  0  0  0
   -5.4033    0.6765   -0.4790 N   0  3  0  0  0  0  0  0  0  0  0  0
   -4.2838   -1.5049   -0.7005 C   0  0  0  0  0  0  0  0  0  0  0  0
   -3.0715   -2.3312   -0.2945 C   0  0  2  0  0  0  0  0  0  0  0  0
   -3.1940   -3.6401   -0.9204 N   0  3  0  0  0  0  0  0  0  0  0  0
   -3.0174   -2.4576    1.2262 C   0  0  1  0  0  0  0  0  0  0  0  0
   -1.8522   -3.2167    1.6035 O   0  0  0  0  0  0  0  0  0  0  0  0
   -2.9600   -1.0729    1.8860 C   0  0  2  0  0  0  0  0  0  0  0  0
   -3.0155   -1.2238    3.3173 O   0  0  0  0  0  0  0  0  0  0  0  0
   -4.1290   -0.1954    1.4454 C   0  0  1  0  0  0  0  0  0  0  0  0
   -3.9687    1.1119    1.9799 O   0  0  0  0  0  0  0  0  0  0  0  0
  1  2  1  0  0  0  0
  3  2  1  1  0  0  0
  3  5  1  0  0  0  0
  3  4  1  0  0  0  0
  4  9  1  0  0  0  0
  5  7  1  0  0  0  0
  5  6  1  1  0  0  0
  7  9  1  0  0  0  0
  7  8  1  1  0  0  0
  9 40  1  6  0  0  0
 10  6  1  1  0  0  0
 10 11  1  0  0  0  0
 10 18  1  0  0  0  0
 11 13  1  0  0  0  0
 11 12  1  1  0  0  0
 13 15  1  0  0  0  0
 13 14  1  1  0  0  0
 15 17  1  0  0  0  0
 15 16  1  1  0  0  0
 17 19  1  1  0  0  0
 17 18  1  0  0  0  0
 19 20  1  0  0  0  0
 21 29  1  0  0  0  0
 22 23  1  0  0  0  0
 22 31  1  0  0  0  0
 22 38  1  1  0  0  0
 23 25  1  0  0  0  0
 23 24  1  1  0  0  0
 25 27  1  0  0  0  0
 25 26  1  6  0  0  0
 27 30  1  0  0  0  0
 27 28  1  1  0  0  0
 30 21  1  6  0  0  0
 30 31  1  0  0  0  0
 32 34  1  0  0  0  0
 32 41  1  0  0  0  0
 32 33  1  1  0  0  0
 34 35  1  0  0  0  0
 35 37  1  0  0  0  0
 35 36  1  6  0  0  0
 37 39  1  0  0  0  0
 37 38  1  6  0  0  0
 39 41  1  0  0  0  0
 39 40  1  1  0  0  0
 41 42  1  1  0  0  0
M  CHG  6  12   1  20   1  24   1  29   1  33   1  36   1
M  END
>  <CHROM.1>
-47.02101714,-136.09635997,-168.79629838,-56.74836562,94.63442169,163.87911644
-77.25784941,61.37482498,72.12858998,-67.06589186,70.17119069,132.87039864
111.92869161,-164.05517948,-35.51040837,-65.77648823,71.39221211,46.84854154
-36.60360812,16.41702120,-102.85147240,71.13331998,-3.94903983,-2.95423410
1.90096839,-2.85799260,-0.02137111,-0.29361879

>  <Name>
1NEM.B

>  <RI>
0

>  <Rbt.Current_Directory>
/home/itssahil/PROJECTS/Mol_Feturizer/New_Systems/rnas/1nem

>  <Rbt.Executable>
rbdock ($Id: //depot/dev/client3/rdock/2013.1/src/exe/rbdock.cxx#4 $)

>  <Rbt.Library>
libRbt.so (2013.1, Build901 2013/11/27)

>  <Rbt.Parameter_File>
/export/apps/rDock/src/rDock_2013.1_src/data/scripts/dock_solv.prm

>  <Rbt.Receptor>
prm/blind_docking_20.prm

>  <SCORE>
-37.8875

>  <SCORE.INTER>
-60.9586

>  <SCORE.INTER.CONST>
1

>  <SCORE.INTER.POLAR>
-9.00633

>  <SCORE.INTER.ROT>
9

>  <SCORE.INTER.SOLV>
53.2639

>  <SCORE.INTER.VDW>
-37.9726

>  <SCORE.INTER.norm>
-1.4514

>  <SCORE.INTRA>
21.6581

>  <SCORE.INTRA.DIHEDRAL>
16.6555

>  <SCORE.INTRA.DIHEDRAL.0>
22.4324

>  <SCORE.INTRA.POLAR>
-2.04983

>  <SCORE.INTRA.POLAR.0>
-1.83749

>  <SCORE.INTRA.REPUL>
0

>  <SCORE.INTRA.REPUL.0>
0

>  <SCORE.INTRA.SOLV>
6.93087

>  <SCORE.INTRA.SOLV.lig_0>
-160.638

>  <SCORE.INTRA.VDW>
16.8343

>  <SCORE.INTRA.VDW.0>
-7.61953

>  <SCORE.INTRA.norm>
0.515668

>  <SCORE.RESTR>
1.41305

>  <SCORE.RESTR.CAVITY>
1.41305

>  <SCORE.RESTR.norm>
0.0336439

>  <SCORE.SYSTEM>
0

>  <SCORE.SYSTEM.CONST>
0

>  <SCORE.SYSTEM.DIHEDRAL>
0

>  <SCORE.SYSTEM.SOLV>
0

>  <SCORE.SYSTEM.norm>
0

>  <SCORE.heavy>
42

>  <SCORE.norm>
-0.902084

>  <RMSD>
8.976

$$$$
1NEM.B
 OpenBabel11021811403D
libRbt.so/2013.1/901 2013/11/27
 42 45  0  0  0  0  0  0  0  0999 V2000
   -4.4814   -2.5370    5.3510 O   0  0  0  0  0  0  0  0  0  0  0  0
   -4.0654   -1.9072    4.1375 C   0  0  0  0  0  0  0  0  0  0  0  0
   -5.2220   -1.2751    3.3645 C   0  0  1  0  0  0  0  0  0  0  0  0
   -4.7749   -0.1406    2.6279 O   0  0  0  0  0  0  0  0  0  0  0  0
   -5.8307   -2.1656    2.2931 C   0  0  1  0  0  0  0  0  0  0  0  0
   -6.5746   -3.1868    2.9617 O   0  0  0  0  0  0  0  0  0  0  0  0
   -6.6375   -1.1202    1.5460 C   0  0  1  0  0  0  0  0  0  0  0  0
   -7.7566   -0.6551    2.3078 O   0  0  0  0  0  0  0  0  0  0  0  0
   -5.5716   -0.0224    1.4489 C   0  0  2  0  0  0  0  0  0  0  0  0
   -6.8055   -4.3599    2.2353 C   0  0  2  0  0  0  0  0  0  0  0  0
   -7.5407   -4.0127    0.9337 C   0  0  2  0  0  0  0  0  0  0  0  0
   -8.7617   -3.2191    1.2333 N   0  3  0  0  0  0  0  0  0  0  0  0
   -7.8705   -5.2803    0.1387 C   0  0  1  0  0  0  0  0  0  0  0  0
   -6.6750   -5.8336   -0.3954 O   0  0  0  0  0  0  0  0  0  0  0  0
   -8.5687   -6.3200    1.0206 C   0  0  2  0  0  0  0  0  0  0  0  0
   -9.8701   -5.8712    1.3772 O   0  0  0  0  0  0  0  0  0  0  0  0
   -7.7400   -6.5660    2.2783 C   0  0  1  0  0  0  0  0  0  0  0  0
   -7.5408   -5.3229    2.9790 O   0  0  0  0  0  0  0  0  0  0  0  0
   -8.3871   -7.5474    3.2396 C   0  0  0  0  0  0  0  0  0  0  0  0
   -8.7955   -8.7974    2.5611 N   0  3  0  0  0  0  0  0  0  0  0  0
    1.0783   -3.5058    2.7678 C   0  0  0  0  0  0  0  0  0  0  0  0
   -1.5646   -2.5546    0.3516 C   0  0  2  0  0  0  0  0  0  0  0  0
   -2.5807   -3.6726    0.5719 C   0  0  2  0  0  0  0  0  0  0  0  0
   -3.9116   -3.2641    0.0629 N   0  3  0  0  0  0  0  0  0  0  0  0
   -2.6869   -4.0003    2.0553 C   0  0  1  0  0  0  0  0  0  0  0  0
   -3.5753   -5.0919    2.2392 O   0  0  0  0  0  0  0  0  0  0  0  0
   -1.3045   -4.3501    2.6016 C   0  0  2  0  0  0  0  0  0  0  0  0
   -1.3837   -4.5900    4.0008 O   0  0  0  0  0  0  0  0  0  0  0  0
    1.6188   -4.6879    2.0582 N   0  3  0  0  0  0  0  0  0  0  0  0
   -0.3427   -3.1948    2.3308 C   0  0  2  0  0  0  0  0  0  0  0  0
   -0.3043   -2.9019    0.9193 O   0  0  0  0  0  0  0  0  0  0  0  0
   -2.4152    2.5509   -0.7620 C   0  0  2  0  0  0  0  0  0  0  0  0
   -2.6348    3.6421   -1.7390 N   0  3  0  0  0  0  0  0  0  0  0  0
   -1.2580    1.6690   -1.2173 C   0  0  0  0  0  0  0  0  0  0  0  0
   -1.0221    0.5408   -0.2229 C   0  0  2  0  0  0  0  0  0  0  0  0
    0.0912   -0.2598   -0.7127 N   0  3  0  0  0  0  0  0  0  0  0  0
   -2.2858   -0.3062   -0.0920 C   0  0  1  0  0  0  0  0  0  0  0  0
   -2.0635   -1.3543    0.8715 O   0  0  0  0  0  0  0  0  0  0  0  0
   -3.4746    0.5553    0.3562 C   0  0  2  0  0  0  0  0  0  0  0  0
   -4.6690   -0.2496    0.3687 O   0  0  0  0  0  0  0  0  0  0  0  0
   -3.6955    1.7359   -0.5861 C   0  0  1  0  0  0  0  0  0  0  0  0
   -4.7212    2.5719   -0.0669 O   0  0  0  0  0  0  0  0  0  0  0  0
  1  2  1  0  0  0  0
  3  2  1  6  0  0  0
  3  5  1  0  0  0  0
  3  4  1  0  0  0  0
  4  9  1  0  0  0  0
  5  7  1  0  0  0  0
  5  6  1  1  0  0  0
  7  9  1  0  0  0  0
  7  8  1  1  0  0  0
  9 40  1  6  0  0  0
 10  6  1  1  0  0  0
 10 11  1  0  0  0  0
 10 18  1  0  0  0  0
 11 13  1  0  0  0  0
 11 12  1  1  0  0  0
 13 15  1  0  0  0  0
 13 14  1  1  0  0  0
 15 17  1  0  0  0  0
 15 16  1  1  0  0  0
 17 19  1  1  0  0  0
 17 18  1  0  0  0  0
 19 20  1  0  0  0  0
 21 29  1  0  0  0  0
 22 23  1  0  0  0  0
 22 31  1  0  0  0  0
 22 38  1  1  0  0  0
 23 25  1  0  0  0  0
 23 24  1  1  0  0  0
 25 27  1  0  0  0  0
 25 26  1  6  0  0  0
 27 30  1  0  0  0  0
 27 28  1  1  0  0  0
 30 21  1  6  0  0  0
 30 31  1  0  0  0  0
 32 34  1  0  0  0  0
 32 41  1  0  0  0  0
 32 33  1  6  0  0  0
 34 35  1  0  0  0  0
 35 37  1  0  0  0  0
 35 36  1  6  0  0  0
 37 39  1  0  0  0  0
 37 38  1  1  0  0  0
 39 41  1  0  0  0  0
 39 40  1  6  0  0  0
 41 42  1  1  0  0  0
M  CHG  6  12   1  20   1  24   1  29   1  33   1  36   1
M  END
>  <CHROM.1>
-138.93918101,149.67406242,-157.59343300,-57.51189011,61.15639771,-52.77827463
177.13789435,169.80886794,68.94937096,50.79534128,59.95791924,59.99653986
49.97576112,-116.66689250,-165.29279476,155.15152166,-109.15738178,-171.31681484
71.72845385,-90.36810607,140.64409945,82.12527421,-4.36731389,-2.57168938
1.43594570,-2.35440533,-0.05002568,-0.35526008

>  <Name>
1NEM.B

>  <RI>
0

>  <Rbt.Current_Directory>
/home/itssahil/PROJECTS/Mol_Feturizer/New_Systems/rnas/1nem

>  <Rbt.Executable>
rbdock ($Id: //depot/dev/client3/rdock/2013.1/src/exe/rbdock.cxx#4 $)

>  <Rbt.Library>
libRbt.so (2013.1, Build901 2013/11/27)

>  <Rbt.Parameter_File>
/export/apps/rDock/src/rDock_2013.1_src/data/scripts/dock_solv.prm

>  <Rbt.Receptor>
prm/blind_docking_40.prm

>  <SCORE>
-27.2737

>  <SCORE.INTER>
-43.5177

>  <SCORE.INTER.CONST>
1

>  <SCORE.INTER.POLAR>
-7.17458

>  <SCORE.INTER.ROT>
9

>  <SCORE.INTER.SOLV>
43.9123

>  <SCORE.INTER.VDW>
-29.3339

>  <SCORE.INTER.norm>
-1.03613

>  <SCORE.INTRA>
9.52849

>  <SCORE.INTRA.DIHEDRAL>
18.9677

>  <SCORE.INTRA.DIHEDRAL.0>
22.4324

>  <SCORE.INTRA.POLAR>
-1.72766

>  <SCORE.INTRA.POLAR.0>
-1.83749

>  <SCORE.INTRA.REPUL>
0.140052

>  <SCORE.INTRA.REPUL.0>
0

>  <SCORE.INTRA.SOLV>
5.78619

>  <SCORE.INTRA.SOLV.lig_0>
-160.638

>  <SCORE.INTRA.VDW>
2.32533

>  <SCORE.INTRA.VDW.0>
-7.61953

>  <SCORE.INTRA.norm>
0.226869

>  <SCORE.RESTR>
6.7155

>  <SCORE.RESTR.CAVITY>
6.7155

>  <SCORE.RESTR.norm>
0.159893

>  <SCORE.SYSTEM>
0

>  <SCORE.SYSTEM.CONST>
0

>  <SCORE.SYSTEM.DIHEDRAL>
0

>  <SCORE.SYSTEM.SOLV>
0

>  <SCORE.SYSTEM.norm>
0

>  <SCORE.heavy>
42

>  <SCORE.norm>
-0.649373

>  <RMSD>
8.977

$$$$
1NEM.B
 OpenBabel11021811403D
libRbt.so/2013.1/901 2013/11/27
 42 45  0  0  0  0  0  0  0  0999 V2000
   -4.5327    1.9512    2.2238 O   0  0  0  0  0  0  0  0  0  0  0  0
   -4.2402    2.2037    0.8480 C   0  0  0  0  0  0  0  0  0  0  0  0
   -3.8664    0.9403    0.0742 C   0  0  1  0  0  0  0  0  0  0  0  0
   -2.5220    1.0141   -0.3913 O   0  0  0  0  0  0  0  0  0  0  0  0
   -3.8772   -0.3361    0.9002 C   0  0  1  0  0  0  0  0  0  0  0  0
   -5.2444   -0.6615    1.1613 O   0  0  0  0  0  0  0  0  0  0  0  0
   -3.1368   -1.2469   -0.0611 C   0  0  1  0  0  0  0  0  0  0  0  0
   -3.9177   -1.5595   -1.2194 O   0  0  0  0  0  0  0  0  0  0  0  0
   -1.9849   -0.3079   -0.4384 C   0  0  2  0  0  0  0  0  0  0  0  0
   -5.5130   -1.9983    1.4745 C   0  0  2  0  0  0  0  0  0  0  0  0
   -7.0298   -2.1928    1.6039 C   0  0  2  0  0  0  0  0  0  0  0  0
   -7.5906   -1.2067    2.5648 N   0  3  0  0  0  0  0  0  0  0  0  0
   -7.3623   -3.6320    2.0109 C   0  0  1  0  0  0  0  0  0  0  0  0
   -7.0946   -4.5094    0.9252 O   0  0  0  0  0  0  0  0  0  0  0  0
   -6.5463   -4.0633    3.2334 C   0  0  2  0  0  0  0  0  0  0  0  0
   -6.9675   -3.3457    4.3866 O   0  0  0  0  0  0  0  0  0  0  0  0
   -5.0635   -3.8109    2.9759 C   0  0  1  0  0  0  0  0  0  0  0  0
   -4.8553   -2.4201    2.6622 O   0  0  0  0  0  0  0  0  0  0  0  0
   -4.1815   -4.1610    4.1614 C   0  0  0  0  0  0  0  0  0  0  0  0
   -2.7735   -4.3736    3.7586 N   0  3  0  0  0  0  0  0  0  0  0  0
    2.8945    3.9018    0.6948 C   0  0  0  0  0  0  0  0  0  0  0  0
    0.6712    1.3747   -0.8535 C   0  0  2  0  0  0  0  0  0  0  0  0
    0.4971    1.9552   -2.2548 C   0  0  2  0  0  0  0  0  0  0  0  0
    0.0347    0.9038   -3.1920 N   0  3  0  0  0  0  0  0  0  0  0  0
    1.8168    2.5295   -2.7525 C   0  0  1  0  0  0  0  0  0  0  0  0
    1.6241    3.1345   -4.0219 O   0  0  0  0  0  0  0  0  0  0  0  0
    2.3349    3.5606   -1.7523 C   0  0  2  0  0  0  0  0  0  0  0  0
    3.6006    4.0512   -2.1751 O   0  0  0  0  0  0  0  0  0  0  0  0
    1.7714    4.7742    1.1080 N   0  3  0  0  0  0  0  0  0  0  0  0
    2.4675    2.9125   -0.3755 C   0  0  2  0  0  0  0  0  0  0  0  0
    1.2021    2.3551    0.0342 O   0  0  0  0  0  0  0  0  0  0  0  0
    1.2049   -3.2652    1.4866 C   0  0  2  0  0  0  0  0  0  0  0  0
    1.1819   -4.1421    2.6799 N   0  3  0  0  0  0  0  0  0  0  0  0
    2.5422   -2.5384    1.3998 C   0  0  0  0  0  0  0  0  0  0  0  0
    2.5793   -1.6308    0.1782 C   0  0  2  0  0  0  0  0  0  0  0  0
    3.8767   -0.9704    0.1526 N   0  3  0  0  0  0  0  0  0  0  0  0
    1.4489   -0.6076    0.2594 C   0  0  1  0  0  0  0  0  0  0  0  0
    1.4737    0.2290   -0.9136 O   0  0  0  0  0  0  0  0  0  0  0  0
    0.0866   -1.3079    0.3581 C   0  0  2  0  0  0  0  0  0  0  0  0
   -0.9458   -0.3197    0.5380 O   0  0  0  0  0  0  0  0  0  0  0  0
    0.0408   -2.2769    1.5369 C   0  0  1  0  0  0  0  0  0  0  0  0
   -1.1879   -2.9913    1.5162 O   0  0  0  0  0  0  0  0  0  0  0  0
  1  2  1  0  0  0  0
  3  2  1  1  0  0  0
  3  5  1  0  0  0  0
  3  4  1  0  0  0  0
  4  9  1  0  0  0  0
  5  7  1  0  0  0  0
  5  6  1  6  0  0  0
  7  9  1  0  0  0  0
  7  8  1  6  0  0  0
  9 40  1  1  0  0  0
 10  6  1  1  0  0  0
 10 11  1  0  0  0  0
 10 18  1  0  0  0  0
 11 13  1  0  0  0  0
 11 12  1  1  0  0  0
 13 15  1  0  0  0  0
 13 14  1  6  0  0  0
 15 17  1  0  0  0  0
 15 16  1  1  0  0  0
 17 19  1  1  0  0  0
 17 18  1  0  0  0  0
 19 20  1  0  0  0  0
 21 29  1  0  0  0  0
 22 23  1  0  0  0  0
 22 31  1  0  0  0  0
 22 38  1  6  0  0  0
 23 25  1  0  0  0  0
 23 24  1  6  0  0  0
 25 27  1  0  0  0  0
 25 26  1  6  0  0  0
 27 30  1  0  0  0  0
 27 28  1  6  0  0  0
 30 21  1  1  0  0  0
 30 31  1  0  0  0  0
 32 34  1  0  0  0  0
 32 41  1  0  0  0  0
 32 33  1  1  0  0  0
 34 35  1  0  0  0  0
 35 37  1  0  0  0  0
 35 36  1  1  0  0  0
 37 39  1  0  0  0  0
 37 38  1  6  0  0  0
 39 41  1  0  0  0  0
 39 40  1  1  0  0  0
 41 42  1  6  0  0  0
M  CHG  6  12   1  20   1  24   1  29   1  33   1  36   1
M  END
>  <CHROM.1>
-161.24816912,-116.08569616,157.94465922,-175.15482587,-141.16517814,-156.50223096
0.21612102,-178.93046766,66.93669270,159.67799259,149.40407917,76.20086448
31.45268141,-164.99774281,67.21323574,-178.35396843,61.88746103,92.46874189
160.15291206,-167.72584168,122.31963728,-52.93532247,-1.60614598,-0.51813321
0.63771772,2.48311613,-0.10306985,2.65810362

>  <Name>
1NEM.B

>  <RI>
0

>  <Rbt.Current_Directory>
/home/itssahil/PROJECTS/Mol_Feturizer/New_Systems/rnas/1nem

>  <Rbt.Executable>
rbdock ($Id: //depot/dev/client3/rdock/2013.1/src/exe/rbdock.cxx#4 $)

>  <Rbt.Library>
libRbt.so (2013.1, Build901 2013/11/27)

>  <Rbt.Parameter_File>
/export/apps/rDock/src/rDock_2013.1_src/data/scripts/dock_solv.prm

>  <Rbt.Receptor>
prm/pocket_docking_6.prm

>  <SCORE>
-39.9496

>  <SCORE.INTER>
-50.2886

>  <SCORE.INTER.CONST>
1

>  <SCORE.INTER.POLAR>
-7.34576

>  <SCORE.INTER.ROT>
9

>  <SCORE.INTER.SOLV>
42.2028

>  <SCORE.INTER.VDW>
-32.7074

>  <SCORE.INTER.norm>
-1.19735

>  <SCORE.INTRA>
10.339

>  <SCORE.INTRA.DIHEDRAL>
16.1852

>  <SCORE.INTRA.DIHEDRAL.0>
22.4324

>  <SCORE.INTRA.POLAR>
0.254725

>  <SCORE.INTRA.POLAR.0>
-1.83749

>  <SCORE.INTRA.REPUL>
0

>  <SCORE.INTRA.REPUL.0>
0

>  <SCORE.INTRA.SOLV>
-3.25624

>  <SCORE.INTRA.SOLV.lig_0>
-160.638

>  <SCORE.INTRA.VDW>
3.00848

>  <SCORE.INTRA.VDW.0>
-7.61953

>  <SCORE.INTRA.norm>
0.246167

>  <SCORE.RESTR>
0

>  <SCORE.RESTR.CAVITY>
0

>  <SCORE.RESTR.norm>
0

>  <SCORE.SYSTEM>
0

>  <SCORE.SYSTEM.CONST>
0

>  <SCORE.SYSTEM.DIHEDRAL>
0

>  <SCORE.SYSTEM.SOLV>
0

>  <SCORE.SYSTEM.norm>
0

>  <SCORE.heavy>
42

>  <SCORE.norm>
-0.95118

>  <RMSD>
8.977

$$$$
1NEM.B
 OpenBabel11021811403D
libRbt.so/2013.1/901 2013/11/27
 42 45  0  0  0  0  0  0  0  0999 V2000
   -5.8829   -0.2813    2.9800 O   0  0  0  0  0  0  0  0  0  0  0  0
   -6.7484   -1.1827    2.2869 C   0  0  0  0  0  0  0  0  0  0  0  0
   -5.9930   -2.1999    1.4329 C   0  0  1  0  0  0  0  0  0  0  0  0
   -5.0550   -1.5461    0.5830 O   0  0  0  0  0  0  0  0  0  0  0  0
   -5.1282   -3.1716    2.2200 C   0  0  1  0  0  0  0  0  0  0  0  0
   -6.0081   -4.0835    2.8814 O   0  0  0  0  0  0  0  0  0  0  0  0
   -4.3042   -3.7349    1.0774 C   0  0  1  0  0  0  0  0  0  0  0  0
   -5.0817   -4.5655    0.2086 O   0  0  0  0  0  0  0  0  0  0  0  0
   -3.9468   -2.4213    0.3721 C   0  0  2  0  0  0  0  0  0  0  0  0
   -5.4305   -4.9017    3.8582 C   0  0  2  0  0  0  0  0  0  0  0  0
   -6.4092   -6.0276    4.2186 C   0  0  2  0  0  0  0  0  0  0  0  0
   -7.7300   -5.4558    4.5912 N   0  3  0  0  0  0  0  0  0  0  0  0
   -5.8391   -6.9095    5.3342 C   0  0  1  0  0  0  0  0  0  0  0  0
   -4.7561   -7.6789    4.8286 O   0  0  0  0  0  0  0  0  0  0  0  0
   -5.3598   -6.0631    6.5176 C   0  0  2  0  0  0  0  0  0  0  0  0
   -6.4679   -5.4646    7.1777 O   0  0  0  0  0  0  0  0  0  0  0  0
   -4.4033   -4.9824    6.0215 C   0  0  1  0  0  0  0  0  0  0  0  0
   -5.0579   -4.1763    5.0227 O   0  0  0  0  0  0  0  0  0  0  0  0
   -3.9187   -4.0588    7.1253 C   0  0  0  0  0  0  0  0  0  0  0  0
   -4.5397   -2.7186    7.0364 N   0  3  0  0  0  0  0  0  0  0  0  0
    1.0188    3.3314   -2.1126 C   0  0  0  0  0  0  0  0  0  0  0  0
   -0.9307    1.4496    0.4143 C   0  0  2  0  0  0  0  0  0  0  0  0
   -2.2693    2.1817    0.3579 C   0  0  2  0  0  0  0  0  0  0  0  0
   -3.3419    1.3348    0.9323 N   0  3  0  0  0  0  0  0  0  0  0  0
   -2.6177    2.5280   -1.0836 C   0  0  1  0  0  0  0  0  0  0  0  0
   -3.8240    3.2752   -1.1154 O   0  0  0  0  0  0  0  0  0  0  0  0
   -1.4813    3.3381   -1.7034 C   0  0  2  0  0  0  0  0  0  0  0  0
   -1.7678    3.6062   -3.0700 O   0  0  0  0  0  0  0  0  0  0  0  0
    1.5088    4.3033   -1.1085 N   0  3  0  0  0  0  0  0  0  0  0  0
   -0.1769    2.5506   -1.5956 C   0  0  2  0  0  0  0  0  0  0  0  0
    0.0894    2.2184   -0.2178 O   0  0  0  0  0  0  0  0  0  0  0  0
    0.4143   -3.6685    0.8708 C   0  0  2  0  0  0  0  0  0  0  0  0
    0.9075   -4.8043    1.6831 N   0  3  0  0  0  0  0  0  0  0  0  0
    1.3266   -2.4611    1.0553 C   0  0  0  0  0  0  0  0  0  0  0  0
    0.8301   -1.2842    0.2272 C   0  0  2  0  0  0  0  0  0  0  0  0
    1.7411   -0.1695    0.4455 N   0  3  0  0  0  0  0  0  0  0  0  0
   -0.5905   -0.9171    0.6495 C   0  0  1  0  0  0  0  0  0  0  0  0
   -1.0633    0.1788   -0.1579 O   0  0  0  0  0  0  0  0  0  0  0  0
   -1.5344   -2.1164    0.4852 C   0  0  2  0  0  0  0  0  0  0  0  0
   -2.8386   -1.7695    0.9887 O   0  0  0  0  0  0  0  0  0  0  0  0
   -1.0273   -3.3354    1.2516 C   0  0  1  0  0  0  0  0  0  0  0  0
   -1.8610   -4.4522    0.9718 O   0  0  0  0  0  0  0  0  0  0  0  0
  1  2  1  0  0  0  0
  3  2  1  1  0  0  0
  3  5  1  0  0  0  0
  3  4  1  0  0  0  0
  4  9  1  0  0  0  0
  5  7  1  0  0  0  0
  5  6  1  6  0  0  0
  7  9  1  0  0  0  0
  7  8  1  6  0  0  0
  9 40  1  1  0  0  0
 10  6  1  6  0  0  0
 10 11  1  0  0  0  0
 10 18  1  0  0  0  0
 11 13  1  0  0  0  0
 11 12  1  1  0  0  0
 13 15  1  0  0  0  0
 13 14  1  6  0  0  0
 15 17  1  0  0  0  0
 15 16  1  6  0  0  0
 17 19  1  1  0  0  0
 17 18  1  0  0  0  0
 19 20  1  0  0  0  0
 21 29  1  0  0  0  0
 22 23  1  0  0  0  0
 22 31  1  0  0  0  0
 22 38  1  6  0  0  0
 23 25  1  0  0  0  0
 23 24  1  6  0  0  0
 25 27  1  0  0  0  0
 25 26  1  1  0  0  0
 27 30  1  0  0  0  0
 27 28  1  6  0  0  0
 30 21  1  1  0  0  0
 30 31  1  0  0  0  0
 32 34  1  0  0  0  0
 32 41  1  0  0  0  0
 32 33  1  1  0  0  0
 34 35  1  0  0  0  0
 35 37  1  0  0  0  0
 35 36  1  1  0  0  0
 37 39  1  0  0  0  0
 37 38  1  6  0  0  0
 39 41  1  0  0  0  0
 39 40  1  1  0  0  0
 41 42  1  6  0  0  0
M  CHG  6  12   1  20   1  24   1  29   1  33   1  36   1
M  END
>  <CHROM.1>
67.33876558,-51.37578322,-168.31506422,-166.50788707,75.91744271,-155.36770258
162.45855761,68.32478408,-169.46174021,-107.09726216,-109.75303097,80.03917615
170.50339203,-128.40646233,-163.31363325,64.57833881,-177.81989867,19.97139327
66.11770967,-96.73387722,150.27184733,-42.61687389,-3.00493534,-1.79254826
1.77357822,2.07817316,-0.26573692,2.60851545

>  <Name>
1NEM.B

>  <RI>
0

>  <Rbt.Current_Directory>
/home/itssahil/PROJECTS/Mol_Feturizer/New_Systems/rnas/1nem

>  <Rbt.Executable>
rbdock ($Id: //depot/dev/client3/rdock/2013.1/src/exe/rbdock.cxx#4 $)

>  <Rbt.Library>
libRbt.so (2013.1, Build901 2013/11/27)

>  <Rbt.Parameter_File>
/export/apps/rDock/src/rDock_2013.1_src/data/scripts/dock_solv.prm

>  <Rbt.Receptor>
prm/pocket_docking_6.prm

>  <SCORE>
-32.2207

>  <SCORE.INTER>
-41.1643

>  <SCORE.INTER.CONST>
1

>  <SCORE.INTER.POLAR>
-6.50165

>  <SCORE.INTER.ROT>
9

>  <SCORE.INTER.SOLV>
27.1891

>  <SCORE.INTER.VDW>
-24.4338

>  <SCORE.INTER.norm>
-0.980103

>  <SCORE.INTRA>
8.94362

>  <SCORE.INTRA.DIHEDRAL>
15.3994

>  <SCORE.INTRA.DIHEDRAL.0>
22.4324

>  <SCORE.INTRA.POLAR>
-1.25758

>  <SCORE.INTRA.POLAR.0>
-1.83749

>  <SCORE.INTRA.REPUL>
0

>  <SCORE.INTRA.REPUL.0>
0

>  <SCORE.INTRA.SOLV>
1.04175

>  <SCORE.INTRA.SOLV.lig_0>
-160.638

>  <SCORE.INTRA.VDW>
4.99881

>  <SCORE.INTRA.VDW.0>
-7.61953

>  <SCORE.INTRA.norm>
0.212943

>  <SCORE.RESTR>
0

>  <SCORE.RESTR.CAVITY>
0

>  <SCORE.RESTR.norm>
0

>  <SCORE.SYSTEM>
0

>  <SCORE.SYSTEM.CONST>
0

>  <SCORE.SYSTEM.DIHEDRAL>
0

>  <SCORE.SYSTEM.SOLV>
0

>  <SCORE.SYSTEM.norm>
0

>  <SCORE.heavy>
42

>  <SCORE.norm>
-0.76716

>  <RMSD>
8.979

$$$$
1NEM.B
 OpenBabel11021811403D
libRbt.so/2013.1/901 2013/11/27
 42 45  0  0  0  0  0  0  0  0999 V2000
   -6.7883   -3.4052    0.1878 O   0  0  0  0  0  0  0  0  0  0  0  0
   -5.8889   -3.6347    1.2743 C   0  0  0  0  0  0  0  0  0  0  0  0
   -4.5896   -4.3130    0.8424 C   0  0  1  0  0  0  0  0  0  0  0  0
   -3.8049   -3.4343    0.0415 O   0  0  0  0  0  0  0  0  0  0  0  0
   -3.6515   -4.6718    1.9838 C   0  0  1  0  0  0  0  0  0  0  0  0
   -4.2311   -5.7787    2.6781 O   0  0  0  0  0  0  0  0  0  0  0  0
   -2.3979   -4.9594    1.1789 C   0  0  1  0  0  0  0  0  0  0  0  0
   -2.5119   -6.1633    0.4130 O   0  0  0  0  0  0  0  0  0  0  0  0
   -2.4259   -3.7387    0.2516 C   0  0  2  0  0  0  0  0  0  0  0  0
   -5.4906   -5.5610    3.2468 C   0  0  2  0  0  0  0  0  0  0  0  0
   -5.5228   -6.1722    4.6543 C   0  0  2  0  0  0  0  0  0  0  0  0
   -5.1051   -7.5980    4.6012 N   0  3  0  0  0  0  0  0  0  0  0  0
   -6.9089   -6.0116    5.2870 C   0  0  1  0  0  0  0  0  0  0  0  0
   -7.1319   -4.6450    5.6082 O   0  0  0  0  0  0  0  0  0  0  0  0
   -8.0088   -6.5032    4.3410 C   0  0  2  0  0  0  0  0  0  0  0  0
   -7.9358   -7.9153    4.1903 O   0  0  0  0  0  0  0  0  0  0  0  0
   -7.8573   -5.8260    2.9819 C   0  0  1  0  0  0  0  0  0  0  0  0
   -6.5438   -6.0900    2.4518 O   0  0  0  0  0  0  0  0  0  0  0  0
   -8.8780   -6.2968    1.9609 C   0  0  0  0  0  0  0  0  0  0  0  0
  -10.1754   -5.6020    2.1158 N   0  3  0  0  0  0  0  0  0  0  0  0
   -4.3485   -0.5930    3.0378 C   0  0  0  0  0  0  0  0  0  0  0  0
   -2.2702   -0.3411   -0.0191 C   0  0  2  0  0  0  0  0  0  0  0  0
   -2.9954    0.7682   -0.7772 C   0  0  2  0  0  0  0  0  0  0  0  0
   -2.1009    1.3601   -1.8004 N   0  3  0  0  0  0  0  0  0  0  0  0
   -3.4461    1.8559    0.1887 C   0  0  1  0  0  0  0  0  0  0  0  0
   -4.1855    2.8415   -0.5158 O   0  0  0  0  0  0  0  0  0  0  0  0
   -4.3078    1.2383    1.2877 C   0  0  2  0  0  0  0  0  0  0  0  0
   -4.6754    2.2356    2.2321 O   0  0  0  0  0  0  0  0  0  0  0  0
   -5.5488    0.1866    3.4178 N   0  3  0  0  0  0  0  0  0  0  0  0
   -3.5233    0.1304    1.9878 C   0  0  2  0  0  0  0  0  0  0  0  0
   -3.0908   -0.8542    1.0270 O   0  0  0  0  0  0  0  0  0  0  0  0
    1.8695   -2.9249    0.8720 C   0  0  2  0  0  0  0  0  0  0  0  0
    2.7545   -3.9368    1.4935 N   0  3  0  0  0  0  0  0  0  0  0  0
    2.1717   -1.5453    1.4462 C   0  0  0  0  0  0  0  0  0  0  0  0
    1.2672   -0.4945    0.8177 C   0  0  2  0  0  0  0  0  0  0  0  0
    1.6059    0.7942    1.4048 N   0  3  0  0  0  0  0  0  0  0  0  0
   -0.1950   -0.8459    1.0816 C   0  0  1  0  0  0  0  0  0  0  0  0
   -1.0448    0.1377    0.4596 O   0  0  0  0  0  0  0  0  0  0  0  0
   -0.5303   -2.2360    0.5236 C   0  0  2  0  0  0  0  0  0  0  0  0
   -1.8830   -2.5794    0.8798 O   0  0  0  0  0  0  0  0  0  0  0  0
    0.4049   -3.3038    1.0854 C   0  0  1  0  0  0  0  0  0  0  0  0
    0.1404   -4.5478    0.4505 O   0  0  0  0  0  0  0  0  0  0  0  0
  1  2  1  0  0  0  0
  3  2  1  1  0  0  0
  3  5  1  0  0  0  0
  3  4  1  0  0  0  0
  4  9  1  0  0  0  0
  5  7  1  0  0  0  0
  5  6  1  6  0  0  0
  7  9  1  0  0  0  0
  7  8  1  6  0  0  0
  9 40  1  1  0  0  0
 10  6  1  6  0  0  0
 10 11  1  0  0  0  0
 10 18  1  0  0  0  0
 11 13  1  0  0  0  0
 11 12  1  6  0  0  0
 13 15  1  0  0  0  0
 13 14  1  6  0  0  0
 15 17  1  0  0  0  0
 15 16  1  6  0  0  0
 17 19  1  6  0  0  0
 17 18  1  0  0  0  0
 19 20  1  0  0  0  0
 21 29  1  0  0  0  0
 22 23  1  0  0  0  0
 22 31  1  0  0  0  0
 22 38  1  1  0  0  0
 23 25  1  0  0  0  0
 23 24  1  6  0  0  0
 25 27  1  0  0  0  0
 25 26  1  6  0  0  0
 27 30  1  0  0  0  0
 27 28  1  1  0  0  0
 30 21  1  1  0  0  0
 30 31  1  0  0  0  0
 32 34  1  0  0  0  0
 32 41  1  0  0  0  0
 32 33  1  1  0  0  0
 34 35  1  0  0  0  0
 35 37  1  0  0  0  0
 35 36  1  1  0  0  0
 37 39  1  0  0  0  0
 37 38  1  6  0  0  0
 39 41  1  0  0  0  0
 39 40  1  1  0  0  0
 41 42  1  6  0  0  0
M  CHG  6  12   1  20   1  24   1  29   1  33   1  36   1
M  END
>  <CHROM.1>
-104.53555412,68.30368997,-60.75891275,-136.72178689,-164.82146215,-144.50229836
-56.85586374,-68.30681418,164.78029012,81.96519248,-54.58529223,-17.09163745
-26.02972094,-174.06815335,175.50516709,-67.65232761,69.23548182,-52.84900668
-173.54056773,147.08402582,169.88901120,68.66675744,-3.59882815,-2.87808167
1.68809948,2.37974571,-0.18089966,2.87180639

>  <Name>
1NEM.B

>  <RI>
0

>  <Rbt.Current_Directory>
/home/itssahil/PROJECTS/Mol_Feturizer/New_Systems/rnas/1nem

>  <Rbt.Executable>
rbdock ($Id: //depot/dev/client3/rdock/2013.1/src/exe/rbdock.cxx#4 $)

>  <Rbt.Library>
libRbt.so (2013.1, Build901 2013/11/27)

>  <Rbt.Parameter_File>
/export/apps/rDock/src/rDock_2013.1_src/data/scripts/dock_solv.prm

>  <Rbt.Receptor>
prm/blind_docking_100.prm

>  <SCORE>
-16.4735

>  <SCORE.INTER>
-46.4821

>  <SCORE.INTER.CONST>
1

>  <SCORE.INTER.POLAR>
-10.0143

>  <SCORE.INTER.ROT>
9

>  <SCORE.INTER.SOLV>
52.4311

>  <SCORE.INTER.VDW>
-24.6842

>  <SCORE.INTER.norm>
-1.10672

>  <SCORE.INTRA>
27.5855

>  <SCORE.INTRA.DIHEDRAL>
11.9045

>  <SCORE.INTRA.DIHEDRAL.0>
22.4324

>  <SCORE.INTRA.POLAR>
0.781242

>  <SCORE.INTRA.POLAR.0>
-1.83749

>  <SCORE.INTRA.REPUL>
0.248516

>  <SCORE.INTRA.REPUL.0>
0

>  <SCORE.INTRA.SOLV>
-4.92024

>  <SCORE.INTRA.SOLV.lig_0>
-160.638

>  <SCORE.INTRA.VDW>
20.1946

>  <SCORE.INTRA.VDW.0>
-7.61953

>  <SCORE.INTRA.norm>
0.656798

>  <SCORE.RESTR>
2.42313

>  <SCORE.RESTR.CAVITY>
2.42313

>  <SCORE.RESTR.norm>
0.0576937

>  <SCORE.SYSTEM>
0

>  <SCORE.SYSTEM.CONST>
0

>  <SCORE.SYSTEM.DIHEDRAL>
0

>  <SCORE.SYSTEM.SOLV>
0

>  <SCORE.SYSTEM.norm>
0

>  <SCORE.heavy>
42

>  <SCORE.norm>
-0.392226

>  <RMSD>
8.988

$$$$
1NEM.B
 OpenBabel11021811403D
libRbt.so/2013.1/901 2013/11/27
 42 45  0  0  0  0  0  0  0  0999 V2000
   -4.0964    2.2432    1.4377 O   0  0  0  0  0  0  0  0  0  0  0  0
   -4.1358    2.1079    0.0156 C   0  0  0  0  0  0  0  0  0  0  0  0
   -3.6029    0.7616   -0.4724 C   0  0  1  0  0  0  0  0  0  0  0  0
   -2.2216    0.8583   -0.8074 O   0  0  0  0  0  0  0  0  0  0  0  0
   -3.6299   -0.3464    0.5684 C   0  0  1  0  0  0  0  0  0  0  0  0
   -4.9958   -0.7276    0.7475 O   0  0  0  0  0  0  0  0  0  0  0  0
   -2.7333   -1.3507   -0.1311 C   0  0  1  0  0  0  0  0  0  0  0  0
   -3.3595   -1.9229   -1.2842 O   0  0  0  0  0  0  0  0  0  0  0  0
   -1.6046   -0.4048   -0.5576 C   0  0  2  0  0  0  0  0  0  0  0  0
   -5.2198   -1.9037    1.4714 C   0  0  2  0  0  0  0  0  0  0  0  0
   -6.7114   -2.0089    1.8171 C   0  0  2  0  0  0  0  0  0  0  0  0
   -7.1665   -0.7672    2.4963 N   0  3  0  0  0  0  0  0  0  0  0  0
   -6.9877   -3.2531    2.6674 C   0  0  1  0  0  0  0  0  0  0  0  0
   -6.8384   -4.4199    1.8693 O   0  0  0  0  0  0  0  0  0  0  0  0
   -6.0372   -3.3256    3.8664 C   0  0  2  0  0  0  0  0  0  0  0  0
   -6.3305   -2.2873    4.7927 O   0  0  0  0  0  0  0  0  0  0  0  0
   -4.5941   -3.2022    3.3856 C   0  0  1  0  0  0  0  0  0  0  0  0
   -4.4305   -1.9731    2.6518 O   0  0  0  0  0  0  0  0  0  0  0  0
   -3.5826   -3.2099    4.5182 C   0  0  0  0  0  0  0  0  0  0  0  0
   -2.2022   -3.4124    4.0246 N   0  3  0  0  0  0  0  0  0  0  0  0
    6.0313    2.1307    0.9362 C   0  0  0  0  0  0  0  0  0  0  0  0
    2.3474    1.7942    1.1442 C   0  0  2  0  0  0  0  0  0  0  0  0
    1.8960    2.9415    0.2437 C   0  0  2  0  0  0  0  0  0  0  0  0
    0.4964    2.7286   -0.1960 N   0  3  0  0  0  0  0  0  0  0  0  0
    2.7997    3.0362   -0.9784 C   0  0  1  0  0  0  0  0  0  0  0  0
    2.4183    4.1529   -1.7670 O   0  0  0  0  0  0  0  0  0  0  0  0
    4.2522    3.1812   -0.5299 C   0  0  2  0  0  0  0  0  0  0  0  0
    5.1091    3.2006   -1.6642 O   0  0  0  0  0  0  0  0  0  0  0  0
    7.0539    1.9085   -0.1115 N   0  3  0  0  0  0  0  0  0  0  0  0
    4.6245    2.0096    0.3768 C   0  0  2  0  0  0  0  0  0  0  0  0
    3.7199    1.9432    1.4980 O   0  0  0  0  0  0  0  0  0  0  0  0
    0.9362   -3.2996    1.8216 C   0  0  2  0  0  0  0  0  0  0  0  0
    0.4030   -4.3825    2.6796 N   0  3  0  0  0  0  0  0  0  0  0  0
    2.1057   -2.6119    2.5170 C   0  0  0  0  0  0  0  0  0  0  0  0
    2.6630   -1.4940    1.6469 C   0  0  2  0  0  0  0  0  0  0  0  0
    3.7725   -0.8817    2.3639 N   0  3  0  0  0  0  0  0  0  0  0  0
    1.5689   -0.4687    1.3583 C   0  0  1  0  0  0  0  0  0  0  0  0
    2.0966    0.5708    0.5114 O   0  0  0  0  0  0  0  0  0  0  0  0
    0.3702   -1.1318    0.6659 C   0  0  2  0  0  0  0  0  0  0  0  0
   -0.6827   -0.1625    0.5028 O   0  0  0  0  0  0  0  0  0  0  0  0
   -0.1705   -2.3018    1.4841 C   0  0  1  0  0  0  0  0  0  0  0  0
   -1.1943   -2.9607    0.7505 O   0  0  0  0  0  0  0  0  0  0  0  0
  1  2  1  0  0  0  0
  3  2  1  1  0  0  0
  3  5  1  0  0  0  0
  3  4  1  0  0  0  0
  4  9  1  0  0  0  0
  5  7  1  0  0  0  0
  5  6  1  6  0  0  0
  7  9  1  0  0  0  0
  7  8  1  6  0  0  0
  9 40  1  1  0  0  0
 10  6  1  1  0  0  0
 10 11  1  0  0  0  0
 10 18  1  0  0  0  0
 11 13  1  0  0  0  0
 11 12  1  1  0  0  0
 13 15  1  0  0  0  0
 13 14  1  6  0  0  0
 15 17  1  0  0  0  0
 15 16  1  1  0  0  0
 17 19  1  1  0  0  0
 17 18  1  0  0  0  0
 19 20  1  0  0  0  0
 21 29  1  0  0  0  0
 22 23  1  0  0  0  0
 22 31  1  0  0  0  0
 22 38  1  6  0  0  0
 23 25  1  0  0  0  0
 23 24  1  6  0  0  0
 25 27  1  0  0  0  0
 25 26  1  1  0  0  0
 27 30  1  0  0  0  0
 27 28  1  6  0  0  0
 30 21  1  1  0  0  0
 30 31  1  0  0  0  0
 32 34  1  0  0  0  0
 32 41  1  0  0  0  0
 32 33  1  1  0  0  0
 34 35  1  0  0  0  0
 35 37  1  0  0  0  0
 35 36  1  1  0  0  0
 37 39  1  0  0  0  0
 37 38  1  6  0  0  0
 39 41  1  0  0  0  0
 39 40  1  1  0  0  0
 41 42  1  6  0  0  0
M  CHG  6  12   1  20   1  24   1  29   1  33   1  36   1
M  END
>  <CHROM.1>
-105.31942564,-94.16313528,168.16943457,168.37885647,73.21823047,-160.47774618
161.06032838,-66.51713860,-179.16650167,166.46268982,-61.44083449,-71.17421363
-69.80475587,-138.39325710,105.30350832,-167.21091406,71.90839586,178.50059691
-43.47708525,-105.65395266,155.06118773,70.92033021,-0.90196720,-0.43375247
1.14917075,2.66185520,0.03325263,2.57960354

>  <Name>
1NEM.B

>  <RI>
0

>  <Rbt.Current_Directory>
/home/itssahil/PROJECTS/Mol_Feturizer/New_Systems/rnas/1nem

>  <Rbt.Executable>
rbdock ($Id: //depot/dev/client3/rdock/2013.1/src/exe/rbdock.cxx#4 $)

>  <Rbt.Library>
libRbt.so (2013.1, Build901 2013/11/27)

>  <Rbt.Parameter_File>
/export/apps/rDock/src/rDock_2013.1_src/data/scripts/dock_solv.prm

>  <Rbt.Receptor>
prm/pocket_docking_4.prm

>  <SCORE>
-25.0109

>  <SCORE.INTER>
-36.8881

>  <SCORE.INTER.CONST>
1

>  <SCORE.INTER.POLAR>
-4.83137

>  <SCORE.INTER.ROT>
9

>  <SCORE.INTER.SOLV>
33.8523

>  <SCORE.INTER.VDW>
-29.3716

>  <SCORE.INTER.norm>
-0.878288

>  <SCORE.INTRA>
11.2669

>  <SCORE.INTRA.DIHEDRAL>
14.1274

>  <SCORE.INTRA.DIHEDRAL.0>
22.4324

>  <SCORE.INTRA.POLAR>
-1.50634

>  <SCORE.INTRA.POLAR.0>
-1.83749

>  <SCORE.INTRA.REPUL>
0

>  <SCORE.INTRA.REPUL.0>
0

>  <SCORE.INTRA.SOLV>
8.3522

>  <SCORE.INTRA.SOLV.lig_0>
-160.638

>  <SCORE.INTRA.VDW>
5.14871

>  <SCORE.INTRA.VDW.0>
-7.61953

>  <SCORE.INTRA.norm>
0.268261

>  <SCORE.RESTR>
0.610204

>  <SCORE.RESTR.CAVITY>
0.610204

>  <SCORE.RESTR.norm>
0.0145287

>  <SCORE.SYSTEM>
0

>  <SCORE.SYSTEM.CONST>
0

>  <SCORE.SYSTEM.DIHEDRAL>
0

>  <SCORE.SYSTEM.SOLV>
0

>  <SCORE.SYSTEM.norm>
0

>  <SCORE.heavy>
42

>  <SCORE.norm>
-0.595499

>  <RMSD>
8.999

$$$$
1NEM.B
 OpenBabel11021811403D
libRbt.so/2013.1/901 2013/11/27
 42 45  0  0  0  0  0  0  0  0999 V2000
   -6.6998   -0.3448    1.8847 O   0  0  0  0  0  0  0  0  0  0  0  0
   -5.7808   -1.3322    2.3565 C   0  0  0  0  0  0  0  0  0  0  0  0
   -5.0171   -2.0258    1.2294 C   0  0  1  0  0  0  0  0  0  0  0  0
   -4.0374   -1.1534    0.6737 O   0  0  0  0  0  0  0  0  0  0  0  0
   -4.1998   -3.2315    1.6651 C   0  0  1  0  0  0  0  0  0  0  0  0
   -5.1202   -4.2852    1.9578 O   0  0  0  0  0  0  0  0  0  0  0  0
   -3.3484   -3.4030    0.4210 C   0  0  1  0  0  0  0  0  0  0  0  0
   -4.1122   -3.8690   -0.6964 O   0  0  0  0  0  0  0  0  0  0  0  0
   -2.9405   -1.9403    0.2089 C   0  0  2  0  0  0  0  0  0  0  0  0
   -5.2220   -4.6619    3.3013 C   0  0  2  0  0  0  0  0  0  0  0  0
   -6.3085   -5.7364    3.4446 C   0  0  2  0  0  0  0  0  0  0  0  0
   -7.5793   -5.2615    2.8364 N   0  3  0  0  0  0  0  0  0  0  0  0
   -6.4963   -6.1295    4.9135 C   0  0  1  0  0  0  0  0  0  0  0  0
   -5.3644   -6.8646    5.3597 O   0  0  0  0  0  0  0  0  0  0  0  0
   -6.6866   -4.8927    5.7969 C   0  0  2  0  0  0  0  0  0  0  0  0
   -7.9345   -4.2719    5.5154 O   0  0  0  0  0  0  0  0  0  0  0  0
   -5.5476   -3.9069    5.5520 C   0  0  1  0  0  0  0  0  0  0  0  0
   -5.4989   -3.5591    4.1546 O   0  0  0  0  0  0  0  0  0  0  0  0
   -5.6851   -2.6223    6.3501 C   0  0  0  0  0  0  0  0  0  0  0  0
   -5.5853   -2.8637    7.8067 N   0  3  0  0  0  0  0  0  0  0  0  0
    1.1005    4.1433   -2.0410 C   0  0  0  0  0  0  0  0  0  0  0  0
   -0.7956    2.0896    0.3909 C   0  0  2  0  0  0  0  0  0  0  0  0
   -2.1996    2.6682    0.2328 C   0  0  2  0  0  0  0  0  0  0  0  0
   -3.2089    1.7152    0.7531 N   0  3  0  0  0  0  0  0  0  0  0  0
   -2.4867    2.9554   -1.2349 C   0  0  1  0  0  0  0  0  0  0  0  0
   -3.7627    3.5640   -1.3602 O   0  0  0  0  0  0  0  0  0  0  0  0
   -1.4070    3.8783   -1.7956 C   0  0  2  0  0  0  0  0  0  0  0  0
   -1.6291    4.0958   -3.1830 O   0  0  0  0  0  0  0  0  0  0  0  0
    1.2259    5.3373   -1.1740 N   0  3  0  0  0  0  0  0  0  0  0  0
   -0.0343    3.2416   -1.5874 C   0  0  2  0  0  0  0  0  0  0  0  0
    0.1740    2.9584   -0.1887 O   0  0  0  0  0  0  0  0  0  0  0  0
    1.7657   -2.5435    0.5479 C   0  0  2  0  0  0  0  0  0  0  0  0
    2.6118   -3.5293    1.2590 N   0  3  0  0  0  0  0  0  0  0  0  0
    2.3474   -1.1439    0.7109 C   0  0  0  0  0  0  0  0  0  0  0  0
    1.4861   -0.1190   -0.0137 C   0  0  2  0  0  0  0  0  0  0  0  0
    2.0938    1.1901    0.1785 N   0  3  0  0  0  0  0  0  0  0  0  0
    0.0661   -0.1478    0.5468 C   0  0  1  0  0  0  0  0  0  0  0  0
   -0.7495    0.8047   -0.1631 O   0  0  0  0  0  0  0  0  0  0  0  0
   -0.5462   -1.5484    0.4070 C   0  0  2  0  0  0  0  0  0  0  0  0
   -1.8412   -1.5680    1.0373 O   0  0  0  0  0  0  0  0  0  0  0  0
    0.3304   -2.6096    1.0672 C   0  0  1  0  0  0  0  0  0  0  0  0
   -0.2084   -3.8990    0.8070 O   0  0  0  0  0  0  0  0  0  0  0  0
  1  2  1  0  0  0  0
  3  2  1  1  0  0  0
  3  5  1  0  0  0  0
  3  4  1  0  0  0  0
  4  9  1  0  0  0  0
  5  7  1  0  0  0  0
  5  6  1  6  0  0  0
  7  9  1  0  0  0  0
  7  8  1  6  0  0  0
  9 40  1  1  0  0  0
 10  6  1  6  0  0  0
 10 11  1  0  0  0  0
 10 18  1  0  0  0  0
 11 13  1  0  0  0  0
 11 12  1  1  0  0  0
 13 15  1  0  0  0  0
 13 14  1  1  0  0  0
 15 17  1  0  0  0  0
 15 16  1  6  0  0  0
 17 19  1  1  0  0  0
 17 18  1  0  0  0  0
 19 20  1  0  0  0  0
 21 29  1  0  0  0  0
 22 23  1  0  0  0  0
 22 31  1  0  0  0  0
 22 38  1  6  0  0  0
 23 25  1  0  0  0  0
 23 24  1  6  0  0  0
 25 27  1  0  0  0  0
 25 26  1  1  0  0  0
 27 30  1  0  0  0  0
 27 28  1  6  0  0  0
 30 21  1  1  0  0  0
 30 31  1  0  0  0  0
 32 34  1  0  0  0  0
 32 41  1  0  0  0  0
 32 33  1  1  0  0  0
 34 35  1  0  0  0  0
 35 37  1  0  0  0  0
 35 36  1  1  0  0  0
 37 39  1  0  0  0  0
 37 38  1  6  0  0  0
 39 41  1  0  0  0  0
 39 40  1  1  0  0  0
 41 42  1  6  0  0  0
M  CHG  6  12   1  20   1  24   1  29   1  33   1  36   1
M  END
>  <CHROM.1>
97.61175804,73.25395458,-111.81508730,176.55993964,54.86971856,-145.17446123
167.24540390,-165.79439182,76.45324020,65.00430084,-172.16573848,68.06518414
64.17114842,-142.80289324,55.85206393,-71.89421315,169.65822754,-164.68919703
-172.55721287,-91.02758376,122.30211735,-27.45913094,-2.76624739,-1.19753824
1.43739975,2.20108720,-0.27387351,2.68089129

>  <Name>
1NEM.B

>  <RI>
0

>  <Rbt.Current_Directory>
/home/itssahil/PROJECTS/Mol_Feturizer/New_Systems/rnas/1nem

>  <Rbt.Executable>
rbdock ($Id: //depot/dev/client3/rdock/2013.1/src/exe/rbdock.cxx#4 $)

>  <Rbt.Library>
libRbt.so (2013.1, Build901 2013/11/27)

>  <Rbt.Parameter_File>
/export/apps/rDock/src/rDock_2013.1_src/data/scripts/dock_solv.prm

>  <Rbt.Receptor>
prm/pocket_docking_6.prm

>  <SCORE>
-26.5019

>  <SCORE.INTER>
-37.2674

>  <SCORE.INTER.CONST>
1

>  <SCORE.INTER.POLAR>
-6.29279

>  <SCORE.INTER.ROT>
9

>  <SCORE.INTER.SOLV>
28.3218

>  <SCORE.INTER.VDW>
-22.9096

>  <SCORE.INTER.norm>
-0.887319

>  <SCORE.INTRA>
10.7655

>  <SCORE.INTRA.DIHEDRAL>
19.8649

>  <SCORE.INTRA.DIHEDRAL.0>
22.4324

>  <SCORE.INTRA.POLAR>
-0.20103

>  <SCORE.INTRA.POLAR.0>
-1.83749

>  <SCORE.INTRA.REPUL>
0

>  <SCORE.INTRA.REPUL.0>
0

>  <SCORE.INTRA.SOLV>
-0.894797

>  <SCORE.INTRA.SOLV.lig_0>
-160.638

>  <SCORE.INTRA.VDW>
1.96392

>  <SCORE.INTRA.VDW.0>
-7.61953

>  <SCORE.INTRA.norm>
0.256321

>  <SCORE.RESTR>
0

>  <SCORE.RESTR.CAVITY>
0

>  <SCORE.RESTR.norm>
0

>  <SCORE.SYSTEM>
0

>  <SCORE.SYSTEM.CONST>
0

>  <SCORE.SYSTEM.DIHEDRAL>
0

>  <SCORE.SYSTEM.SOLV>
0

>  <SCORE.SYSTEM.norm>
0

>  <SCORE.heavy>
42

>  <SCORE.norm>
-0.630998

>  <RMSD>
8.999

$$$$
1NEM.B
 OpenBabel11021811403D
libRbt.so/2013.1/901 2013/11/27
 42 45  0  0  0  0  0  0  0  0999 V2000
    6.1465    2.6003   -1.0968 O   0  0  0  0  0  0  0  0  0  0  0  0
    5.3642    2.4788   -2.2865 C   0  0  0  0  0  0  0  0  0  0  0  0
    3.8668    2.6553   -2.0385 C   0  0  1  0  0  0  0  0  0  0  0  0
    3.3109    1.4800   -1.4562 O   0  0  0  0  0  0  0  0  0  0  0  0
    3.5137    3.7400   -1.0334 C   0  0  1  0  0  0  0  0  0  0  0  0
    3.7595    4.9993   -1.6636 O   0  0  0  0  0  0  0  0  0  0  0  0
    2.0606    3.3762   -0.7926 C   0  0  1  0  0  0  0  0  0  0  0  0
    1.2378    3.6560   -1.9301 O   0  0  0  0  0  0  0  0  0  0  0  0
    2.2210    1.8616   -0.6165 C   0  0  2  0  0  0  0  0  0  0  0  0
    2.7527    5.4734   -2.5115 C   0  0  2  0  0  0  0  0  0  0  0  0
    3.2359    5.3917   -3.9659 C   0  0  2  0  0  0  0  0  0  0  0  0
    4.5435    6.0845   -4.1089 N   0  3  0  0  0  0  0  0  0  0  0  0
    2.1848    5.9635   -4.9227 C   0  0  1  0  0  0  0  0  0  0  0  0
    1.0685    5.0857   -4.9858 O   0  0  0  0  0  0  0  0  0  0  0  0
    1.7219    7.3517   -4.4700 C   0  0  2  0  0  0  0  0  0  0  0  0
    2.7743    8.2963   -4.6193 O   0  0  0  0  0  0  0  0  0  0  0  0
    1.2771    7.2940   -3.0113 C   0  0  1  0  0  0  0  0  0  0  0  0
    2.3565    6.8013   -2.1939 O   0  0  0  0  0  0  0  0  0  0  0  0
    0.8510    8.6437   -2.4611 C   0  0  0  0  0  0  0  0  0  0  0  0
   -0.3299    9.1821   -3.1719 N   0  3  0  0  0  0  0  0  0  0  0  0
    7.9670   -0.5679    4.9063 C   0  0  0  0  0  0  0  0  0  0  0  0
    4.9020    1.1363    3.7109 C   0  0  2  0  0  0  0  0  0  0  0  0
    5.4419    2.5309    3.4032 C   0  0  2  0  0  0  0  0  0  0  0  0
    4.5212    3.2473    2.4886 N   0  3  0  0  0  0  0  0  0  0  0  0
    6.8173    2.4304    2.7574 C   0  0  1  0  0  0  0  0  0  0  0  0
    7.3411    3.7328    2.5477 O   0  0  0  0  0  0  0  0  0  0  0  0
    7.7497    1.6287    3.6629 C   0  0  2  0  0  0  0  0  0  0  0  0
    9.0159    1.4712    3.0356 O   0  0  0  0  0  0  0  0  0  0  0  0
    7.7278   -2.0185    4.7285 N   0  3  0  0  0  0  0  0  0  0  0  0
    7.1370    0.2568    3.9379 C   0  0  2  0  0  0  0  0  0  0  0  0
    5.8243    0.4068    4.5160 O   0  0  0  0  0  0  0  0  0  0  0  0
    1.3841   -1.9930    1.2521 C   0  0  2  0  0  0  0  0  0  0  0  0
    0.0237   -2.5687    1.1462 N   0  3  0  0  0  0  0  0  0  0  0  0
    1.9032   -2.1415    2.6778 C   0  0  0  0  0  0  0  0  0  0  0  0
    3.3009   -1.5516    2.8022 C   0  0  2  0  0  0  0  0  0  0  0  0
    3.7375   -1.7259    4.1803 N   0  3  0  0  0  0  0  0  0  0  0  0
    3.2741   -0.0729    2.4224 C   0  0  1  0  0  0  0  0  0  0  0  0
    4.6053    0.4707    2.5155 O   0  0  0  0  0  0  0  0  0  0  0  0
    2.7459    0.1126    0.9931 C   0  0  2  0  0  0  0  0  0  0  0  0
    2.6348    1.5193    0.7045 O   0  0  0  0  0  0  0  0  0  0  0  0
    1.3713   -0.5282    0.8181 C   0  0  1  0  0  0  0  0  0  0  0  0
    0.9777   -0.4417   -0.5450 O   0  0  0  0  0  0  0  0  0  0  0  0
  1  2  1  0  0  0  0
  3  2  1  1  0  0  0
  3  5  1  0  0  0  0
  3  4  1  0  0  0  0
  4  9  1  0  0  0  0
  5  7  1  0  0  0  0
  5  6  1  6  0  0  0
  7  9  1  0  0  0  0
  7  8  1  6  0  0  0
  9 40  1  1  0  0  0
 10  6  1  1  0  0  0
 10 11  1  0  0  0  0
 10 18  1  0  0  0  0
 11 13  1  0  0  0  0
 11 12  1  1  0  0  0
 13 15  1  0  0  0  0
 13 14  1  1  0  0  0
 15 17  1  0  0  0  0
 15 16  1  1  0  0  0
 17 19  1  1  0  0  0
 17 18  1  0  0  0  0
 19 20  1  0  0  0  0
 21 29  1  0  0  0  0
 22 23  1  0  0  0  0
 22 31  1  0  0  0  0
 22 38  1  6  0  0  0
 23 25  1  0  0  0  0
 23 24  1  6  0  0  0
 25 27  1  0  0  0  0
 25 26  1  1  0  0  0
 27 30  1  0  0  0  0
 27 28  1  6  0  0  0
 30 21  1  1  0  0  0
 30 31  1  0  0  0  0
 32 34  1  0  0  0  0
 32 41  1  0  0  0  0
 32 33  1  1  0  0  0
 34 35  1  0  0  0  0
 35 37  1  0  0  0  0
 35 36  1  1  0  0  0
 37 39  1  0  0  0  0
 37 38  1  6  0  0  0
 39 41  1  0  0  0  0
 39 40  1  1  0  0  0
 41 42  1  6  0  0  0
M  CHG  6  12   1  20   1  24   1  29   1  33   1  36   1
M  END
>  <CHROM.1>
-179.82809147,-76.90784757,81.73792809,-109.25404331,63.42506213,-68.55061552
-30.26719019,178.51126030,56.81193833,62.96002897,54.50465504,-155.57524232
39.72331992,-127.15354296,-153.35713276,179.17987186,-57.39426211,67.47537251
177.66819119,-96.80784537,176.84366782,56.31032595,3.68423344,2.58233440
0.10620253,-1.94692593,0.49132655,2.54306681

>  <Name>
1NEM.B

>  <RI>
0

>  <Rbt.Current_Directory>
/home/itssahil/PROJECTS/Mol_Feturizer/New_Systems/rnas/1nem

>  <Rbt.Executable>
rbdock ($Id: //depot/dev/client3/rdock/2013.1/src/exe/rbdock.cxx#4 $)

>  <Rbt.Library>
libRbt.so (2013.1, Build901 2013/11/27)

>  <Rbt.Parameter_File>
/export/apps/rDock/src/rDock_2013.1_src/data/scripts/dock_solv.prm

>  <Rbt.Receptor>
prm/pocket_docking_8.prm

>  <SCORE>
-19.8669

>  <SCORE.INTER>
-29.3341

>  <SCORE.INTER.CONST>
1

>  <SCORE.INTER.POLAR>
-5.35465

>  <SCORE.INTER.ROT>
9

>  <SCORE.INTER.SOLV>
26.5564

>  <SCORE.INTER.VDW>
-20.1594

>  <SCORE.INTER.norm>
-0.698431

>  <SCORE.INTRA>
9.42423

>  <SCORE.INTRA.DIHEDRAL>
6.63938

>  <SCORE.INTRA.DIHEDRAL.0>
22.4324

>  <SCORE.INTRA.POLAR>
-0.171153

>  <SCORE.INTRA.POLAR.0>
-1.83749

>  <SCORE.INTRA.REPUL>
0.0303638

>  <SCORE.INTRA.REPUL.0>
0

>  <SCORE.INTRA.SOLV>
-0.176908

>  <SCORE.INTRA.SOLV.lig_0>
-160.638

>  <SCORE.INTRA.VDW>
6.62309

>  <SCORE.INTRA.VDW.0>
-7.61953

>  <SCORE.INTRA.norm>
0.224386

>  <SCORE.RESTR>
0.0430032

>  <SCORE.RESTR.CAVITY>
0.0430032

>  <SCORE.RESTR.norm>
0.00102389

>  <SCORE.SYSTEM>
0

>  <SCORE.SYSTEM.CONST>
0

>  <SCORE.SYSTEM.DIHEDRAL>
0

>  <SCORE.SYSTEM.SOLV>
0

>  <SCORE.SYSTEM.norm>
0

>  <SCORE.heavy>
42

>  <SCORE.norm>
-0.473021

>  <RMSD>
9.010

$$$$
1NEM.B
 OpenBabel11021811403D
libRbt.so/2013.1/901 2013/11/27
 42 45  0  0  0  0  0  0  0  0999 V2000
   -2.9556   -7.6616    7.1187 O   0  0  0  0  0  0  0  0  0  0  0  0
   -3.9312   -6.9032    6.4008 C   0  0  0  0  0  0  0  0  0  0  0  0
   -3.7779   -5.3953    6.5944 C   0  0  1  0  0  0  0  0  0  0  0  0
   -2.8534   -4.8582    5.6530 O   0  0  0  0  0  0  0  0  0  0  0  0
   -5.0419   -4.5908    6.3361 C   0  0  1  0  0  0  0  0  0  0  0  0
   -5.9340   -4.8402    7.4248 O   0  0  0  0  0  0  0  0  0  0  0  0
   -4.4303   -3.2041    6.2667 C   0  0  1  0  0  0  0  0  0  0  0  0
   -3.9693   -2.7522    7.5443 O   0  0  0  0  0  0  0  0  0  0  0  0
   -3.2378   -3.5159    5.3548 C   0  0  2  0  0  0  0  0  0  0  0  0
   -6.2443   -3.7420    8.2341 C   0  0  2  0  0  0  0  0  0  0  0  0
   -5.4406   -3.8315    9.5385 C   0  0  2  0  0  0  0  0  0  0  0  0
   -5.6559   -5.1549   10.1808 N   0  3  0  0  0  0  0  0  0  0  0  0
   -5.8014   -2.6792   10.4815 C   0  0  1  0  0  0  0  0  0  0  0  0
   -5.2901   -1.4588    9.9620 O   0  0  0  0  0  0  0  0  0  0  0  0
   -7.3185   -2.5658   10.6607 C   0  0  2  0  0  0  0  0  0  0  0  0
   -7.8149   -3.6830   11.3871 O   0  0  0  0  0  0  0  0  0  0  0  0
   -7.9927   -2.4923    9.2937 C   0  0  1  0  0  0  0  0  0  0  0  0
   -7.6352   -3.6495    8.5133 O   0  0  0  0  0  0  0  0  0  0  0  0
   -9.5079   -2.4321    9.3755 C   0  0  0  0  0  0  0  0  0  0  0  0
  -10.1410   -2.6357    8.0535 N   0  3  0  0  0  0  0  0  0  0  0  0
    1.0374    0.0553   -0.0232 C   0  0  0  0  0  0  0  0  0  0  0  0
   -1.1769   -2.6315    1.2437 C   0  0  2  0  0  0  0  0  0  0  0  0
   -0.1636   -3.5559    1.9142 C   0  0  2  0  0  0  0  0  0  0  0  0
   -0.8454   -4.4502    2.8802 N   0  3  0  0  0  0  0  0  0  0  0  0
    0.8919   -2.7361    2.6443 C   0  0  1  0  0  0  0  0  0  0  0  0
    1.8700   -3.6034    3.1972 O   0  0  0  0  0  0  0  0  0  0  0  0
    1.5462   -1.7605    1.6686 C   0  0  2  0  0  0  0  0  0  0  0  0
    2.4840   -0.9434    2.3573 O   0  0  0  0  0  0  0  0  0  0  0  0
    1.9892    1.0235    0.5681 N   0  3  0  0  0  0  0  0  0  0  0  0
    0.4719   -0.8836    1.0281 C   0  0  2  0  0  0  0  0  0  0  0  0
   -0.5196   -1.7070    0.3810 O   0  0  0  0  0  0  0  0  0  0  0  0
   -6.0742   -1.0541    2.5738 C   0  0  2  0  0  0  0  0  0  0  0  0
   -7.5435   -1.1318    2.4047 N   0  3  0  0  0  0  0  0  0  0  0  0
   -5.4013   -0.8915    1.2155 C   0  0  0  0  0  0  0  0  0  0  0  0
   -3.8894   -0.8125    1.3737 C   0  0  2  0  0  0  0  0  0  0  0  0
   -3.3097   -0.6568    0.0471 N   0  3  0  0  0  0  0  0  0  0  0  0
   -3.3728   -2.0810    2.0484 C   0  0  1  0  0  0  0  0  0  0  0  0
   -1.9452   -1.9861    2.2200 O   0  0  0  0  0  0  0  0  0  0  0  0
   -4.0391   -2.2800    3.4168 C   0  0  2  0  0  0  0  0  0  0  0  0
   -3.6099   -3.5350    3.9784 O   0  0  0  0  0  0  0  0  0  0  0  0
   -5.5612   -2.2967    3.2997 C   0  0  1  0  0  0  0  0  0  0  0  0
   -6.1362   -2.3576    4.5982 O   0  0  0  0  0  0  0  0  0  0  0  0
  1  2  1  0  0  0  0
  3  2  1  6  0  0  0
  3  5  1  0  0  0  0
  3  4  1  0  0  0  0
  4  9  1  0  0  0  0
  5  7  1  0  0  0  0
  5  6  1  1  0  0  0
  7  9  1  0  0  0  0
  7  8  1  1  0  0  0
  9 40  1  6  0  0  0
 10  6  1  6  0  0  0
 10 11  1  0  0  0  0
 10 18  1  0  0  0  0
 11 13  1  0  0  0  0
 11 12  1  1  0  0  0
 13 15  1  0  0  0  0
 13 14  1  6  0  0  0
 15 17  1  0  0  0  0
 15 16  1  6  0  0  0
 17 19  1  1  0  0  0
 17 18  1  0  0  0  0
 19 20  1  0  0  0  0
 21 29  1  0  0  0  0
 22 23  1  0  0  0  0
 22 31  1  0  0  0  0
 22 38  1  1  0  0  0
 23 25  1  0  0  0  0
 23 24  1  1  0  0  0
 25 27  1  0  0  0  0
 25 26  1  6  0  0  0
 27 30  1  0  0  0  0
 27 28  1  1  0  0  0
 30 21  1  6  0  0  0
 30 31  1  0  0  0  0
 32 34  1  0  0  0  0
 32 41  1  0  0  0  0
 32 33  1  6  0  0  0
 34 35  1  0  0  0  0
 35 37  1  0  0  0  0
 35 36  1  6  0  0  0
 37 39  1  0  0  0  0
 37 38  1  1  0  0  0
 39 41  1  0  0  0  0
 39 40  1  6  0  0  0
 41 42  1  1  0  0  0
M  CHG  6  12   1  20   1  24   1  29   1  33   1  36   1
M  END
>  <CHROM.1>
-45.82579670,86.71289085,115.60324051,-102.61133837,-176.63692833,-179.69017896
168.06835920,175.23406275,71.07405798,-168.50774397,-50.17478742,-63.38942975
-76.62980326,-128.14362891,111.34676810,-177.46231424,-53.10487156,-104.66762965
-56.35867851,-97.91856495,135.05927870,75.00954749,-3.76245021,-2.82252613
5.01102938,-2.32713388,0.31067212,-1.03251253

>  <Name>
1NEM.B

>  <RI>
0

>  <Rbt.Current_Directory>
/home/itssahil/PROJECTS/Mol_Feturizer/New_Systems/rnas/1nem

>  <Rbt.Executable>
rbdock ($Id: //depot/dev/client3/rdock/2013.1/src/exe/rbdock.cxx#4 $)

>  <Rbt.Library>
libRbt.so (2013.1, Build901 2013/11/27)

>  <Rbt.Parameter_File>
/export/apps/rDock/src/rDock_2013.1_src/data/scripts/dock_solv.prm

>  <Rbt.Receptor>
prm/pocket_docking_8.prm

>  <SCORE>
-20.7118

>  <SCORE.INTER>
-35.364

>  <SCORE.INTER.CONST>
1

>  <SCORE.INTER.POLAR>
-4.84271

>  <SCORE.INTER.ROT>
9

>  <SCORE.INTER.SOLV>
30.947

>  <SCORE.INTER.VDW>
-27.3493

>  <SCORE.INTER.norm>
-0.842

>  <SCORE.INTRA>
14.193

>  <SCORE.INTRA.DIHEDRAL>
22.122

>  <SCORE.INTRA.DIHEDRAL.0>
22.4324

>  <SCORE.INTRA.POLAR>
-1.38721

>  <SCORE.INTRA.POLAR.0>
-1.83749

>  <SCORE.INTRA.REPUL>
0.0838194

>  <SCORE.INTRA.REPUL.0>
0

>  <SCORE.INTRA.SOLV>
0.15049

>  <SCORE.INTRA.SOLV.lig_0>
-160.638

>  <SCORE.INTRA.VDW>
7.35417

>  <SCORE.INTRA.VDW.0>
-7.61953

>  <SCORE.INTRA.norm>
0.337929

>  <SCORE.RESTR>
0.459187

>  <SCORE.RESTR.CAVITY>
0.459187

>  <SCORE.RESTR.norm>
0.010933

>  <SCORE.SYSTEM>
0

>  <SCORE.SYSTEM.CONST>
0

>  <SCORE.SYSTEM.DIHEDRAL>
0

>  <SCORE.SYSTEM.SOLV>
0

>  <SCORE.SYSTEM.norm>
0

>  <SCORE.heavy>
42

>  <SCORE.norm>
-0.493138

>  <RMSD>
9.012

$$$$
1NEM.B
 OpenBabel11021811403D
libRbt.so/2013.1/901 2013/11/27
 42 45  0  0  0  0  0  0  0  0999 V2000
   -3.4415   -4.3180    0.0708 O   0  0  0  0  0  0  0  0  0  0  0  0
   -3.9290   -5.3493    0.9317 C   0  0  0  0  0  0  0  0  0  0  0  0
   -3.5305   -5.1470    2.3929 C   0  0  1  0  0  0  0  0  0  0  0  0
   -2.1440   -4.8369    2.4984 O   0  0  0  0  0  0  0  0  0  0  0  0
   -4.2022   -3.9665    3.0761 C   0  0  1  0  0  0  0  0  0  0  0  0
   -5.5697   -4.3223    3.2916 O   0  0  0  0  0  0  0  0  0  0  0  0
   -3.3242   -3.8756    4.3101 C   0  0  1  0  0  0  0  0  0  0  0  0
   -3.5313   -4.9753    5.2028 O   0  0  0  0  0  0  0  0  0  0  0  0
   -1.9527   -3.9942    3.6350 C   0  0  2  0  0  0  0  0  0  0  0  0
   -6.2362   -4.9021    2.2067 C   0  0  2  0  0  0  0  0  0  0  0  0
   -6.5115   -3.8257    1.1480 C   0  0  2  0  0  0  0  0  0  0  0  0
   -7.2182   -2.6722    1.7647 N   0  3  0  0  0  0  0  0  0  0  0  0
   -7.2993   -4.4081   -0.0300 C   0  0  1  0  0  0  0  0  0  0  0  0
   -6.4633   -5.2803   -0.7790 O   0  0  0  0  0  0  0  0  0  0  0  0
   -8.5352   -5.1719    0.4552 C   0  0  2  0  0  0  0  0  0  0  0  0
   -9.4878   -4.2711    1.0061 O   0  0  0  0  0  0  0  0  0  0  0  0
   -8.1238   -6.2006    1.5046 C   0  0  1  0  0  0  0  0  0  0  0  0
   -7.4467   -5.5406    2.5918 O   0  0  0  0  0  0  0  0  0  0  0  0
   -9.2987   -6.9699    2.0823 C   0  0  0  0  0  0  0  0  0  0  0  0
  -10.0745   -6.1542    3.0428 N   0  3  0  0  0  0  0  0  0  0  0  0
   -4.2902   -0.9899    4.2979 C   0  0  0  0  0  0  0  0  0  0  0  0
   -2.8093   -1.8183    1.0043 C   0  0  2  0  0  0  0  0  0  0  0  0
   -3.9343   -1.3973    0.0618 C   0  0  2  0  0  0  0  0  0  0  0  0
   -3.4082   -1.2018   -1.3102 N   0  3  0  0  0  0  0  0  0  0  0  0
   -4.5689   -0.1012    0.5481 C   0  0  1  0  0  0  0  0  0  0  0  0
   -5.6621    0.2378   -0.2913 O   0  0  0  0  0  0  0  0  0  0  0  0
   -5.0463   -0.2749    1.9881 C   0  0  2  0  0  0  0  0  0  0  0  0
   -5.5775    0.9516    2.4730 O   0  0  0  0  0  0  0  0  0  0  0  0
   -5.6637   -1.5391    4.3674 N   0  3  0  0  0  0  0  0  0  0  0  0
   -3.8734   -0.7103    2.8644 C   0  0  2  0  0  0  0  0  0  0  0  0
   -3.2872   -1.9203    2.3430 O   0  0  0  0  0  0  0  0  0  0  0  0
    1.7030   -3.3837    1.2405 C   0  0  2  0  0  0  0  0  0  0  0  0
    3.0110   -3.8989    1.7065 N   0  3  0  0  0  0  0  0  0  0  0  0
    1.8658   -1.9720    0.6883 C   0  0  0  0  0  0  0  0  0  0  0  0
    0.5278   -1.4283    0.2073 C   0  0  2  0  0  0  0  0  0  0  0  0
    0.7514   -0.0845   -0.3069 N   0  3  0  0  0  0  0  0  0  0  0  0
   -0.4691   -1.4100    1.3636 C   0  0  1  0  0  0  0  0  0  0  0  0
   -1.7404   -0.9210    0.8936 O   0  0  0  0  0  0  0  0  0  0  0  0
   -0.6488   -2.8172    1.9499 C   0  0  2  0  0  0  0  0  0  0  0  0
   -1.5118   -2.7478    3.1010 O   0  0  0  0  0  0  0  0  0  0  0  0
    0.6871   -3.4174    2.3810 C   0  0  1  0  0  0  0  0  0  0  0  0
    0.4901   -4.7614    2.8000 O   0  0  0  0  0  0  0  0  0  0  0  0
  1  2  1  0  0  0  0
  3  2  1  6  0  0  0
  3  5  1  0  0  0  0
  3  4  1  0  0  0  0
  4  9  1  0  0  0  0
  5  7  1  0  0  0  0
  5  6  1  1  0  0  0
  7  9  1  0  0  0  0
  7  8  1  1  0  0  0
  9 40  1  6  0  0  0
 10  6  1  1  0  0  0
 10 11  1  0  0  0  0
 10 18  1  0  0  0  0
 11 13  1  0  0  0  0
 11 12  1  1  0  0  0
 13 15  1  0  0  0  0
 13 14  1  1  0  0  0
 15 17  1  0  0  0  0
 15 16  1  1  0  0  0
 17 19  1  1  0  0  0
 17 18  1  0  0  0  0
 19 20  1  0  0  0  0
 21 29  1  0  0  0  0
 22 23  1  0  0  0  0
 22 31  1  0  0  0  0
 22 38  1  1  0  0  0
 23 25  1  0  0  0  0
 23 24  1  6  0  0  0
 25 27  1  0  0  0  0
 25 26  1  6  0  0  0
 27 30  1  0  0  0  0
 27 28  1  1  0  0  0
 30 21  1  1  0  0  0
 30 31  1  0  0  0  0
 32 34  1  0  0  0  0
 32 41  1  0  0  0  0
 32 33  1  1  0  0  0
 34 35  1  0  0  0  0
 35 37  1  0  0  0  0
 35 36  1  1  0  0  0
 37 39  1  0  0  0  0
 37 38  1  6  0  0  0
 39 41  1  0  0  0  0
 39 40  1  1  0  0  0
 41 42  1  6  0  0  0
M  CHG  6  12   1  20   1  24   1  29   1  33   1  36   1
M  END
>  <CHROM.1>
60.75841634,-47.38390562,-46.36239220,-72.62972662,61.28259600,-36.18558748
177.80128679,61.66454733,163.84519471,-75.46887843,-16.38639794,33.03766581
-162.23185245,-160.27188237,3.90744041,-170.09515052,177.51874081,-29.87617876
-64.66311076,118.59548448,170.28927269,60.51753453,-3.88480477,-3.13083543
1.78215174,-0.28532329,0.06714999,2.76660198

>  <Name>
1NEM.B

>  <RI>
0

>  <Rbt.Current_Directory>
/home/itssahil/PROJECTS/Mol_Feturizer/New_Systems/rnas/1nem

>  <Rbt.Executable>
rbdock ($Id: //depot/dev/client3/rdock/2013.1/src/exe/rbdock.cxx#4 $)

>  <Rbt.Library>
libRbt.so (2013.1, Build901 2013/11/27)

>  <Rbt.Parameter_File>
/export/apps/rDock/src/rDock_2013.1_src/data/scripts/dock_solv.prm

>  <Rbt.Receptor>
prm/blind_docking_40.prm

>  <SCORE>
6.6112

>  <SCORE.INTER>
-35.7375

>  <SCORE.INTER.CONST>
1

>  <SCORE.INTER.POLAR>
-6.83592

>  <SCORE.INTER.ROT>
9

>  <SCORE.INTER.SOLV>
47.5512

>  <SCORE.INTER.VDW>
-26.489

>  <SCORE.INTER.norm>
-0.850892

>  <SCORE.INTRA>
40.4271

>  <SCORE.INTRA.DIHEDRAL>
6.34644

>  <SCORE.INTRA.DIHEDRAL.0>
22.4324

>  <SCORE.INTRA.POLAR>
-0.016098

>  <SCORE.INTRA.POLAR.0>
-1.83749

>  <SCORE.INTRA.REPUL>
0.175088

>  <SCORE.INTRA.REPUL.0>
0

>  <SCORE.INTRA.SOLV>
13.8906

>  <SCORE.INTRA.SOLV.lig_0>
-160.638

>  <SCORE.INTRA.VDW>
29.4879

>  <SCORE.INTRA.VDW.0>
-7.61953

>  <SCORE.INTRA.norm>
0.96255

>  <SCORE.RESTR>
1.92155

>  <SCORE.RESTR.CAVITY>
1.92155

>  <SCORE.RESTR.norm>
0.0457511

>  <SCORE.SYSTEM>
0

>  <SCORE.SYSTEM.CONST>
0

>  <SCORE.SYSTEM.DIHEDRAL>
0

>  <SCORE.SYSTEM.SOLV>
0

>  <SCORE.SYSTEM.norm>
0

>  <SCORE.heavy>
42

>  <SCORE.norm>
0.15741

>  <RMSD>
9.021

$$$$
1NEM.B
 OpenBabel11021811403D
libRbt.so/2013.1/901 2013/11/27
 42 45  0  0  0  0  0  0  0  0999 V2000
   -1.9203   -4.0452    6.6097 O   0  0  0  0  0  0  0  0  0  0  0  0
   -3.1986   -4.0934    5.9727 C   0  0  0  0  0  0  0  0  0  0  0  0
   -3.4630   -2.8894    5.0698 C   0  0  1  0  0  0  0  0  0  0  0  0
   -2.3679   -2.6740    4.1844 O   0  0  0  0  0  0  0  0  0  0  0  0
   -4.6443   -3.0511    4.1265 C   0  0  1  0  0  0  0  0  0  0  0  0
   -5.8328   -2.9704    4.9165 O   0  0  0  0  0  0  0  0  0  0  0  0
   -4.3683   -1.8830    3.1984 C   0  0  1  0  0  0  0  0  0  0  0  0
   -4.5868   -0.6212    3.8381 O   0  0  0  0  0  0  0  0  0  0  0  0
   -2.8685   -2.1082    2.9729 C   0  0  2  0  0  0  0  0  0  0  0  0
   -6.8896   -3.8019    4.5305 C   0  0  2  0  0  0  0  0  0  0  0  0
   -6.8383   -5.0988    5.3496 C   0  0  2  0  0  0  0  0  0  0  0  0
   -5.4911   -5.7181    5.2408 N   0  3  0  0  0  0  0  0  0  0  0  0
   -7.9428   -6.0654    4.9102 C   0  0  1  0  0  0  0  0  0  0  0  0
   -9.2076   -5.5649    5.3230 O   0  0  0  0  0  0  0  0  0  0  0  0
   -7.9372   -6.2574    3.3905 C   0  0  2  0  0  0  0  0  0  0  0  0
   -6.7727   -6.9665    2.9866 O   0  0  0  0  0  0  0  0  0  0  0  0
   -7.9835   -4.8967    2.7012 C   0  0  1  0  0  0  0  0  0  0  0  0
   -6.8710   -4.0926    3.1390 O   0  0  0  0  0  0  0  0  0  0  0  0
   -7.9267   -4.9902    1.1866 C   0  0  0  0  0  0  0  0  0  0  0  0
   -9.1869   -4.5363    0.5574 N   0  3  0  0  0  0  0  0  0  0  0  0
   -5.1185   -2.6377    0.3573 C   0  0  0  0  0  0  0  0  0  0  0  0
   -1.9222   -0.8514   -0.2082 C   0  0  2  0  0  0  0  0  0  0  0  0
   -2.4212    0.4632   -0.8031 C   0  0  2  0  0  0  0  0  0  0  0  0
   -1.3779    1.5094   -0.6834 N   0  3  0  0  0  0  0  0  0  0  0  0
   -3.6806    0.9217   -0.0800 C   0  0  1  0  0  0  0  0  0  0  0  0
   -4.1778    2.1019   -0.6919 O   0  0  0  0  0  0  0  0  0  0  0  0
   -4.7333   -0.1830   -0.1366 C   0  0  2  0  0  0  0  0  0  0  0  0
   -5.8870    0.2101    0.5955 O   0  0  0  0  0  0  0  0  0  0  0  0
   -5.5976   -2.8284   -1.0309 N   0  3  0  0  0  0  0  0  0  0  0  0
   -4.1575   -1.4661    0.4594 C   0  0  2  0  0  0  0  0  0  0  0  0
   -2.9503   -1.8380   -0.2363 O   0  0  0  0  0  0  0  0  0  0  0  0
    0.9344   -4.1457    1.3029 C   0  0  2  0  0  0  0  0  0  0  0  0
    1.7437   -5.2529    1.8619 N   0  3  0  0  0  0  0  0  0  0  0  0
    1.5778   -2.8063    1.6437 C   0  0  0  0  0  0  0  0  0  0  0  0
    0.7548   -1.6580    1.0769 C   0  0  2  0  0  0  0  0  0  0  0  0
    1.4206   -0.4133    1.4342 N   0  3  0  0  0  0  0  0  0  0  0  0
   -0.6596   -1.7029    1.6501 C   0  0  1  0  0  0  0  0  0  0  0  0
   -1.4399   -0.6302    1.0873 O   0  0  0  0  0  0  0  0  0  0  0  0
   -1.3334   -3.0451    1.3325 C   0  0  2  0  0  0  0  0  0  0  0  0
   -2.6219   -3.0956    1.9742 O   0  0  0  0  0  0  0  0  0  0  0  0
   -0.4974   -4.2214    1.8305 C   0  0  1  0  0  0  0  0  0  0  0  0
   -1.0940   -5.4402    1.4074 O   0  0  0  0  0  0  0  0  0  0  0  0
  1  2  1  0  0  0  0
  3  2  1  6  0  0  0
  3  5  1  0  0  0  0
  3  4  1  0  0  0  0
  4  9  1  0  0  0  0
  5  7  1  0  0  0  0
  5  6  1  1  0  0  0
  7  9  1  0  0  0  0
  7  8  1  1  0  0  0
  9 40  1  6  0  0  0
 10  6  1  1  0  0  0
 10 11  1  0  0  0  0
 10 18  1  0  0  0  0
 11 13  1  0  0  0  0
 11 12  1  6  0  0  0
 13 15  1  0  0  0  0
 13 14  1  6  0  0  0
 15 17  1  0  0  0  0
 15 16  1  6  0  0  0
 17 19  1  6  0  0  0
 17 18  1  0  0  0  0
 19 20  1  0  0  0  0
 21 29  1  0  0  0  0
 22 23  1  0  0  0  0
 22 31  1  0  0  0  0
 22 38  1  1  0  0  0
 23 25  1  0  0  0  0
 23 24  1  1  0  0  0
 25 27  1  0  0  0  0
 25 26  1  6  0  0  0
 27 30  1  0  0  0  0
 27 28  1  1  0  0  0
 30 21  1  6  0  0  0
 30 31  1  0  0  0  0
 32 34  1  0  0  0  0
 32 41  1  0  0  0  0
 32 33  1  1  0  0  0
 34 35  1  0  0  0  0
 35 37  1  0  0  0  0
 35 36  1  1  0  0  0
 37 39  1  0  0  0  0
 37 38  1  6  0  0  0
 39 41  1  0  0  0  0
 39 40  1  1  0  0  0
 41 42  1  6  0  0  0
M  CHG  6  12   1  20   1  24   1  29   1  33   1  36   1
M  END
>  <CHROM.1>
-50.55963774,49.93177633,-143.66519923,94.99380521,177.08131260,-87.59062163
-10.04588699,179.16874724,167.34645421,113.81183739,137.59553752,52.73075590
170.33747925,-166.14597502,60.58779754,77.03191858,-48.39480373,17.75224480
59.73604486,78.68850247,-14.00805360,75.63881766,-3.80897197,-2.84218674
2.23849297,-2.48839940,-0.05833792,-0.75518661

>  <Name>
1NEM.B

>  <RI>
0

>  <Rbt.Current_Directory>
/home/itssahil/PROJECTS/Mol_Feturizer/New_Systems/rnas/1nem

>  <Rbt.Executable>
rbdock ($Id: //depot/dev/client3/rdock/2013.1/src/exe/rbdock.cxx#4 $)

>  <Rbt.Library>
libRbt.so (2013.1, Build901 2013/11/27)

>  <Rbt.Parameter_File>
/export/apps/rDock/src/rDock_2013.1_src/data/scripts/dock_solv.prm

>  <Rbt.Receptor>
prm/blind_docking_40.prm

>  <SCORE>
-16.0984

>  <SCORE.INTER>
-49.2197

>  <SCORE.INTER.CONST>
1

>  <SCORE.INTER.POLAR>
-8.31589

>  <SCORE.INTER.ROT>
9

>  <SCORE.INTER.SOLV>
48.2675

>  <SCORE.INTER.VDW>
-30.7826

>  <SCORE.INTER.norm>
-1.1719

>  <SCORE.INTRA>
28.5065

>  <SCORE.INTRA.DIHEDRAL>
18.502

>  <SCORE.INTRA.DIHEDRAL.0>
22.4324

>  <SCORE.INTRA.POLAR>
1.69872

>  <SCORE.INTRA.POLAR.0>
-1.83749

>  <SCORE.INTRA.REPUL>
0.01612

>  <SCORE.INTRA.REPUL.0>
0

>  <SCORE.INTRA.SOLV>
-0.944452

>  <SCORE.INTRA.SOLV.lig_0>
-160.638

>  <SCORE.INTRA.VDW>
13.8714

>  <SCORE.INTRA.VDW.0>
-7.61953

>  <SCORE.INTRA.norm>
0.678726

>  <SCORE.RESTR>
4.61479

>  <SCORE.RESTR.CAVITY>
4.61479

>  <SCORE.RESTR.norm>
0.109876

>  <SCORE.SYSTEM>
0

>  <SCORE.SYSTEM.CONST>
0

>  <SCORE.SYSTEM.DIHEDRAL>
0

>  <SCORE.SYSTEM.SOLV>
0

>  <SCORE.SYSTEM.norm>
0

>  <SCORE.heavy>
42

>  <SCORE.norm>
-0.383295

>  <RMSD>
9.022

$$$$
1NEM.B
 OpenBabel11021811403D
libRbt.so/2013.1/901 2013/11/27
 42 45  0  0  0  0  0  0  0  0999 V2000
   -0.9818   -5.5532    1.2563 O   0  0  0  0  0  0  0  0  0  0  0  0
   -2.2139   -5.7704    1.9469 C   0  0  0  0  0  0  0  0  0  0  0  0
   -2.8501   -4.4781    2.4565 C   0  0  1  0  0  0  0  0  0  0  0  0
   -1.9378   -3.3896    2.3449 O   0  0  0  0  0  0  0  0  0  0  0  0
   -4.0532   -4.0048    1.6565 C   0  0  1  0  0  0  0  0  0  0  0  0
   -5.1360   -4.8891    1.9546 O   0  0  0  0  0  0  0  0  0  0  0  0
   -4.1618   -2.5939    2.2037 C   0  0  1  0  0  0  0  0  0  0  0  0
   -4.6031   -2.5748    3.5653 O   0  0  0  0  0  0  0  0  0  0  0  0
   -2.6841   -2.1931    2.1217 C   0  0  2  0  0  0  0  0  0  0  0  0
   -6.2288   -4.8448    1.0822 C   0  0  2  0  0  0  0  0  0  0  0  0
   -6.9684   -3.5125    1.2647 C   0  0  2  0  0  0  0  0  0  0  0  0
   -7.3109   -3.3111    2.6973 N   0  3  0  0  0  0  0  0  0  0  0  0
   -8.2118   -3.4522    0.3715 C   0  0  1  0  0  0  0  0  0  0  0  0
   -7.8174   -3.3291   -0.9886 O   0  0  0  0  0  0  0  0  0  0  0  0
   -9.0778   -4.7039    0.5441 C   0  0  2  0  0  0  0  0  0  0  0  0
   -9.6676   -4.7219    1.8379 O   0  0  0  0  0  0  0  0  0  0  0  0
   -8.2220   -5.9516    0.3447 C   0  0  1  0  0  0  0  0  0  0  0  0
   -7.1190   -5.9369    1.2717 O   0  0  0  0  0  0  0  0  0  0  0  0
   -8.9908   -7.2447    0.5516 C   0  0  0  0  0  0  0  0  0  0  0  0
   -8.6799   -8.2454   -0.4934 N   0  3  0  0  0  0  0  0  0  0  0  0
    3.6567    1.3741    2.7596 C   0  0  0  0  0  0  0  0  0  0  0  0
    1.4601   -0.6040    0.5259 C   0  0  2  0  0  0  0  0  0  0  0  0
    1.8916   -2.0266    0.8737 C   0  0  2  0  0  0  0  0  0  0  0  0
    0.8498   -2.9952    0.4565 N   0  3  0  0  0  0  0  0  0  0  0  0
    2.1255   -2.1522    2.3732 C   0  0  1  0  0  0  0  0  0  0  0  0
    2.6003   -3.4557    2.6734 O   0  0  0  0  0  0  0  0  0  0  0  0
    3.1439   -1.1061    2.8209 C   0  0  2  0  0  0  0  0  0  0  0  0
    3.3162   -1.1709    4.2307 O   0  0  0  0  0  0  0  0  0  0  0  0
    4.8917    1.2404    1.9534 N   0  3  0  0  0  0  0  0  0  0  0  0
    2.6522    0.2850    2.4256 C   0  0  2  0  0  0  0  0  0  0  0  0
    2.4133    0.3413    1.0045 O   0  0  0  0  0  0  0  0  0  0  0  0
   -3.1714    1.5612   -0.7341 C   0  0  2  0  0  0  0  0  0  0  0  0
   -4.2028    1.9368   -1.7284 N   0  3  0  0  0  0  0  0  0  0  0  0
   -1.7820    1.8562   -1.2879 C   0  0  0  0  0  0  0  0  0  0  0  0
   -0.7107    1.4728   -0.2766 C   0  0  2  0  0  0  0  0  0  0  0  0
    0.5863    1.7794   -0.8630 N   0  3  0  0  0  0  0  0  0  0  0  0
   -0.8207   -0.0136    0.0551 C   0  0  1  0  0  0  0  0  0  0  0  0
    0.1780   -0.3622    1.0335 O   0  0  0  0  0  0  0  0  0  0  0  0
   -2.2139   -0.3467    0.6068 C   0  0  2  0  0  0  0  0  0  0  0  0
   -2.3188   -1.7687    0.8104 O   0  0  0  0  0  0  0  0  0  0  0  0
   -3.3150    0.0876   -0.3573 C   0  0  1  0  0  0  0  0  0  0  0  0
   -4.5845   -0.1254    0.2455 O   0  0  0  0  0  0  0  0  0  0  0  0
  1  2  1  0  0  0  0
  3  2  1  6  0  0  0
  3  5  1  0  0  0  0
  3  4  1  0  0  0  0
  4  9  1  0  0  0  0
  5  7  1  0  0  0  0
  5  6  1  1  0  0  0
  7  9  1  0  0  0  0
  7  8  1  1  0  0  0
  9 40  1  6  0  0  0
 10  6  1  1  0  0  0
 10 11  1  0  0  0  0
 10 18  1  0  0  0  0
 11 13  1  0  0  0  0
 11 12  1  1  0  0  0
 13 15  1  0  0  0  0
 13 14  1  6  0  0  0
 15 17  1  0  0  0  0
 15 16  1  1  0  0  0
 17 19  1  1  0  0  0
 17 18  1  0  0  0  0
 19 20  1  0  0  0  0
 21 29  1  0  0  0  0
 22 23  1  0  0  0  0
 22 31  1  0  0  0  0
 22 38  1  1  0  0  0
 23 25  1  0  0  0  0
 23 24  1  1  0  0  0
 25 27  1  0  0  0  0
 25 26  1  6  0  0  0
 27 30  1  0  0  0  0
 27 28  1  1  0  0  0
 30 21  1  6  0  0  0
 30 31  1  0  0  0  0
 32 34  1  0  0  0  0
 32 41  1  0  0  0  0
 32 33  1  6  0  0  0
 34 35  1  0  0  0  0
 35 37  1  0  0  0  0
 35 36  1  6  0  0  0
 37 39  1  0  0  0  0
 37 38  1  1  0  0  0
 39 41  1  0  0  0  0
 39 40  1  6  0  0  0
 41 42  1  1  0  0  0
M  CHG  6  12   1  20   1  24   1  29   1  33   1  36   1
M  END
>  <CHROM.1>
-84.81557084,-11.12917403,-164.35510729,-69.76319564,70.66430099,-143.54880662
-69.91871490,-42.50609163,171.52601692,136.24063094,164.11853580,65.92459762
60.51149354,-120.46846161,34.96021931,67.20358656,165.04518209,-120.29877622
172.24256982,-81.89622902,124.65229824,-57.70104551,-2.62011143,-2.27977153
1.13830178,-2.74389306,-0.25955402,-0.41421851

>  <Name>
1NEM.B

>  <RI>
0

>  <Rbt.Current_Directory>
/home/itssahil/PROJECTS/Mol_Feturizer/New_Systems/rnas/1nem

>  <Rbt.Executable>
rbdock ($Id: //depot/dev/client3/rdock/2013.1/src/exe/rbdock.cxx#4 $)

>  <Rbt.Library>
libRbt.so (2013.1, Build901 2013/11/27)

>  <Rbt.Parameter_File>
/export/apps/rDock/src/rDock_2013.1_src/data/scripts/dock_solv.prm

>  <Rbt.Receptor>
prm/blind_docking_60.prm

>  <SCORE>
-21.2841

>  <SCORE.INTER>
-38.4844

>  <SCORE.INTER.CONST>
1

>  <SCORE.INTER.POLAR>
-7.44688

>  <SCORE.INTER.ROT>
9

>  <SCORE.INTER.SOLV>
40.5764

>  <SCORE.INTER.VDW>
-23.9588

>  <SCORE.INTER.norm>
-0.916295

>  <SCORE.INTRA>
10.5532

>  <SCORE.INTRA.DIHEDRAL>
22.4328

>  <SCORE.INTRA.DIHEDRAL.0>
22.4324

>  <SCORE.INTRA.POLAR>
-1.16646

>  <SCORE.INTRA.POLAR.0>
-1.83749

>  <SCORE.INTRA.REPUL>
0

>  <SCORE.INTRA.REPUL.0>
0

>  <SCORE.INTRA.SOLV>
0.447779

>  <SCORE.INTRA.SOLV.lig_0>
-160.638

>  <SCORE.INTRA.VDW>
3.0788

>  <SCORE.INTRA.VDW.0>
-7.61953

>  <SCORE.INTRA.norm>
0.251266

>  <SCORE.RESTR>
6.64715

>  <SCORE.RESTR.CAVITY>
6.64715

>  <SCORE.RESTR.norm>
0.158265

>  <SCORE.SYSTEM>
0

>  <SCORE.SYSTEM.CONST>
0

>  <SCORE.SYSTEM.DIHEDRAL>
0

>  <SCORE.SYSTEM.SOLV>
0

>  <SCORE.SYSTEM.norm>
0

>  <SCORE.heavy>
42

>  <SCORE.norm>
-0.506764

>  <RMSD>
9.029

$$$$
1NEM.B
 OpenBabel11021811403D
libRbt.so/2013.1/901 2013/11/27
 42 45  0  0  0  0  0  0  0  0999 V2000
   -6.9650   -2.8288    5.0437 O   0  0  0  0  0  0  0  0  0  0  0  0
   -6.6917   -1.7576    4.1381 C   0  0  0  0  0  0  0  0  0  0  0  0
   -5.9602   -2.2129    2.8762 C   0  0  1  0  0  0  0  0  0  0  0  0
   -5.4457   -1.0935    2.1608 O   0  0  0  0  0  0  0  0  0  0  0  0
   -4.7232   -3.0594    3.1305 C   0  0  1  0  0  0  0  0  0  0  0  0
   -5.1705   -4.3428    3.5736 O   0  0  0  0  0  0  0  0  0  0  0  0
   -4.1057   -2.9991    1.7460 C   0  0  1  0  0  0  0  0  0  0  0  0
   -4.8613   -3.7433    0.7844 O   0  0  0  0  0  0  0  0  0  0  0  0
   -4.2539   -1.4955    1.4852 C   0  0  2  0  0  0  0  0  0  0  0  0
   -6.5192   -4.6391    3.3487 C   0  0  2  0  0  0  0  0  0  0  0  0
   -6.8569   -5.9864    4.0015 C   0  0  2  0  0  0  0  0  0  0  0  0
   -5.9071   -7.0313    3.5362 N   0  3  0  0  0  0  0  0  0  0  0  0
   -8.3113   -6.3786    3.7217 C   0  0  1  0  0  0  0  0  0  0  0  0
   -9.1845   -5.5270    4.4517 O   0  0  0  0  0  0  0  0  0  0  0  0
   -8.6319   -6.2835    2.2269 C   0  0  2  0  0  0  0  0  0  0  0  0
   -7.9311   -7.2896    1.5065 O   0  0  0  0  0  0  0  0  0  0  0  0
   -8.2429   -4.9031    1.7053 C   0  0  1  0  0  0  0  0  0  0  0  0
   -6.8465   -4.6618    1.9654 O   0  0  0  0  0  0  0  0  0  0  0  0
   -8.4771   -4.7383    0.2140 C   0  0  0  0  0  0  0  0  0  0  0  0
   -9.8449   -4.2563   -0.0804 N   0  3  0  0  0  0  0  0  0  0  0  0
    3.5968   -0.5049    1.3799 C   0  0  0  0  0  0  0  0  0  0  0  0
    0.3390   -1.7848    0.1651 C   0  0  2  0  0  0  0  0  0  0  0  0
    0.4251   -3.2510    0.5822 C   0  0  2  0  0  0  0  0  0  0  0  0
   -0.9286   -3.8541    0.6198 N   0  3  0  0  0  0  0  0  0  0  0  0
    1.0679   -3.3684    1.9577 C   0  0  1  0  0  0  0  0  0  0  0  0
    1.2129   -4.7382    2.3001 O   0  0  0  0  0  0  0  0  0  0  0  0
    2.4324   -2.6829    1.9443 C   0  0  2  0  0  0  0  0  0  0  0  0
    3.0091   -2.7277    3.2431 O   0  0  0  0  0  0  0  0  0  0  0  0
    3.4058    0.9481    1.1672 N   0  3  0  0  0  0  0  0  0  0  0  0
    2.2679   -1.2297    1.5036 C   0  0  2  0  0  0  0  0  0  0  0  0
    1.6249   -1.1722    0.2141 O   0  0  0  0  0  0  0  0  0  0  0  0
   -3.0548    2.0450   -0.4329 C   0  0  2  0  0  0  0  0  0  0  0  0
   -4.1295    2.7639   -1.1549 N   0  3  0  0  0  0  0  0  0  0  0  0
   -2.1496    1.3263   -1.4270 C   0  0  0  0  0  0  0  0  0  0  0  0
   -1.0406    0.5805   -0.6981 C   0  0  2  0  0  0  0  0  0  0  0  0
   -0.2147   -0.0798   -1.6992 N   0  3  0  0  0  0  0  0  0  0  0  0
   -1.6477   -0.4374    0.2645 C   0  0  1  0  0  0  0  0  0  0  0  0
   -0.5926   -1.1190    0.9706 O   0  0  0  0  0  0  0  0  0  0  0  0
   -2.5742    0.2536    1.2746 C   0  0  2  0  0  0  0  0  0  0  0  0
   -3.2096   -0.7426    2.0982 O   0  0  0  0  0  0  0  0  0  0  0  0
   -3.6594    1.0659    0.5722 C   0  0  1  0  0  0  0  0  0  0  0  0
   -4.4138    1.7852    1.5387 O   0  0  0  0  0  0  0  0  0  0  0  0
  1  2  1  0  0  0  0
  3  2  1  1  0  0  0
  3  5  1  0  0  0  0
  3  4  1  0  0  0  0
  4  9  1  0  0  0  0
  5  7  1  0  0  0  0
  5  6  1  6  0  0  0
  7  9  1  0  0  0  0
  7  8  1  6  0  0  0
  9 40  1  1  0  0  0
 10  6  1  6  0  0  0
 10 11  1  0  0  0  0
 10 18  1  0  0  0  0
 11 13  1  0  0  0  0
 11 12  1  6  0  0  0
 13 15  1  0  0  0  0
 13 14  1  1  0  0  0
 15 17  1  0  0  0  0
 15 16  1  6  0  0  0
 17 19  1  6  0  0  0
 17 18  1  0  0  0  0
 19 20  1  0  0  0  0
 21 29  1  0  0  0  0
 22 23  1  0  0  0  0
 22 31  1  0  0  0  0
 22 38  1  1  0  0  0
 23 25  1  0  0  0  0
 23 24  1  1  0  0  0
 25 27  1  0  0  0  0
 25 26  1  6  0  0  0
 27 30  1  0  0  0  0
 27 28  1  1  0  0  0
 30 21  1  6  0  0  0
 30 31  1  0  0  0  0
 32 34  1  0  0  0  0
 32 41  1  0  0  0  0
 32 33  1  6  0  0  0
 34 35  1  0  0  0  0
 35 37  1  0  0  0  0
 35 36  1  6  0  0  0
 37 39  1  0  0  0  0
 37 38  1  1  0  0  0
 39 41  1  0  0  0  0
 39 40  1  6  0  0  0
 41 42  1  1  0  0  0
M  CHG  6  12   1  20   1  24   1  29   1  33   1  36   1
M  END
>  <CHROM.1>
-114.90264461,-166.75254643,15.68147094,-174.60203397,-41.16625949,-112.35207024
-81.16316465,51.54091984,179.42189265,88.64116718,164.27051032,-170.81836629
68.60383331,-124.73905578,-126.96945572,-65.06647398,169.68913444,101.79567787
74.20127159,-57.80211018,-74.57535270,70.08072733,-3.42613973,-2.44954896
1.61640484,2.64512080,0.01009212,2.70948625

>  <Name>
1NEM.B

>  <RI>
0

>  <Rbt.Current_Directory>
/home/itssahil/PROJECTS/Mol_Feturizer/New_Systems/rnas/1nem

>  <Rbt.Executable>
rbdock ($Id: //depot/dev/client3/rdock/2013.1/src/exe/rbdock.cxx#4 $)

>  <Rbt.Library>
libRbt.so (2013.1, Build901 2013/11/27)

>  <Rbt.Parameter_File>
/export/apps/rDock/src/rDock_2013.1_src/data/scripts/dock_solv.prm

>  <Rbt.Receptor>
prm/blind_docking_20.prm

>  <SCORE>
-5.56896

>  <SCORE.INTER>
-44.289

>  <SCORE.INTER.CONST>
1

>  <SCORE.INTER.POLAR>
-9.50459

>  <SCORE.INTER.ROT>
9

>  <SCORE.INTER.SOLV>
51.4811

>  <SCORE.INTER.VDW>
-24.6044

>  <SCORE.INTER.norm>
-1.0545

>  <SCORE.INTRA>
31.1313

>  <SCORE.INTRA.DIHEDRAL>
20.843

>  <SCORE.INTRA.DIHEDRAL.0>
22.4324

>  <SCORE.INTRA.POLAR>
-0.458942

>  <SCORE.INTRA.POLAR.0>
-1.83749

>  <SCORE.INTRA.REPUL>
0.0614941

>  <SCORE.INTRA.REPUL.0>
0

>  <SCORE.INTRA.SOLV>
-2.13556

>  <SCORE.INTRA.SOLV.lig_0>
-160.638

>  <SCORE.INTRA.VDW>
23.0304

>  <SCORE.INTRA.VDW.0>
-7.61953

>  <SCORE.INTRA.norm>
0.74122

>  <SCORE.RESTR>
7.58873

>  <SCORE.RESTR.CAVITY>
7.58873

>  <SCORE.RESTR.norm>
0.180684

>  <SCORE.SYSTEM>
0

>  <SCORE.SYSTEM.CONST>
0

>  <SCORE.SYSTEM.DIHEDRAL>
0

>  <SCORE.SYSTEM.SOLV>
0

>  <SCORE.SYSTEM.norm>
0

>  <SCORE.heavy>
42

>  <SCORE.norm>
-0.132594

>  <RMSD>
9.038

$$$$
1NEM.B
 OpenBabel11021811403D
libRbt.so/2013.1/901 2013/11/27
 42 45  0  0  0  0  0  0  0  0999 V2000
    6.4234    3.4299   -2.5985 O   0  0  0  0  0  0  0  0  0  0  0  0
    6.1069    2.2995   -1.7836 C   0  0  0  0  0  0  0  0  0  0  0  0
    4.7662    1.6601   -2.1421 C   0  0  1  0  0  0  0  0  0  0  0  0
    4.5443    0.4867   -1.3653 O   0  0  0  0  0  0  0  0  0  0  0  0
    3.5505    2.5176   -1.8290 C   0  0  1  0  0  0  0  0  0  0  0  0
    3.5237    3.5813   -2.7836 O   0  0  0  0  0  0  0  0  0  0  0  0
    2.4721    1.4591   -1.9652 C   0  0  1  0  0  0  0  0  0  0  0  0
    2.2852    1.0498   -3.3241 O   0  0  0  0  0  0  0  0  0  0  0  0
    3.1391    0.3360   -1.1622 C   0  0  2  0  0  0  0  0  0  0  0  0
    2.3841    4.3927   -2.7736 C   0  0  2  0  0  0  0  0  0  0  0  0
    2.1605    4.9685   -4.1785 C   0  0  2  0  0  0  0  0  0  0  0  0
    3.3966    5.6423   -4.6565 N   0  3  0  0  0  0  0  0  0  0  0  0
    0.9569    5.9164   -4.1942 C   0  0  1  0  0  0  0  0  0  0  0  0
   -0.2422    5.1683   -4.0424 O   0  0  0  0  0  0  0  0  0  0  0  0
    1.0583    6.9573   -3.0751 C   0  0  2  0  0  0  0  0  0  0  0  0
    2.1249    7.8609   -3.3361 O   0  0  0  0  0  0  0  0  0  0  0  0
    1.2861    6.2547   -1.7397 C   0  0  1  0  0  0  0  0  0  0  0  0
    2.4719    5.4399   -1.8161 O   0  0  0  0  0  0  0  0  0  0  0  0
    1.4531    7.2173   -0.5771 C   0  0  0  0  0  0  0  0  0  0  0  0
    2.1078    6.5735    0.5834 N   0  3  0  0  0  0  0  0  0  0  0  0
    8.8735    0.6804    4.0025 C   0  0  0  0  0  0  0  0  0  0  0  0
    5.3225    1.4095    3.2374 C   0  0  2  0  0  0  0  0  0  0  0  0
    5.4362    2.7948    2.6057 C   0  0  2  0  0  0  0  0  0  0  0  0
    4.2236    3.0963    1.8080 N   0  3  0  0  0  0  0  0  0  0  0  0
    6.6620    2.8617    1.7047 C   0  0  1  0  0  0  0  0  0  0  0  0
    6.8001    4.1754    1.1854 O   0  0  0  0  0  0  0  0  0  0  0  0
    7.9055    2.4795    2.5044 C   0  0  2  0  0  0  0  0  0  0  0  0
    9.0446    2.4723    1.6536 O   0  0  0  0  0  0  0  0  0  0  0  0
    9.3644   -0.6738    3.6586 N   0  3  0  0  0  0  0  0  0  0  0  0
    7.7111    1.0936    3.1166 C   0  0  2  0  0  0  0  0  0  0  0  0
    6.5212    1.0737    3.9311 O   0  0  0  0  0  0  0  0  0  0  0  0
    2.0844   -2.6193    2.1730 C   0  0  2  0  0  0  0  0  0  0  0  0
    0.7966   -3.3292    2.3482 N   0  3  0  0  0  0  0  0  0  0  0  0
    2.6005   -2.1353    3.5234 C   0  0  0  0  0  0  0  0  0  0  0  0
    3.9238   -1.4011    3.3583 C   0  0  2  0  0  0  0  0  0  0  0  0
    4.3613   -0.9682    4.6779 N   0  3  0  0  0  0  0  0  0  0  0  0
    3.7394   -0.2057    2.4264 C   0  0  1  0  0  0  0  0  0  0  0  0
    5.0019    0.4669    2.2531 O   0  0  0  0  0  0  0  0  0  0  0  0
    3.2102   -0.6582    1.0585 C   0  0  2  0  0  0  0  0  0  0  0  0
    2.9489    0.4989    0.2415 O   0  0  0  0  0  0  0  0  0  0  0  0
    1.9162   -1.4564    1.1964 C   0  0  1  0  0  0  0  0  0  0  0  0
    1.5308   -1.9590   -0.0762 O   0  0  0  0  0  0  0  0  0  0  0  0
  1  2  1  0  0  0  0
  3  2  1  1  0  0  0
  3  5  1  0  0  0  0
  3  4  1  0  0  0  0
  4  9  1  0  0  0  0
  5  7  1  0  0  0  0
  5  6  1  6  0  0  0
  7  9  1  0  0  0  0
  7  8  1  6  0  0  0
  9 40  1  1  0  0  0
 10  6  1  6  0  0  0
 10 11  1  0  0  0  0
 10 18  1  0  0  0  0
 11 13  1  0  0  0  0
 11 12  1  1  0  0  0
 13 15  1  0  0  0  0
 13 14  1  1  0  0  0
 15 17  1  0  0  0  0
 15 16  1  6  0  0  0
 17 19  1  1  0  0  0
 17 18  1  0  0  0  0
 19 20  1  0  0  0  0
 21 29  1  0  0  0  0
 22 23  1  0  0  0  0
 22 31  1  0  0  0  0
 22 38  1  6  0  0  0
 23 25  1  0  0  0  0
 23 24  1  6  0  0  0
 25 27  1  0  0  0  0
 25 26  1  1  0  0  0
 27 30  1  0  0  0  0
 27 28  1  6  0  0  0
 30 21  1  1  0  0  0
 30 31  1  0  0  0  0
 32 34  1  0  0  0  0
 32 41  1  0  0  0  0
 32 33  1  1  0  0  0
 34 35  1  0  0  0  0
 35 37  1  0  0  0  0
 35 36  1  1  0  0  0
 37 39  1  0  0  0  0
 37 38  1  6  0  0  0
 39 41  1  0  0  0  0
 39 40  1  6  0  0  0
 41 42  1  6  0  0  0
M  CHG  6  12   1  20   1  24   1  29   1  33   1  36   1
M  END
>  <CHROM.1>
-178.66353570,175.94569989,172.24764688,-151.96807344,-57.32978229,-81.51610915
-69.19727379,-58.00603527,73.37256640,-160.85617441,-72.77741204,-130.13309306
84.49169966,-117.58500853,-27.00287055,64.26540980,67.69064225,-106.80479674
175.57411454,-85.08316021,148.11468717,171.72305830,3.96926433,2.18875336
0.07577980,-2.01933742,0.51169556,2.57667482

>  <Name>
1NEM.B

>  <RI>
0

>  <Rbt.Current_Directory>
/home/itssahil/PROJECTS/Mol_Feturizer/New_Systems/rnas/1nem

>  <Rbt.Executable>
rbdock ($Id: //depot/dev/client3/rdock/2013.1/src/exe/rbdock.cxx#4 $)

>  <Rbt.Library>
libRbt.so (2013.1, Build901 2013/11/27)

>  <Rbt.Parameter_File>
/export/apps/rDock/src/rDock_2013.1_src/data/scripts/dock_solv.prm

>  <Rbt.Receptor>
prm/pocket_docking_7.prm

>  <SCORE>
-20.1815

>  <SCORE.INTER>
-24.6902

>  <SCORE.INTER.CONST>
1

>  <SCORE.INTER.POLAR>
-3.66643

>  <SCORE.INTER.ROT>
9

>  <SCORE.INTER.SOLV>
22.8367

>  <SCORE.INTER.VDW>
-21.4509

>  <SCORE.INTER.norm>
-0.587861

>  <SCORE.INTRA>
4.50709

>  <SCORE.INTRA.DIHEDRAL>
12.7289

>  <SCORE.INTRA.DIHEDRAL.0>
22.4324

>  <SCORE.INTRA.POLAR>
-0.623491

>  <SCORE.INTRA.POLAR.0>
-1.83749

>  <SCORE.INTRA.REPUL>
0

>  <SCORE.INTRA.REPUL.0>
0

>  <SCORE.INTRA.SOLV>
-3.26562

>  <SCORE.INTRA.SOLV.lig_0>
-160.638

>  <SCORE.INTRA.VDW>
1.89532

>  <SCORE.INTRA.VDW.0>
-7.61953

>  <SCORE.INTRA.norm>
0.107312

>  <SCORE.RESTR>
0.00155343

>  <SCORE.RESTR.CAVITY>
0.00155343

>  <SCORE.RESTR.norm>
3.69865e-05

>  <SCORE.SYSTEM>
0

>  <SCORE.SYSTEM.CONST>
0

>  <SCORE.SYSTEM.DIHEDRAL>
0

>  <SCORE.SYSTEM.SOLV>
0

>  <SCORE.SYSTEM.norm>
0

>  <SCORE.heavy>
42

>  <SCORE.norm>
-0.480512

>  <RMSD>
9.039

$$$$
1NEM.B
 OpenBabel11021811403D
libRbt.so/2013.1/901 2013/11/27
 42 45  0  0  0  0  0  0  0  0999 V2000
   -4.1709    1.8027    1.9355 O   0  0  0  0  0  0  0  0  0  0  0  0
   -4.4248    1.7483    0.5303 C   0  0  0  0  0  0  0  0  0  0  0  0
   -3.7936    0.5317   -0.1451 C   0  0  1  0  0  0  0  0  0  0  0  0
   -2.4823    0.8378   -0.6102 O   0  0  0  0  0  0  0  0  0  0  0  0
   -3.5659   -0.6575    0.7744 C   0  0  1  0  0  0  0  0  0  0  0  0
   -4.8458   -1.2289    1.0546 O   0  0  0  0  0  0  0  0  0  0  0  0
   -2.6419   -1.4701   -0.1132 C   0  0  1  0  0  0  0  0  0  0  0  0
   -3.3239   -2.0158   -1.2473 O   0  0  0  0  0  0  0  0  0  0  0  0
   -1.6926   -0.3505   -0.5560 C   0  0  2  0  0  0  0  0  0  0  0  0
   -4.8417   -2.5146    1.6062 C   0  0  2  0  0  0  0  0  0  0  0  0
   -5.1893   -3.5350    0.5138 C   0  0  2  0  0  0  0  0  0  0  0  0
   -6.4601   -3.1524   -0.1563 N   0  3  0  0  0  0  0  0  0  0  0  0
   -5.2591   -4.9517    1.0931 C   0  0  1  0  0  0  0  0  0  0  0  0
   -3.9516   -5.3934    1.4338 O   0  0  0  0  0  0  0  0  0  0  0  0
   -6.1567   -4.9982    2.3335 C   0  0  2  0  0  0  0  0  0  0  0  0
   -7.5141   -4.7815    1.9693 O   0  0  0  0  0  0  0  0  0  0  0  0
   -5.7090   -3.9338    3.3312 C   0  0  1  0  0  0  0  0  0  0  0  0
   -5.7376   -2.6373    2.7032 O   0  0  0  0  0  0  0  0  0  0  0  0
   -6.5807   -3.8723    4.5731 C   0  0  0  0  0  0  0  0  0  0  0  0
   -6.9818   -2.4855    4.8983 N   0  3  0  0  0  0  0  0  0  0  0  0
    5.3861    2.8073    1.6469 C   0  0  0  0  0  0  0  0  0  0  0  0
    1.9835    1.6423    0.7568 C   0  0  2  0  0  0  0  0  0  0  0  0
    1.7602    2.3703   -0.5665 C   0  0  2  0  0  0  0  0  0  0  0  0
    0.6770    1.7141   -1.3369 N   0  3  0  0  0  0  0  0  0  0  0  0
    3.0404    2.3645   -1.3913 C   0  0  1  0  0  0  0  0  0  0  0  0
    2.8426    3.1101   -2.5827 O   0  0  0  0  0  0  0  0  0  0  0  0
    4.1778    2.9726   -0.5737 C   0  0  2  0  0  0  0  0  0  0  0  0
    5.3919    2.9077   -1.3107 O   0  0  0  0  0  0  0  0  0  0  0  0
    5.1345    4.2458    1.8929 N   0  3  0  0  0  0  0  0  0  0  0  0
    4.3296    2.2041    0.7377 C   0  0  2  0  0  0  0  0  0  0  0  0
    3.0834    2.2101    1.4632 O   0  0  0  0  0  0  0  0  0  0  0  0
    0.4302   -3.2777    2.0788 C   0  0  2  0  0  0  0  0  0  0  0  0
   -0.2809   -4.2004    2.9933 N   0  3  0  0  0  0  0  0  0  0  0  0
    1.6523   -2.6915    2.7767 C   0  0  0  0  0  0  0  0  0  0  0  0
    2.3924   -1.7386    1.8486 C   0  0  2  0  0  0  0  0  0  0  0  0
    3.5440   -1.2170    2.5711 N   0  3  0  0  0  0  0  0  0  0  0  0
    1.4612   -0.6074    1.4188 C   0  0  1  0  0  0  0  0  0  0  0  0
    2.1604    0.2741    0.5186 O   0  0  0  0  0  0  0  0  0  0  0  0
    0.2134   -1.1652    0.7202 C   0  0  2  0  0  0  0  0  0  0  0  0
   -0.6900   -0.0837    0.4222 O   0  0  0  0  0  0  0  0  0  0  0  0
   -0.5153   -2.1764    1.6019 C   0  0  1  0  0  0  0  0  0  0  0  0
   -1.5877   -2.7567    0.8713 O   0  0  0  0  0  0  0  0  0  0  0  0
  1  2  1  0  0  0  0
  3  2  1  1  0  0  0
  3  5  1  0  0  0  0
  3  4  1  0  0  0  0
  4  9  1  0  0  0  0
  5  7  1  0  0  0  0
  5  6  1  6  0  0  0
  7  9  1  0  0  0  0
  7  8  1  6  0  0  0
  9 40  1  1  0  0  0
 10  6  1  6  0  0  0
 10 11  1  0  0  0  0
 10 18  1  0  0  0  0
 11 13  1  0  0  0  0
 11 12  1  1  0  0  0
 13 15  1  0  0  0  0
 13 14  1  1  0  0  0
 15 17  1  0  0  0  0
 15 16  1  6  0  0  0
 17 19  1  1  0  0  0
 17 18  1  0  0  0  0
 19 20  1  0  0  0  0
 21 29  1  0  0  0  0
 22 23  1  0  0  0  0
 22 31  1  0  0  0  0
 22 38  1  6  0  0  0
 23 25  1  0  0  0  0
 23 24  1  6  0  0  0
 25 27  1  0  0  0  0
 25 26  1  6  0  0  0
 27 30  1  0  0  0  0
 27 28  1  6  0  0  0
 30 21  1  1  0  0  0
 30 31  1  0  0  0  0
 32 34  1  0  0  0  0
 32 41  1  0  0  0  0
 32 33  1  1  0  0  0
 34 35  1  0  0  0  0
 35 37  1  0  0  0  0
 35 36  1  1  0  0  0
 37 39  1  0  0  0  0
 37 38  1  6  0  0  0
 39 41  1  0  0  0  0
 39 40  1  1  0  0  0
 41 42  1  6  0  0  0
M  CHG  6  12   1  20   1  24   1  29   1  33   1  36   1
M  END
>  <CHROM.1>
61.76912258,-90.72402424,164.75574596,-102.50046997,-173.28682288,177.03410055
145.75701781,-61.04636029,-91.46590108,-132.01151088,-22.19591050,54.11268778
-55.87790960,-136.56760914,-36.27900194,-174.78329300,-165.04013519,-78.57055001
78.72994650,-135.76694795,162.10774542,-49.27655687,-1.17356895,-0.79909638
1.00830357,2.60016992,0.15950143,2.56814261

>  <Name>
1NEM.B

>  <RI>
0

>  <Rbt.Current_Directory>
/home/itssahil/PROJECTS/Mol_Feturizer/New_Systems/rnas/1nem

>  <Rbt.Executable>
rbdock ($Id: //depot/dev/client3/rdock/2013.1/src/exe/rbdock.cxx#4 $)

>  <Rbt.Library>
libRbt.so (2013.1, Build901 2013/11/27)

>  <Rbt.Parameter_File>
/export/apps/rDock/src/rDock_2013.1_src/data/scripts/dock_solv.prm

>  <Rbt.Receptor>
prm/pocket_docking_4.prm

>  <SCORE>
-12.4211

>  <SCORE.INTER>
-48.3443

>  <SCORE.INTER.CONST>
1

>  <SCORE.INTER.POLAR>
-7.93052

>  <SCORE.INTER.ROT>
9

>  <SCORE.INTER.SOLV>
38.9866

>  <SCORE.INTER.VDW>
-28.39

>  <SCORE.INTER.norm>
-1.15105

>  <SCORE.INTRA>
35.596

>  <SCORE.INTRA.DIHEDRAL>
19.6189

>  <SCORE.INTRA.DIHEDRAL.0>
22.4324

>  <SCORE.INTRA.POLAR>
1.32172

>  <SCORE.INTRA.POLAR.0>
-1.83749

>  <SCORE.INTRA.REPUL>
0

>  <SCORE.INTRA.REPUL.0>
0

>  <SCORE.INTRA.SOLV>
2.13182

>  <SCORE.INTRA.SOLV.lig_0>
-160.638

>  <SCORE.INTRA.VDW>
20.2267

>  <SCORE.INTRA.VDW.0>
-7.61953

>  <SCORE.INTRA.norm>
0.847523

>  <SCORE.RESTR>
0.327238

>  <SCORE.RESTR.CAVITY>
0.327238

>  <SCORE.RESTR.norm>
0.00779138

>  <SCORE.SYSTEM>
0

>  <SCORE.SYSTEM.CONST>
0

>  <SCORE.SYSTEM.DIHEDRAL>
0

>  <SCORE.SYSTEM.SOLV>
0

>  <SCORE.SYSTEM.norm>
0

>  <SCORE.heavy>
42

>  <SCORE.norm>
-0.295741

>  <RMSD>
9.048

$$$$
1NEM.B
 OpenBabel11021811403D
libRbt.so/2013.1/901 2013/11/27
 42 45  0  0  0  0  0  0  0  0999 V2000
   -4.8995    1.8154    2.4117 O   0  0  0  0  0  0  0  0  0  0  0  0
   -4.0704    2.1851    1.3080 C   0  0  0  0  0  0  0  0  0  0  0  0
   -3.7178    1.0055    0.4030 C   0  0  1  0  0  0  0  0  0  0  0  0
   -2.4215    1.1749   -0.1629 O   0  0  0  0  0  0  0  0  0  0  0  0
   -3.6116   -0.3324    1.1172 C   0  0  1  0  0  0  0  0  0  0  0  0
   -4.9388   -0.7369    1.4611 O   0  0  0  0  0  0  0  0  0  0  0  0
   -2.9228   -1.1299    0.0257 C   0  0  1  0  0  0  0  0  0  0  0  0
   -3.7875   -1.3820   -1.0869 O   0  0  0  0  0  0  0  0  0  0  0  0
   -1.8423   -0.1144   -0.3644 C   0  0  2  0  0  0  0  0  0  0  0  0
   -5.0832   -2.0448    1.9362 C   0  0  2  0  0  0  0  0  0  0  0  0
   -6.5711   -2.4210    1.9387 C   0  0  2  0  0  0  0  0  0  0  0  0
   -7.3542   -1.4009    2.6847 N   0  3  0  0  0  0  0  0  0  0  0  0
   -6.7775   -3.8257    2.5147 C   0  0  1  0  0  0  0  0  0  0  0  0
   -6.2814   -4.7945    1.6004 O   0  0  0  0  0  0  0  0  0  0  0  0
   -6.0671   -3.9803    3.8629 C   0  0  2  0  0  0  0  0  0  0  0  0
   -6.7037   -3.1802    4.8512 O   0  0  0  0  0  0  0  0  0  0  0  0
   -4.6044   -3.5685    3.7225 C   0  0  1  0  0  0  0  0  0  0  0  0
   -4.5258   -2.2157    3.2329 O   0  0  0  0  0  0  0  0  0  0  0  0
   -3.8340   -3.6394    5.0292 C   0  0  0  0  0  0  0  0  0  0  0  0
   -3.8473   -5.0025    5.6051 N   0  3  0  0  0  0  0  0  0  0  0  0
    4.7821    3.3604    1.1172 C   0  0  0  0  0  0  0  0  0  0  0  0
    1.5061    1.9451    0.1213 C   0  0  2  0  0  0  0  0  0  0  0  0
    1.0911    2.9135   -0.9838 C   0  0  2  0  0  0  0  0  0  0  0  0
    0.0496    2.2983   -1.8407 N   0  3  0  0  0  0  0  0  0  0  0  0
    2.2961    3.2807   -1.8395 C   0  0  1  0  0  0  0  0  0  0  0  0
    1.9138    4.2398   -2.8134 O   0  0  0  0  0  0  0  0  0  0  0  0
    3.4010    3.8466   -0.9502 C   0  0  2  0  0  0  0  0  0  0  0  0
    4.5549    4.1276   -1.7319 O   0  0  0  0  0  0  0  0  0  0  0  0
    6.0655    3.6646    0.4439 N   0  3  0  0  0  0  0  0  0  0  0  0
    3.7498    2.8317    0.1367 C   0  0  2  0  0  0  0  0  0  0  0  0
    2.5709    2.4919    0.8947 O   0  0  0  0  0  0  0  0  0  0  0  0
    1.3091   -3.3196    0.8040 C   0  0  2  0  0  0  0  0  0  0  0  0
    1.1521   -4.5015    1.6825 N   0  3  0  0  0  0  0  0  0  0  0  0
    2.6465   -2.6410    1.0775 C   0  0  0  0  0  0  0  0  0  0  0  0
    2.8208   -1.4221    0.1824 C   0  0  2  0  0  0  0  0  0  0  0  0
    4.1118   -0.8234    0.4906 N   0  3  0  0  0  0  0  0  0  0  0  0
    1.6870   -0.4304    0.4324 C   0  0  1  0  0  0  0  0  0  0  0  0
    1.8436    0.7070   -0.4384 O   0  0  0  0  0  0  0  0  0  0  0  0
    0.3233   -1.0862    0.1750 C   0  0  2  0  0  0  0  0  0  0  0  0
   -0.7243   -0.1596    0.5194 O   0  0  0  0  0  0  0  0  0  0  0  0
    0.1454   -2.3514    1.0107 C   0  0  1  0  0  0  0  0  0  0  0  0
   -1.0720   -2.9906    0.6503 O   0  0  0  0  0  0  0  0  0  0  0  0
  1  2  1  0  0  0  0
  3  2  1  1  0  0  0
  3  5  1  0  0  0  0
  3  4  1  0  0  0  0
  4  9  1  0  0  0  0
  5  7  1  0  0  0  0
  5  6  1  6  0  0  0
  7  9  1  0  0  0  0
  7  8  1  6  0  0  0
  9 40  1  1  0  0  0
 10  6  1  1  0  0  0
 10 11  1  0  0  0  0
 10 18  1  0  0  0  0
 11 13  1  0  0  0  0
 11 12  1  1  0  0  0
 13 15  1  0  0  0  0
 13 14  1  6  0  0  0
 15 17  1  0  0  0  0
 15 16  1  1  0  0  0
 17 19  1  1  0  0  0
 17 18  1  0  0  0  0
 19 20  1  0  0  0  0
 21 29  1  0  0  0  0
 22 23  1  0  0  0  0
 22 31  1  0  0  0  0
 22 38  1  6  0  0  0
 23 25  1  0  0  0  0
 23 24  1  6  0  0  0
 25 27  1  0  0  0  0
 25 26  1  6  0  0  0
 27 30  1  0  0  0  0
 27 28  1  6  0  0  0
 30 21  1  1  0  0  0
 30 31  1  0  0  0  0
 32 34  1  0  0  0  0
 32 41  1  0  0  0  0
 32 33  1  1  0  0  0
 34 35  1  0  0  0  0
 35 37  1  0  0  0  0
 35 36  1  1  0  0  0
 37 39  1  0  0  0  0
 37 38  1  6  0  0  0
 39 41  1  0  0  0  0
 39 40  1  1  0  0  0
 41 42  1  6  0  0  0
M  CHG  6  12   1  20   1  24   1  29   1  33   1  36   1
M  END
>  <CHROM.1>
-164.94976841,-147.64595642,170.09218283,-166.70455440,145.43975686,-156.62554546
79.81485710,-62.85695952,50.02783236,58.90895595,175.62741861,-62.04355887
158.03844904,-153.93410072,-60.61966870,-64.31331231,-51.74418921,144.70789296
36.30884671,-142.52760742,139.19224549,-58.71073224,-1.14481987,-0.41821514
0.98437723,2.51698989,-0.09763402,2.69566481

>  <Name>
1NEM.B

>  <RI>
0

>  <Rbt.Current_Directory>
/home/itssahil/PROJECTS/Mol_Feturizer/New_Systems/rnas/1nem

>  <Rbt.Executable>
rbdock ($Id: //depot/dev/client3/rdock/2013.1/src/exe/rbdock.cxx#4 $)

>  <Rbt.Library>
libRbt.so (2013.1, Build901 2013/11/27)

>  <Rbt.Parameter_File>
/export/apps/rDock/src/rDock_2013.1_src/data/scripts/dock_solv.prm

>  <Rbt.Receptor>
prm/pocket_docking_5.prm

>  <SCORE>
-26.5129

>  <SCORE.INTER>
-34.9198

>  <SCORE.INTER.CONST>
1

>  <SCORE.INTER.POLAR>
-4.75278

>  <SCORE.INTER.ROT>
9

>  <SCORE.INTER.SOLV>
29.6111

>  <SCORE.INTER.VDW>
-26.9077

>  <SCORE.INTER.norm>
-0.831425

>  <SCORE.INTRA>
8.3376

>  <SCORE.INTRA.DIHEDRAL>
9.90772

>  <SCORE.INTRA.DIHEDRAL.0>
22.4324

>  <SCORE.INTRA.POLAR>
0.150931

>  <SCORE.INTRA.POLAR.0>
-1.83749

>  <SCORE.INTRA.REPUL>
0.0810437

>  <SCORE.INTRA.REPUL.0>
0

>  <SCORE.INTRA.SOLV>
-1.43714

>  <SCORE.INTRA.SOLV.lig_0>
-160.638

>  <SCORE.INTRA.VDW>
3.18393

>  <SCORE.INTRA.VDW.0>
-7.61953

>  <SCORE.INTRA.norm>
0.198514

>  <SCORE.RESTR>
0.0693437

>  <SCORE.RESTR.CAVITY>
0.0693437

>  <SCORE.RESTR.norm>
0.00165104

>  <SCORE.SYSTEM>
0

>  <SCORE.SYSTEM.CONST>
0

>  <SCORE.SYSTEM.DIHEDRAL>
0

>  <SCORE.SYSTEM.SOLV>
0

>  <SCORE.SYSTEM.norm>
0

>  <SCORE.heavy>
42

>  <SCORE.norm>
-0.631259

>  <RMSD>
9.052

$$$$
1NEM.B
 OpenBabel11021811403D
libRbt.so/2013.1/901 2013/11/27
 42 45  0  0  0  0  0  0  0  0999 V2000
   -4.3554    2.5258    0.5824 O   0  0  0  0  0  0  0  0  0  0  0  0
   -3.4571    1.4345    0.7928 C   0  0  0  0  0  0  0  0  0  0  0  0
   -2.3296    1.3806   -0.2370 C   0  0  1  0  0  0  0  0  0  0  0  0
   -1.3887    2.4256   -0.0086 O   0  0  0  0  0  0  0  0  0  0  0  0
   -1.4741    0.1252   -0.1761 C   0  0  1  0  0  0  0  0  0  0  0  0
   -2.2623   -0.9511   -0.6895 O   0  0  0  0  0  0  0  0  0  0  0  0
   -0.3146    0.5862   -1.0391 C   0  0  1  0  0  0  0  0  0  0  0  0
   -0.6814    0.7068   -2.4175 O   0  0  0  0  0  0  0  0  0  0  0  0
   -0.0998    1.9750   -0.4261 C   0  0  2  0  0  0  0  0  0  0  0  0
   -3.1929   -1.5115    0.1921 C   0  0  2  0  0  0  0  0  0  0  0  0
   -2.4656   -2.4439    1.1704 C   0  0  2  0  0  0  0  0  0  0  0  0
   -1.6489   -3.4340    0.4200 N   0  3  0  0  0  0  0  0  0  0  0  0
   -3.4605   -3.1288    2.1129 C   0  0  1  0  0  0  0  0  0  0  0  0
   -3.9858   -2.1758    3.0275 O   0  0  0  0  0  0  0  0  0  0  0  0
   -4.6072   -3.7764    1.3305 C   0  0  2  0  0  0  0  0  0  0  0  0
   -4.1288   -4.8857    0.5804 O   0  0  0  0  0  0  0  0  0  0  0  0
   -5.2357   -2.7474    0.3950 C   0  0  1  0  0  0  0  0  0  0  0  0
   -4.2281   -2.2122   -0.4849 O   0  0  0  0  0  0  0  0  0  0  0  0
   -6.3508   -3.3196   -0.4624 C   0  0  0  0  0  0  0  0  0  0  0  0
   -7.4909   -3.7897    0.3556 N   0  3  0  0  0  0  0  0  0  0  0  0
    1.8489    1.6071   -3.3899 C   0  0  0  0  0  0  0  0  0  0  0  0
    2.8510    4.4532   -1.2399 C   0  0  2  0  0  0  0  0  0  0  0  0
    2.3084    5.6333   -2.0424 C   0  0  2  0  0  0  0  0  0  0  0  0
    2.1784    6.8278   -1.1742 N   0  3  0  0  0  0  0  0  0  0  0  0
    0.9471    5.2865   -2.6302 C   0  0  1  0  0  0  0  0  0  0  0  0
    0.4892    6.3610   -3.4367 O   0  0  0  0  0  0  0  0  0  0  0  0
    1.0606    4.0135   -3.4660 C   0  0  2  0  0  0  0  0  0  0  0  0
   -0.2198    3.6444   -3.9617 O   0  0  0  0  0  0  0  0  0  0  0  0
    3.0139    1.7253   -4.2964 N   0  3  0  0  0  0  0  0  0  0  0  0
    1.6232    2.8861   -2.6025 C   0  0  2  0  0  0  0  0  0  0  0  0
    2.8936    3.2766   -2.0430 O   0  0  0  0  0  0  0  0  0  0  0  0
    4.2508    1.0005    1.5332 C   0  0  2  0  0  0  0  0  0  0  0  0
    4.8231    0.0535    2.5176 N   0  3  0  0  0  0  0  0  0  0  0  0
    4.7324    2.4160    1.8309 C   0  0  0  0  0  0  0  0  0  0  0  0
    4.1497    3.4013    0.8275 C   0  0  2  0  0  0  0  0  0  0  0  0
    4.6471    4.7277    1.1646 N   0  3  0  0  0  0  0  0  0  0  0  0
    2.6246    3.3601    0.8877 C   0  0  1  0  0  0  0  0  0  0  0  0
    2.0810    4.2744   -0.0843 O   0  0  0  0  0  0  0  0  0  0  0  0
    2.1065    1.9437    0.6017 C   0  0  2  0  0  0  0  0  0  0  0  0
    0.6761    1.9162    0.7687 O   0  0  0  0  0  0  0  0  0  0  0  0
    2.7252    0.9204    1.5508 C   0  0  1  0  0  0  0  0  0  0  0  0
    2.3153   -0.3868    1.1716 O   0  0  0  0  0  0  0  0  0  0  0  0
  1  2  1  0  0  0  0
  3  2  1  1  0  0  0
  3  5  1  0  0  0  0
  3  4  1  0  0  0  0
  4  9  1  0  0  0  0
  5  7  1  0  0  0  0
  5  6  1  6  0  0  0
  7  9  1  0  0  0  0
  7  8  1  6  0  0  0
  9 40  1  1  0  0  0
 10  6  1  6  0  0  0
 10 11  1  0  0  0  0
 10 18  1  0  0  0  0
 11 13  1  0  0  0  0
 11 12  1  6  0  0  0
 13 15  1  0  0  0  0
 13 14  1  1  0  0  0
 15 17  1  0  0  0  0
 15 16  1  6  0  0  0
 17 19  1  6  0  0  0
 17 18  1  0  0  0  0
 19 20  1  0  0  0  0
 21 29  1  0  0  0  0
 22 23  1  0  0  0  0
 22 31  1  0  0  0  0
 22 38  1  1  0  0  0
 23 25  1  0  0  0  0
 23 24  1  1  0  0  0
 25 27  1  0  0  0  0
 25 26  1  6  0  0  0
 27 30  1  0  0  0  0
 27 28  1  1  0  0  0
 30 21  1  6  0  0  0
 30 31  1  0  0  0  0
 32 34  1  0  0  0  0
 32 41  1  0  0  0  0
 32 33  1  1  0  0  0
 34 35  1  0  0  0  0
 35 37  1  0  0  0  0
 35 36  1  1  0  0  0
 37 39  1  0  0  0  0
 37 38  1  6  0  0  0
 39 41  1  0  0  0  0
 39 40  1  1  0  0  0
 41 42  1  6  0  0  0
M  CHG  6  12   1  20   1  24   1  29   1  33   1  36   1
M  END
>  <CHROM.1>
167.80336189,72.42801193,-79.93905274,-77.82773075,-39.70610904,-159.19291636
-126.86590446,-174.87180595,-69.36395796,63.30325357,64.06334840,72.67612702
31.64854356,-168.93050202,-41.97213446,-177.91183042,177.86011657,-45.96807398
166.44891620,31.11798579,100.56963093,-56.97141784,-0.23853610,1.08628089
-0.31244380,2.46236026,0.37973127,2.46448567

>  <Name>
1NEM.B

>  <RI>
0

>  <Rbt.Current_Directory>
/home/itssahil/PROJECTS/Mol_Feturizer/New_Systems/rnas/1nem

>  <Rbt.Executable>
rbdock ($Id: //depot/dev/client3/rdock/2013.1/src/exe/rbdock.cxx#4 $)

>  <Rbt.Library>
libRbt.so (2013.1, Build901 2013/11/27)

>  <Rbt.Parameter_File>
/export/apps/rDock/src/rDock_2013.1_src/data/scripts/dock_solv.prm

>  <Rbt.Receptor>
prm/pocket_docking_7.prm

>  <SCORE>
-28.0351

>  <SCORE.INTER>
-38.5006

>  <SCORE.INTER.CONST>
1

>  <SCORE.INTER.POLAR>
-6.2409

>  <SCORE.INTER.ROT>
9

>  <SCORE.INTER.SOLV>
27.6194

>  <SCORE.INTER.VDW>
-23.6705

>  <SCORE.INTER.norm>
-0.91668

>  <SCORE.INTRA>
10.4485

>  <SCORE.INTRA.DIHEDRAL>
3.89364

>  <SCORE.INTRA.DIHEDRAL.0>
22.4324

>  <SCORE.INTRA.POLAR>
1.4568

>  <SCORE.INTRA.POLAR.0>
-1.83749

>  <SCORE.INTRA.REPUL>
0

>  <SCORE.INTRA.REPUL.0>
0

>  <SCORE.INTRA.SOLV>
-4.17223

>  <SCORE.INTRA.SOLV.lig_0>
-160.638

>  <SCORE.INTRA.VDW>
5.63471

>  <SCORE.INTRA.VDW.0>
-7.61953

>  <SCORE.INTRA.norm>
0.248775

>  <SCORE.RESTR>
0.0169765

>  <SCORE.RESTR.CAVITY>
0.0169765

>  <SCORE.RESTR.norm>
0.000404203

>  <SCORE.SYSTEM>
0

>  <SCORE.SYSTEM.CONST>
0

>  <SCORE.SYSTEM.DIHEDRAL>
0

>  <SCORE.SYSTEM.SOLV>
0

>  <SCORE.SYSTEM.norm>
0

>  <SCORE.heavy>
42

>  <SCORE.norm>
-0.667501

>  <RMSD>
9.052

$$$$
1NEM.B
 OpenBabel11021811403D
libRbt.so/2013.1/901 2013/11/27
 42 45  0  0  0  0  0  0  0  0999 V2000
    4.0760    5.1924    1.1625 O   0  0  0  0  0  0  0  0  0  0  0  0
    3.3102    4.0551    0.7599 C   0  0  0  0  0  0  0  0  0  0  0  0
    4.1456    2.9937    0.0455 C   0  0  1  0  0  0  0  0  0  0  0  0
    5.3398    2.7196    0.7722 O   0  0  0  0  0  0  0  0  0  0  0  0
    3.4830    1.6293   -0.0591 C   0  0  1  0  0  0  0  0  0  0  0  0
    2.4349    1.7390   -1.0249 O   0  0  0  0  0  0  0  0  0  0  0  0
    4.6930    0.8085   -0.4642 C   0  0  1  0  0  0  0  0  0  0  0  0
    5.1247    1.1036   -1.7968 O   0  0  0  0  0  0  0  0  0  0  0  0
    5.7025    1.3564    0.5516 C   0  0  2  0  0  0  0  0  0  0  0  0
    1.3934    2.6184   -0.7100 C   0  0  2  0  0  0  0  0  0  0  0  0
    0.4998    1.9810    0.3626 C   0  0  2  0  0  0  0  0  0  0  0  0
    0.0591    0.6308   -0.0767 N   0  3  0  0  0  0  0  0  0  0  0  0
   -0.6919    2.8872    0.6886 C   0  0  1  0  0  0  0  0  0  0  0  0
   -0.2402    4.0343    1.3961 O   0  0  0  0  0  0  0  0  0  0  0  0
   -1.4197    3.3235   -0.5867 C   0  0  2  0  0  0  0  0  0  0  0  0
   -2.0736    2.2126   -1.1869 O   0  0  0  0  0  0  0  0  0  0  0  0
   -0.4195    3.9306   -1.5663 C   0  0  1  0  0  0  0  0  0  0  0  0
    0.6226    2.9767   -1.8495 O   0  0  0  0  0  0  0  0  0  0  0  0
   -1.0481    4.3434   -2.8856 C   0  0  0  0  0  0  0  0  0  0  0  0
   -0.0425    4.8661   -3.8371 N   0  3  0  0  0  0  0  0  0  0  0  0
    5.4622    2.3033    8.7104 C   0  0  0  0  0  0  0  0  0  0  0  0
    4.6787    0.2796    5.7074 C   0  0  2  0  0  0  0  0  0  0  0  0
    3.1849    0.5530    5.5501 C   0  0  2  0  0  0  0  0  0  0  0  0
    2.7467    0.2311    4.1710 N   0  3  0  0  0  0  0  0  0  0  0  0
    2.8852    2.0165    5.8458 C   0  0  1  0  0  0  0  0  0  0  0  0
    1.4856    2.2402    5.7722 O   0  0  0  0  0  0  0  0  0  0  0  0
    3.4017    2.3727    7.2380 C   0  0  2  0  0  0  0  0  0  0  0  0
    3.1879    3.7547    7.4945 O   0  0  0  0  0  0  0  0  0  0  0  0
    5.9728    3.6862    8.8518 N   0  3  0  0  0  0  0  0  0  0  0  0
    4.8940    2.0579    7.3235 C   0  0  2  0  0  0  0  0  0  0  0  0
    5.1276    0.6716    7.0020 O   0  0  0  0  0  0  0  0  0  0  0  0
    9.0840   -0.1340    2.8838 C   0  0  2  0  0  0  0  0  0  0  0  0
   10.1321   -0.9378    2.2140 N   0  3  0  0  0  0  0  0  0  0  0  0
    8.7113   -0.7714    4.2176 C   0  0  0  0  0  0  0  0  0  0  0  0
    7.6324    0.0436    4.9168 C   0  0  2  0  0  0  0  0  0  0  0  0
    7.3242   -0.6141    6.1788 N   0  3  0  0  0  0  0  0  0  0  0  0
    6.3923    0.1290    4.0301 C   0  0  1  0  0  0  0  0  0  0  0  0
    5.3867    0.9252    4.6867 O   0  0  0  0  0  0  0  0  0  0  0  0
    6.7357    0.7583    2.6728 C   0  0  2  0  0  0  0  0  0  0  0  0
    5.5717    0.7283    1.8250 O   0  0  0  0  0  0  0  0  0  0  0  0
    7.8630    0.0011    1.9754 C   0  0  1  0  0  0  0  0  0  0  0  0
    8.2312    0.6879    0.7865 O   0  0  0  0  0  0  0  0  0  0  0  0
  1  2  1  0  0  0  0
  3  2  1  1  0  0  0
  3  5  1  0  0  0  0
  3  4  1  0  0  0  0
  4  9  1  0  0  0  0
  5  7  1  0  0  0  0
  5  6  1  6  0  0  0
  7  9  1  0  0  0  0
  7  8  1  6  0  0  0
  9 40  1  1  0  0  0
 10  6  1  6  0  0  0
 10 11  1  0  0  0  0
 10 18  1  0  0  0  0
 11 13  1  0  0  0  0
 11 12  1  6  0  0  0
 13 15  1  0  0  0  0
 13 14  1  6  0  0  0
 15 17  1  0  0  0  0
 15 16  1  6  0  0  0
 17 19  1  6  0  0  0
 17 18  1  0  0  0  0
 19 20  1  0  0  0  0
 21 29  1  0  0  0  0
 22 23  1  0  0  0  0
 22 31  1  0  0  0  0
 22 38  1  6  0  0  0
 23 25  1  0  0  0  0
 23 24  1  6  0  0  0
 25 27  1  0  0  0  0
 25 26  1  1  0  0  0
 27 30  1  0  0  0  0
 27 28  1  6  0  0  0
 30 21  1  1  0  0  0
 30 31  1  0  0  0  0
 32 34  1  0  0  0  0
 32 41  1  0  0  0  0
 32 33  1  6  0  0  0
 34 35  1  0  0  0  0
 35 37  1  0  0  0  0
 35 36  1  1  0  0  0
 37 39  1  0  0  0  0
 37 38  1  1  0  0  0
 39 41  1  0  0  0  0
 39 40  1  6  0  0  0
 41 42  1  6  0  0  0
M  CHG  6  12   1  20   1  24   1  29   1  33   1  36   1
M  END
>  <CHROM.1>
-152.12341783,47.79620662,-63.17463813,-74.73802256,-79.26407273,-88.66196788
100.14478535,-179.74380633,-68.06362663,-177.19363057,61.51719857,-90.60680497
68.18181366,-133.94604700,-68.39299179,-64.60727615,171.04483770,-175.14963624
50.31553852,-77.66644547,176.12292163,-59.58820201,3.81864149,1.83945757
2.36342270,-2.35058238,-0.38855777,1.53266534

>  <Name>
1NEM.B

>  <RI>
0

>  <Rbt.Current_Directory>
/home/itssahil/PROJECTS/Mol_Feturizer/New_Systems/rnas/1nem

>  <Rbt.Executable>
rbdock ($Id: //depot/dev/client3/rdock/2013.1/src/exe/rbdock.cxx#4 $)

>  <Rbt.Library>
libRbt.so (2013.1, Build901 2013/11/27)

>  <Rbt.Parameter_File>
/export/apps/rDock/src/rDock_2013.1_src/data/scripts/dock_solv.prm

>  <Rbt.Receptor>
prm/pocket_docking_5.prm

>  <SCORE>
-12.2024

>  <SCORE.INTER>
-21.6702

>  <SCORE.INTER.CONST>
1

>  <SCORE.INTER.POLAR>
-3.32281

>  <SCORE.INTER.ROT>
9

>  <SCORE.INTER.SOLV>
19.8918

>  <SCORE.INTER.VDW>
-19.6014

>  <SCORE.INTER.norm>
-0.515958

>  <SCORE.INTRA>
9.43566

>  <SCORE.INTRA.DIHEDRAL>
2.6771

>  <SCORE.INTRA.DIHEDRAL.0>
22.4324

>  <SCORE.INTRA.POLAR>
0.715736

>  <SCORE.INTRA.POLAR.0>
-1.83749

>  <SCORE.INTRA.REPUL>
0

>  <SCORE.INTRA.REPUL.0>
0

>  <SCORE.INTRA.SOLV>
-3.929

>  <SCORE.INTRA.SOLV.lig_0>
-160.638

>  <SCORE.INTRA.VDW>
7.62811

>  <SCORE.INTRA.VDW.0>
-7.61953

>  <SCORE.INTRA.norm>
0.224659

>  <SCORE.RESTR>
0.032144

>  <SCORE.RESTR.CAVITY>
0.032144

>  <SCORE.RESTR.norm>
0.000765334

>  <SCORE.SYSTEM>
0

>  <SCORE.SYSTEM.CONST>
0

>  <SCORE.SYSTEM.DIHEDRAL>
0

>  <SCORE.SYSTEM.SOLV>
0

>  <SCORE.SYSTEM.norm>
0

>  <SCORE.heavy>
42

>  <SCORE.norm>
-0.290534

>  <RMSD>
9.054

$$$$
1NEM.B
 OpenBabel11021811403D
libRbt.so/2013.1/901 2013/11/27
 42 45  0  0  0  0  0  0  0  0999 V2000
   -3.9498   -6.2994    2.6813 O   0  0  0  0  0  0  0  0  0  0  0  0
   -3.1318   -5.1824    2.3275 C   0  0  0  0  0  0  0  0  0  0  0  0
   -3.5826   -3.8787    2.9849 C   0  0  1  0  0  0  0  0  0  0  0  0
   -2.7263   -2.8035    2.6102 O   0  0  0  0  0  0  0  0  0  0  0  0
   -4.9572   -3.3929    2.5536 C   0  0  1  0  0  0  0  0  0  0  0  0
   -5.9218   -4.2606    3.1535 O   0  0  0  0  0  0  0  0  0  0  0  0
   -4.8898   -1.9779    3.0967 C   0  0  1  0  0  0  0  0  0  0  0  0
   -4.9277   -1.9457    4.5273 O   0  0  0  0  0  0  0  0  0  0  0  0
   -3.4911   -1.5980    2.5966 C   0  0  2  0  0  0  0  0  0  0  0  0
   -6.6854   -5.0375    2.2757 C   0  0  2  0  0  0  0  0  0  0  0  0
   -7.0328   -4.2045    1.0343 C   0  0  2  0  0  0  0  0  0  0  0  0
   -7.6684   -2.9235    1.4409 N   0  3  0  0  0  0  0  0  0  0  0  0
   -7.9252   -5.0001    0.0760 C   0  0  1  0  0  0  0  0  0  0  0  0
   -7.1679   -6.0391   -0.5303 O   0  0  0  0  0  0  0  0  0  0  0  0
   -9.1271   -5.6018    0.8107 C   0  0  2  0  0  0  0  0  0  0  0  0
  -10.0167   -4.5736    1.2272 O   0  0  0  0  0  0  0  0  0  0  0  0
   -8.6439   -6.3945    2.0219 C   0  0  1  0  0  0  0  0  0  0  0  0
   -7.8684   -5.5392    2.8839 O   0  0  0  0  0  0  0  0  0  0  0  0
   -9.7773   -6.9838    2.8431 C   0  0  0  0  0  0  0  0  0  0  0  0
  -10.1299   -6.1242    3.9948 N   0  3  0  0  0  0  0  0  0  0  0  0
    3.4208   -0.2765    1.7787 C   0  0  0  0  0  0  0  0  0  0  0  0
    0.4116   -1.8353    0.2814 C   0  0  2  0  0  0  0  0  0  0  0  0
    0.5482   -3.2732    0.7760 C   0  0  2  0  0  0  0  0  0  0  0  0
   -0.7579   -3.9698    0.6959 N   0  3  0  0  0  0  0  0  0  0  0  0
    1.0400   -3.2879    2.2172 C   0  0  1  0  0  0  0  0  0  0  0  0
    1.2370   -4.6286    2.6393 O   0  0  0  0  0  0  0  0  0  0  0  0
    2.3487   -2.5075    2.3185 C   0  0  2  0  0  0  0  0  0  0  0  0
    2.7786   -2.4576    3.6728 O   0  0  0  0  0  0  0  0  0  0  0  0
    4.2292   -0.5577    0.5702 N   0  3  0  0  0  0  0  0  0  0  0  0
    2.1377   -1.0890    1.7926 C   0  0  2  0  0  0  0  0  0  0  0  0
    1.6401   -1.1306    0.4397 O   0  0  0  0  0  0  0  0  0  0  0  0
   -2.8704    2.1613   -0.3792 C   0  0  2  0  0  0  0  0  0  0  0  0
   -3.7407    3.0193   -1.2158 N   0  3  0  0  0  0  0  0  0  0  0  0
   -1.6373    1.7409   -1.1709 C   0  0  0  0  0  0  0  0  0  0  0  0
   -0.7339    0.8559   -0.3236 C   0  0  2  0  0  0  0  0  0  0  0  0
    0.4204    0.4920   -1.1331 N   0  3  0  0  0  0  0  0  0  0  0  0
   -1.4993   -0.3874    0.1234 C   0  0  1  0  0  0  0  0  0  0  0  0
   -0.6464   -1.2055    0.9478 O   0  0  0  0  0  0  0  0  0  0  0  0
   -2.7547    0.0018    0.9163 C   0  0  2  0  0  0  0  0  0  0  0  0
   -3.5067   -1.1855    1.2318 O   0  0  0  0  0  0  0  0  0  0  0  0
   -3.6503    0.9447    0.1166 C   0  0  1  0  0  0  0  0  0  0  0  0
   -4.7323    1.3759    0.9314 O   0  0  0  0  0  0  0  0  0  0  0  0
  1  2  1  0  0  0  0
  3  2  1  6  0  0  0
  3  5  1  0  0  0  0
  3  4  1  0  0  0  0
  4  9  1  0  0  0  0
  5  7  1  0  0  0  0
  5  6  1  1  0  0  0
  7  9  1  0  0  0  0
  7  8  1  1  0  0  0
  9 40  1  6  0  0  0
 10  6  1  1  0  0  0
 10 11  1  0  0  0  0
 10 18  1  0  0  0  0
 11 13  1  0  0  0  0
 11 12  1  1  0  0  0
 13 15  1  0  0  0  0
 13 14  1  1  0  0  0
 15 17  1  0  0  0  0
 15 16  1  1  0  0  0
 17 19  1  1  0  0  0
 17 18  1  0  0  0  0
 19 20  1  0  0  0  0
 21 29  1  0  0  0  0
 22 23  1  0  0  0  0
 22 31  1  0  0  0  0
 22 38  1  1  0  0  0
 23 25  1  0  0  0  0
 23 24  1  1  0  0  0
 25 27  1  0  0  0  0
 25 26  1  6  0  0  0
 27 30  1  0  0  0  0
 27 28  1  1  0  0  0
 30 21  1  6  0  0  0
 30 31  1  0  0  0  0
 32 34  1  0  0  0  0
 32 41  1  0  0  0  0
 32 33  1  6  0  0  0
 34 35  1  0  0  0  0
 35 37  1  0  0  0  0
 35 36  1  6  0  0  0
 37 39  1  0  0  0  0
 37 38  1  1  0  0  0
 39 41  1  0  0  0  0
 39 40  1  6  0  0  0
 41 42  1  1  0  0  0
M  CHG  6  12   1  20   1  24   1  29   1  33   1  36   1
M  END
>  <CHROM.1>
-64.98045028,179.38103914,-115.05684626,-38.59050702,-164.16435404,-110.52812619
-82.07521636,73.26354018,179.66127531,-96.28104189,-120.10112714,82.54424244
-75.48879522,-137.64441790,88.05883469,-179.20918506,166.42020301,-111.70127966
47.06111184,-69.70768303,108.29425286,70.25207972,-3.24839297,-2.55879924
1.48890110,-2.69186859,-0.08621404,-0.43800201

>  <Name>
1NEM.B

>  <RI>
0

>  <Rbt.Current_Directory>
/home/itssahil/PROJECTS/Mol_Feturizer/New_Systems/rnas/1nem

>  <Rbt.Executable>
rbdock ($Id: //depot/dev/client3/rdock/2013.1/src/exe/rbdock.cxx#4 $)

>  <Rbt.Library>
libRbt.so (2013.1, Build901 2013/11/27)

>  <Rbt.Parameter_File>
/export/apps/rDock/src/rDock_2013.1_src/data/scripts/dock_solv.prm

>  <Rbt.Receptor>
prm/blind_docking_60.prm

>  <SCORE>
-37.5846

>  <SCORE.INTER>
-61.5173

>  <SCORE.INTER.CONST>
1

>  <SCORE.INTER.POLAR>
-9.37608

>  <SCORE.INTER.ROT>
9

>  <SCORE.INTER.SOLV>
44.4605

>  <SCORE.INTER.VDW>
-34.1781

>  <SCORE.INTER.norm>
-1.4647

>  <SCORE.INTRA>
19.5203

>  <SCORE.INTRA.DIHEDRAL>
25.4512

>  <SCORE.INTRA.DIHEDRAL.0>
22.4324

>  <SCORE.INTRA.POLAR>
-1.37246

>  <SCORE.INTRA.POLAR.0>
-1.83749

>  <SCORE.INTRA.REPUL>
0.295904

>  <SCORE.INTRA.REPUL.0>
0

>  <SCORE.INTRA.SOLV>
5.02417

>  <SCORE.INTRA.SOLV.lig_0>
-160.638

>  <SCORE.INTRA.VDW>
7.4695

>  <SCORE.INTRA.VDW.0>
-7.61953

>  <SCORE.INTRA.norm>
0.46477

>  <SCORE.RESTR>
4.41237

>  <SCORE.RESTR.CAVITY>
4.41237

>  <SCORE.RESTR.norm>
0.105056

>  <SCORE.SYSTEM>
0

>  <SCORE.SYSTEM.CONST>
0

>  <SCORE.SYSTEM.DIHEDRAL>
0

>  <SCORE.SYSTEM.SOLV>
0

>  <SCORE.SYSTEM.norm>
0

>  <SCORE.heavy>
42

>  <SCORE.norm>
-0.894872

>  <RMSD>
9.057

$$$$
1NEM.B
 OpenBabel11021811403D
libRbt.so/2013.1/901 2013/11/27
 42 45  0  0  0  0  0  0  0  0999 V2000
   -4.0123    2.1178    2.0032 O   0  0  0  0  0  0  0  0  0  0  0  0
   -4.3093    2.0563    0.6067 C   0  0  0  0  0  0  0  0  0  0  0  0
   -3.7832    0.7868   -0.0615 C   0  0  1  0  0  0  0  0  0  0  0  0
   -2.4529    0.9803   -0.5330 O   0  0  0  0  0  0  0  0  0  0  0  0
   -3.6510   -0.4104    0.8662 C   0  0  1  0  0  0  0  0  0  0  0  0
   -4.9727   -0.8721    1.1547 O   0  0  0  0  0  0  0  0  0  0  0  0
   -2.8006   -1.3029   -0.0181 C   0  0  1  0  0  0  0  0  0  0  0  0
   -3.5296   -1.7986   -1.1459 O   0  0  0  0  0  0  0  0  0  0  0  0
   -1.7638   -0.2687   -0.4723 C   0  0  2  0  0  0  0  0  0  0  0  0
   -5.0683   -2.1092    1.8010 C   0  0  2  0  0  0  0  0  0  0  0  0
   -6.5051   -2.6346    1.6783 C   0  0  2  0  0  0  0  0  0  0  0  0
   -7.4667   -1.6081    2.1599 N   0  3  0  0  0  0  0  0  0  0  0  0
   -6.6674   -3.9594    2.4305 C   0  0  1  0  0  0  0  0  0  0  0  0
   -5.9705   -4.9887    1.7410 O   0  0  0  0  0  0  0  0  0  0  0  0
   -6.1367   -3.8503    3.8633 C   0  0  2  0  0  0  0  0  0  0  0  0
   -6.9679   -2.9916    4.6338 O   0  0  0  0  0  0  0  0  0  0  0  0
   -4.7090   -3.3117    3.8422 C   0  0  1  0  0  0  0  0  0  0  0  0
   -4.6803   -2.0393    3.1669 O   0  0  0  0  0  0  0  0  0  0  0  0
   -4.1207   -3.1197    5.2289 C   0  0  0  0  0  0  0  0  0  0  0  0
   -4.7567   -1.9934    5.9477 N   0  3  0  0  0  0  0  0  0  0  0  0
    5.1249    2.6026   -2.2833 C   0  0  0  0  0  0  0  0  0  0  0  0
    2.5824    1.9079    0.3206 C   0  0  2  0  0  0  0  0  0  0  0  0
    1.6723    3.1251    0.1751 C   0  0  2  0  0  0  0  0  0  0  0  0
    0.3473    2.8504    0.7806 N   0  3  0  0  0  0  0  0  0  0  0  0
    1.4919    3.4725   -1.2966 C   0  0  1  0  0  0  0  0  0  0  0  0
    0.7085    4.6501   -1.4151 O   0  0  0  0  0  0  0  0  0  0  0  0
    2.8592    3.6838   -1.9430 C   0  0  2  0  0  0  0  0  0  0  0  0
    2.7028    3.9405   -3.3327 O   0  0  0  0  0  0  0  0  0  0  0  0
    5.8958    1.3416   -2.1920 N   0  3  0  0  0  0  0  0  0  0  0  0
    3.7154    2.4347   -1.7432 C   0  0  2  0  0  0  0  0  0  0  0  0
    3.8266    2.1293   -0.3382 O   0  0  0  0  0  0  0  0  0  0  0  0
    1.2955   -3.0867    1.5071 C   0  0  2  0  0  0  0  0  0  0  0  0
    1.0295   -4.1529    2.5000 N   0  3  0  0  0  0  0  0  0  0  0  0
    2.5580   -2.3222    1.8890 C   0  0  0  0  0  0  0  0  0  0  0  0
    2.8427   -1.2207    0.8776 C   0  0  2  0  0  0  0  0  0  0  0  0
    4.0557   -0.5330    1.2969 N   0  3  0  0  0  0  0  0  0  0  0  0
    1.6617   -0.2547    0.8185 C   0  0  1  0  0  0  0  0  0  0  0  0
    1.9270    0.7683   -0.1609 O   0  0  0  0  0  0  0  0  0  0  0  0
    0.3703   -0.9958    0.4455 C   0  0  2  0  0  0  0  0  0  0  0  0
   -0.7389   -0.0785    0.5007 O   0  0  0  0  0  0  0  0  0  0  0  0
    0.0923   -2.1508    1.4042 C   0  0  1  0  0  0  0  0  0  0  0  0
   -1.0390   -2.8822    0.9504 O   0  0  0  0  0  0  0  0  0  0  0  0
  1  2  1  0  0  0  0
  3  2  1  1  0  0  0
  3  5  1  0  0  0  0
  3  4  1  0  0  0  0
  4  9  1  0  0  0  0
  5  7  1  0  0  0  0
  5  6  1  6  0  0  0
  7  9  1  0  0  0  0
  7  8  1  6  0  0  0
  9 40  1  1  0  0  0
 10  6  1  1  0  0  0
 10 11  1  0  0  0  0
 10 18  1  0  0  0  0
 11 13  1  0  0  0  0
 11 12  1  1  0  0  0
 13 15  1  0  0  0  0
 13 14  1  6  0  0  0
 15 17  1  0  0  0  0
 15 16  1  1  0  0  0
 17 19  1  1  0  0  0
 17 18  1  0  0  0  0
 19 20  1  0  0  0  0
 21 29  1  0  0  0  0
 22 23  1  0  0  0  0
 22 31  1  0  0  0  0
 22 38  1  6  0  0  0
 23 25  1  0  0  0  0
 23 24  1  6  0  0  0
 25 27  1  0  0  0  0
 25 26  1  1  0  0  0
 27 30  1  0  0  0  0
 27 28  1  6  0  0  0
 30 21  1  1  0  0  0
 30 31  1  0  0  0  0
 32 34  1  0  0  0  0
 32 41  1  0  0  0  0
 32 33  1  1  0  0  0
 34 35  1  0  0  0  0
 35 37  1  0  0  0  0
 35 36  1  1  0  0  0
 37 39  1  0  0  0  0
 37 38  1  6  0  0  0
 39 41  1  0  0  0  0
 39 40  1  1  0  0  0
 41 42  1  6  0  0  0
M  CHG  6  12   1  20   1  24   1  29   1  33   1  36   1
M  END
>  <CHROM.1>
-62.79407307,-89.00833981,169.06242084,-164.06483460,40.05207449,-159.71063305
-157.78360024,-172.20472369,49.65512549,-70.29182988,-25.53752719,-174.74563797
56.57333515,-116.25738468,-164.15432048,-175.26978400,68.63558789,-51.07513757
59.85580450,-89.74945031,144.44470854,64.56221447,-1.19848704,-0.37445091
0.91038963,2.53420539,-0.12107838,2.61764453

>  <Name>
1NEM.B

>  <RI>
0

>  <Rbt.Current_Directory>
/home/itssahil/PROJECTS/Mol_Feturizer/New_Systems/rnas/1nem

>  <Rbt.Executable>
rbdock ($Id: //depot/dev/client3/rdock/2013.1/src/exe/rbdock.cxx#4 $)

>  <Rbt.Library>
libRbt.so (2013.1, Build901 2013/11/27)

>  <Rbt.Parameter_File>
/export/apps/rDock/src/rDock_2013.1_src/data/scripts/dock_solv.prm

>  <Rbt.Receptor>
prm/pocket_docking_4.prm

>  <SCORE>
-42.1165

>  <SCORE.INTER>
-48.2391

>  <SCORE.INTER.CONST>
1

>  <SCORE.INTER.POLAR>
-7.66405

>  <SCORE.INTER.ROT>
9

>  <SCORE.INTER.SOLV>
37.0211

>  <SCORE.INTER.VDW>
-28.553

>  <SCORE.INTER.norm>
-1.14855

>  <SCORE.INTRA>
5.77942

>  <SCORE.INTRA.DIHEDRAL>
7.33937

>  <SCORE.INTRA.DIHEDRAL.0>
22.4324

>  <SCORE.INTRA.POLAR>
-0.385705

>  <SCORE.INTRA.POLAR.0>
-1.83749

>  <SCORE.INTRA.REPUL>
0.00339276

>  <SCORE.INTRA.REPUL.0>
0

>  <SCORE.INTRA.SOLV>
-0.398777

>  <SCORE.INTRA.SOLV.lig_0>
-160.638

>  <SCORE.INTRA.VDW>
3.60355

>  <SCORE.INTRA.VDW.0>
-7.61953

>  <SCORE.INTRA.norm>
0.137605

>  <SCORE.RESTR>
0.343203

>  <SCORE.RESTR.CAVITY>
0.343203

>  <SCORE.RESTR.norm>
0.0081715

>  <SCORE.SYSTEM>
0

>  <SCORE.SYSTEM.CONST>
0

>  <SCORE.SYSTEM.DIHEDRAL>
0

>  <SCORE.SYSTEM.SOLV>
0

>  <SCORE.SYSTEM.norm>
0

>  <SCORE.heavy>
42

>  <SCORE.norm>
-1.00277

>  <RMSD>
9.070

$$$$
1NEM.B
 OpenBabel11021811403D
libRbt.so/2013.1/901 2013/11/27
 42 45  0  0  0  0  0  0  0  0999 V2000
   -4.1785    1.7161    2.0591 O   0  0  0  0  0  0  0  0  0  0  0  0
   -4.3548    1.7961    0.6433 C   0  0  0  0  0  0  0  0  0  0  0  0
   -3.7037    0.6353   -0.1073 C   0  0  1  0  0  0  0  0  0  0  0  0
   -2.3464    0.9353   -0.4190 O   0  0  0  0  0  0  0  0  0  0  0  0
   -3.5988   -0.6557    0.6888 C   0  0  1  0  0  0  0  0  0  0  0  0
   -4.9165   -1.2004    0.7904 O   0  0  0  0  0  0  0  0  0  0  0  0
   -2.6241   -1.4044   -0.2007 C   0  0  1  0  0  0  0  0  0  0  0  0
   -3.2169   -1.7939   -1.4441 O   0  0  0  0  0  0  0  0  0  0  0  0
   -1.6033   -0.2837   -0.4303 C   0  0  2  0  0  0  0  0  0  0  0  0
   -5.0287   -2.4291    1.4499 C   0  0  2  0  0  0  0  0  0  0  0  0
   -6.5123   -2.7992    1.5814 C   0  0  2  0  0  0  0  0  0  0  0  0
   -7.2620   -1.6840    2.2175 N   0  3  0  0  0  0  0  0  0  0  0  0
   -6.6808   -4.1096    2.3573 C   0  0  1  0  0  0  0  0  0  0  0  0
   -6.2265   -5.1970    1.5626 O   0  0  0  0  0  0  0  0  0  0  0  0
   -5.9012   -4.0757    3.6755 C   0  0  2  0  0  0  0  0  0  0  0  0
   -6.4909   -3.1448    4.5743 O   0  0  0  0  0  0  0  0  0  0  0  0
   -4.4500   -3.6896    3.4038 C   0  0  1  0  0  0  0  0  0  0  0  0
   -4.4046   -2.4184    2.7272 O   0  0  0  0  0  0  0  0  0  0  0  0
   -3.6132   -3.5787    4.6662 C   0  0  0  0  0  0  0  0  0  0  0  0
   -3.2895   -4.9069    5.2328 N   0  3  0  0  0  0  0  0  0  0  0  0
    5.1821    2.4640   -2.1968 C   0  0  0  0  0  0  0  0  0  0  0  0
    2.6002    1.8803    0.3955 C   0  0  2  0  0  0  0  0  0  0  0  0
    1.6852    3.0825    0.1752 C   0  0  2  0  0  0  0  0  0  0  0  0
    0.3519    2.8287    0.7714 N   0  3  0  0  0  0  0  0  0  0  0  0
    1.5277    3.3559   -1.3146 C   0  0  1  0  0  0  0  0  0  0  0  0
    0.7391    4.5208   -1.5040 O   0  0  0  0  0  0  0  0  0  0  0  0
    2.9044    3.5447   -1.9478 C   0  0  2  0  0  0  0  0  0  0  0  0
    2.7700    3.7317   -3.3509 O   0  0  0  0  0  0  0  0  0  0  0  0
    5.9088    1.1738   -2.1786 N   0  3  0  0  0  0  0  0  0  0  0  0
    3.7647    2.3130   -1.6725 C   0  0  2  0  0  0  0  0  0  0  0  0
    3.8540    2.0777   -0.2525 O   0  0  0  0  0  0  0  0  0  0  0  0
    1.4159   -3.0892    1.7717 C   0  0  2  0  0  0  0  0  0  0  0  0
    1.1741   -4.1232    2.8041 N   0  3  0  0  0  0  0  0  0  0  0  0
    2.6608   -2.2827    2.1235 C   0  0  0  0  0  0  0  0  0  0  0  0
    2.9205   -1.2137    1.0713 C   0  0  2  0  0  0  0  0  0  0  0  0
    4.1177   -0.4836    1.4635 N   0  3  0  0  0  0  0  0  0  0  0  0
    1.7181   -0.2775    0.9772 C   0  0  1  0  0  0  0  0  0  0  0  0
    1.9601    0.7139   -0.0401 O   0  0  0  0  0  0  0  0  0  0  0  0
    0.4436   -1.0609    0.6334 C   0  0  2  0  0  0  0  0  0  0  0  0
   -0.6860   -0.1675    0.6552 O   0  0  0  0  0  0  0  0  0  0  0  0
    0.1919   -2.1852    1.6349 C   0  0  1  0  0  0  0  0  0  0  0  0
   -0.9226   -2.9584    1.2099 O   0  0  0  0  0  0  0  0  0  0  0  0
  1  2  1  0  0  0  0
  3  2  1  1  0  0  0
  3  5  1  0  0  0  0
  3  4  1  0  0  0  0
  4  9  1  0  0  0  0
  5  7  1  0  0  0  0
  5  6  1  6  0  0  0
  7  9  1  0  0  0  0
  7  8  1  6  0  0  0
  9 40  1  1  0  0  0
 10  6  1  1  0  0  0
 10 11  1  0  0  0  0
 10 18  1  0  0  0  0
 11 13  1  0  0  0  0
 11 12  1  1  0  0  0
 13 15  1  0  0  0  0
 13 14  1  6  0  0  0
 15 17  1  0  0  0  0
 15 16  1  1  0  0  0
 17 19  1  1  0  0  0
 17 18  1  0  0  0  0
 19 20  1  0  0  0  0
 21 29  1  0  0  0  0
 22 23  1  0  0  0  0
 22 31  1  0  0  0  0
 22 38  1  6  0  0  0
 23 25  1  0  0  0  0
 23 24  1  6  0  0  0
 25 27  1  0  0  0  0
 25 26  1  1  0  0  0
 27 30  1  0  0  0  0
 27 28  1  6  0  0  0
 30 21  1  1  0  0  0
 30 31  1  0  0  0  0
 32 34  1  0  0  0  0
 32 41  1  0  0  0  0
 32 33  1  1  0  0  0
 34 35  1  0  0  0  0
 35 37  1  0  0  0  0
 35 36  1  1  0  0  0
 37 39  1  0  0  0  0
 37 38  1  6  0  0  0
 39 41  1  0  0  0  0
 39 40  1  1  0  0  0
 41 42  1  6  0  0  0
M  CHG  6  12   1  20   1  24   1  29   1  33   1  36   1
M  END
>  <CHROM.1>
60.50294475,-88.17829392,177.61073574,174.80669523,-170.06137690,-161.88742599
83.15255378,-178.12111139,-177.99255595,74.03390357,-90.20524497,-168.03107128
174.13992686,-117.91765500,72.56093314,-68.43843442,176.80097591,-42.13846155
62.61074747,-89.21077889,135.12735115,152.95349471,-1.06150273,-0.58600977
0.87780198,2.49956747,-0.04454737,2.58143255

>  <Name>
1NEM.B

>  <RI>
0

>  <Rbt.Current_Directory>
/home/itssahil/PROJECTS/Mol_Feturizer/New_Systems/rnas/1nem

>  <Rbt.Executable>
rbdock ($Id: //depot/dev/client3/rdock/2013.1/src/exe/rbdock.cxx#4 $)

>  <Rbt.Library>
libRbt.so (2013.1, Build901 2013/11/27)

>  <Rbt.Parameter_File>
/export/apps/rDock/src/rDock_2013.1_src/data/scripts/dock_solv.prm

>  <Rbt.Receptor>
prm/pocket_docking_5.prm

>  <SCORE>
-35.3601

>  <SCORE.INTER>
-40.8969

>  <SCORE.INTER.CONST>
1

>  <SCORE.INTER.POLAR>
-6.96624

>  <SCORE.INTER.ROT>
9

>  <SCORE.INTER.SOLV>
37.6825

>  <SCORE.INTER.VDW>
-26.2047

>  <SCORE.INTER.norm>
-0.973736

>  <SCORE.INTRA>
5.42078

>  <SCORE.INTRA.DIHEDRAL>
8.44371

>  <SCORE.INTRA.DIHEDRAL.0>
22.4324

>  <SCORE.INTRA.POLAR>
-0.20863

>  <SCORE.INTRA.POLAR.0>
-1.83749

>  <SCORE.INTRA.REPUL>
0

>  <SCORE.INTRA.REPUL.0>
0

>  <SCORE.INTRA.SOLV>
-4.16368

>  <SCORE.INTRA.SOLV.lig_0>
-160.638

>  <SCORE.INTRA.VDW>
3.99011

>  <SCORE.INTRA.VDW.0>
-7.61953

>  <SCORE.INTRA.norm>
0.129066

>  <SCORE.RESTR>
0.11608

>  <SCORE.RESTR.CAVITY>
0.11608

>  <SCORE.RESTR.norm>
0.0027638

>  <SCORE.SYSTEM>
0

>  <SCORE.SYSTEM.CONST>
0

>  <SCORE.SYSTEM.DIHEDRAL>
0

>  <SCORE.SYSTEM.SOLV>
0

>  <SCORE.SYSTEM.norm>
0

>  <SCORE.heavy>
42

>  <SCORE.norm>
-0.841906

>  <RMSD>
9.075

$$$$
1NEM.B
 OpenBabel11021811403D
libRbt.so/2013.1/901 2013/11/27
 42 45  0  0  0  0  0  0  0  0999 V2000
   -6.2145   -3.2310    1.0428 O   0  0  0  0  0  0  0  0  0  0  0  0
   -5.6474   -4.5153    0.7761 C   0  0  0  0  0  0  0  0  0  0  0  0
   -4.1815   -4.6206    1.1941 C   0  0  1  0  0  0  0  0  0  0  0  0
   -3.4780   -3.4253    0.8688 O   0  0  0  0  0  0  0  0  0  0  0  0
   -3.9570   -4.7578    2.6915 C   0  0  1  0  0  0  0  0  0  0  0  0
   -4.3637   -6.0769    3.0628 O   0  0  0  0  0  0  0  0  0  0  0  0
   -2.4677   -4.4715    2.7353 C   0  0  1  0  0  0  0  0  0  0  0  0
   -1.6968   -5.5294    2.1560 O   0  0  0  0  0  0  0  0  0  0  0  0
   -2.4365   -3.2367    1.8270 C   0  0  2  0  0  0  0  0  0  0  0  0
   -5.7303   -6.3561    2.9552 C   0  0  2  0  0  0  0  0  0  0  0  0
   -6.5324   -5.2065    3.5802 C   0  0  2  0  0  0  0  0  0  0  0  0
   -6.0600   -4.9491    4.9662 N   0  3  0  0  0  0  0  0  0  0  0  0
   -8.0346   -5.5050    3.5405 C   0  0  1  0  0  0  0  0  0  0  0  0
   -8.5015   -5.4290    2.2000 O   0  0  0  0  0  0  0  0  0  0  0  0
   -8.3377   -6.8934    4.1122 C   0  0  2  0  0  0  0  0  0  0  0  0
   -8.0885   -6.9164    5.5120 O   0  0  0  0  0  0  0  0  0  0  0  0
   -7.4721   -7.9370    3.4119 C   0  0  1  0  0  0  0  0  0  0  0  0
   -6.0809   -7.5932    3.5616 O   0  0  0  0  0  0  0  0  0  0  0  0
   -7.6689   -9.3412    3.9557 C   0  0  0  0  0  0  0  0  0  0  0  0
   -7.7298  -10.3490    2.8738 N   0  3  0  0  0  0  0  0  0  0  0  0
    3.4709    0.8323    2.3778 C   0  0  0  0  0  0  0  0  0  0  0  0
    0.9714   -1.4701    0.9017 C   0  0  2  0  0  0  0  0  0  0  0  0
    1.5538   -2.8262    1.2926 C   0  0  2  0  0  0  0  0  0  0  0  0
    0.5081   -3.8744    1.2186 N   0  3  0  0  0  0  0  0  0  0  0  0
    2.1115   -2.7693    2.7085 C   0  0  1  0  0  0  0  0  0  0  0  0
    2.7186   -4.0110    3.0313 O   0  0  0  0  0  0  0  0  0  0  0  0
    3.1362   -1.6416    2.8092 C   0  0  2  0  0  0  0  0  0  0  0  0
    3.6108   -1.5370    4.1453 O   0  0  0  0  0  0  0  0  0  0  0  0
    4.5143    0.6485    1.3431 N   0  3  0  0  0  0  0  0  0  0  0  0
    2.4868   -0.3245    2.3888 C   0  0  2  0  0  0  0  0  0  0  0  0
    1.9453   -0.4413    1.0573 O   0  0  0  0  0  0  0  0  0  0  0  0
   -3.6335    0.7892    0.1977 C   0  0  2  0  0  0  0  0  0  0  0  0
   -4.8581    1.0746   -0.5848 N   0  3  0  0  0  0  0  0  0  0  0  0
   -2.4477    0.5989   -0.7414 C   0  0  0  0  0  0  0  0  0  0  0  0
   -1.1813    0.3023    0.0496 C   0  0  2  0  0  0  0  0  0  0  0  0
   -0.0911    0.1336   -0.9008 N   0  3  0  0  0  0  0  0  0  0  0  0
   -1.3766   -0.9612    0.8843 C   0  0  1  0  0  0  0  0  0  0  0  0
   -0.1842   -1.2190    1.6511 O   0  0  0  0  0  0  0  0  0  0  0  0
   -2.5714   -0.8062    1.8354 C   0  0  2  0  0  0  0  0  0  0  0  0
   -2.7921   -2.0484    2.5304 O   0  0  0  0  0  0  0  0  0  0  0  0
   -3.8454   -0.4421    1.0770 C   0  0  1  0  0  0  0  0  0  0  0  0
   -4.8927   -0.1874    2.0038 O   0  0  0  0  0  0  0  0  0  0  0  0
  1  2  1  0  0  0  0
  3  2  1  1  0  0  0
  3  5  1  0  0  0  0
  3  4  1  0  0  0  0
  4  9  1  0  0  0  0
  5  7  1  0  0  0  0
  5  6  1  6  0  0  0
  7  9  1  0  0  0  0
  7  8  1  6  0  0  0
  9 40  1  1  0  0  0
 10  6  1  1  0  0  0
 10 11  1  0  0  0  0
 10 18  1  0  0  0  0
 11 13  1  0  0  0  0
 11 12  1  1  0  0  0
 13 15  1  0  0  0  0
 13 14  1  6  0  0  0
 15 17  1  0  0  0  0
 15 16  1  1  0  0  0
 17 19  1  1  0  0  0
 17 18  1  0  0  0  0
 19 20  1  0  0  0  0
 21 29  1  0  0  0  0
 22 23  1  0  0  0  0
 22 31  1  0  0  0  0
 22 38  1  1  0  0  0
 23 25  1  0  0  0  0
 23 24  1  1  0  0  0
 25 27  1  0  0  0  0
 25 26  1  6  0  0  0
 27 30  1  0  0  0  0
 27 28  1  1  0  0  0
 30 21  1  6  0  0  0
 30 31  1  0  0  0  0
 32 34  1  0  0  0  0
 32 41  1  0  0  0  0
 32 33  1  6  0  0  0
 34 35  1  0  0  0  0
 35 37  1  0  0  0  0
 35 36  1  6  0  0  0
 37 39  1  0  0  0  0
 37 38  1  1  0  0  0
 39 41  1  0  0  0  0
 39 40  1  6  0  0  0
 41 42  1  1  0  0  0
M  CHG  6  12   1  20   1  24   1  29   1  33   1  36   1
M  END
>  <CHROM.1>
-56.41188727,-40.55706639,-67.09515100,-46.53898075,63.64628988,-75.77332619
171.95509127,63.13856404,72.75169988,137.70500984,51.26616285,65.60098030
165.55895057,-123.23597556,-111.55299079,-170.95025635,49.83457996,-59.49599883
157.57181680,-62.49301122,-30.32535951,179.07707824,-2.75146163,-3.27282023
2.11025649,2.52301831,0.13130082,2.67242781

>  <Name>
1NEM.B

>  <RI>
0

>  <Rbt.Current_Directory>
/home/itssahil/PROJECTS/Mol_Feturizer/New_Systems/rnas/1nem

>  <Rbt.Executable>
rbdock ($Id: //depot/dev/client3/rdock/2013.1/src/exe/rbdock.cxx#4 $)

>  <Rbt.Library>
libRbt.so (2013.1, Build901 2013/11/27)

>  <Rbt.Parameter_File>
/export/apps/rDock/src/rDock_2013.1_src/data/scripts/dock_solv.prm

>  <Rbt.Receptor>
prm/blind_docking_60.prm

>  <SCORE>
-14.6462

>  <SCORE.INTER>
-40.0217

>  <SCORE.INTER.CONST>
1

>  <SCORE.INTER.POLAR>
-6.5406

>  <SCORE.INTER.ROT>
9

>  <SCORE.INTER.SOLV>
34.9911

>  <SCORE.INTER.VDW>
-26.1428

>  <SCORE.INTER.norm>
-0.952897

>  <SCORE.INTRA>
14.9322

>  <SCORE.INTRA.DIHEDRAL>
4.2159

>  <SCORE.INTRA.DIHEDRAL.0>
22.4324

>  <SCORE.INTRA.POLAR>
0.274369

>  <SCORE.INTRA.POLAR.0>
-1.83749

>  <SCORE.INTRA.REPUL>
0

>  <SCORE.INTRA.REPUL.0>
0

>  <SCORE.INTRA.SOLV>
2.10601

>  <SCORE.INTRA.SOLV.lig_0>
-160.638

>  <SCORE.INTRA.VDW>
10.8384

>  <SCORE.INTRA.VDW.0>
-7.61953

>  <SCORE.INTRA.norm>
0.355529

>  <SCORE.RESTR>
10.4433

>  <SCORE.RESTR.CAVITY>
10.4433

>  <SCORE.RESTR.norm>
0.24865

>  <SCORE.SYSTEM>
0

>  <SCORE.SYSTEM.CONST>
0

>  <SCORE.SYSTEM.DIHEDRAL>
0

>  <SCORE.SYSTEM.SOLV>
0

>  <SCORE.SYSTEM.norm>
0

>  <SCORE.heavy>
42

>  <SCORE.norm>
-0.348719

>  <RMSD>
9.077

$$$$
1NEM.B
 OpenBabel11021811403D
libRbt.so/2013.1/901 2013/11/27
 42 45  0  0  0  0  0  0  0  0999 V2000
   -1.2330    0.8857   -1.1835 O   0  0  0  0  0  0  0  0  0  0  0  0
   -0.6293    2.1809   -1.1705 C   0  0  0  0  0  0  0  0  0  0  0  0
   -0.0261    2.5463    0.1850 C   0  0  1  0  0  0  0  0  0  0  0  0
    0.5923    1.4110    0.7835 O   0  0  0  0  0  0  0  0  0  0  0  0
    1.1025    3.5632    0.1238 C   0  0  1  0  0  0  0  0  0  0  0  0
    0.5159    4.8309   -0.1797 O   0  0  0  0  0  0  0  0  0  0  0  0
    1.6530    3.3911    1.5271 C   0  0  1  0  0  0  0  0  0  0  0  0
    0.7610    3.9009    2.5239 O   0  0  0  0  0  0  0  0  0  0  0  0
    1.6873    1.8593    1.5826 C   0  0  2  0  0  0  0  0  0  0  0  0
    0.6817    5.2911   -1.4904 C   0  0  2  0  0  0  0  0  0  0  0  0
    2.1479    5.6909   -1.7047 C   0  0  2  0  0  0  0  0  0  0  0  0
    2.5741    6.6509   -0.6525 N   0  3  0  0  0  0  0  0  0  0  0  0
    2.3574    6.2624   -3.1107 C   0  0  1  0  0  0  0  0  0  0  0  0
    2.2447    5.2208   -4.0714 O   0  0  0  0  0  0  0  0  0  0  0  0
    1.3340    7.3595   -3.4198 C   0  0  2  0  0  0  0  0  0  0  0  0
    1.5812    8.5061   -2.6159 O   0  0  0  0  0  0  0  0  0  0  0  0
   -0.0752    6.8349   -3.1594 C   0  0  1  0  0  0  0  0  0  0  0  0
   -0.1795    6.3800   -1.7963 O   0  0  0  0  0  0  0  0  0  0  0  0
   -1.1547    7.8779   -3.3893 C   0  0  0  0  0  0  0  0  0  0  0  0
   -2.4841    7.4043   -2.9443 N   0  3  0  0  0  0  0  0  0  0  0  0
    5.0293    1.8777   -1.4714 C   0  0  0  0  0  0  0  0  0  0  0  0
    6.1338    0.9123    1.9308 C   0  0  2  0  0  0  0  0  0  0  0  0
    7.3504    1.8166    2.1127 C   0  0  2  0  0  0  0  0  0  0  0  0
    7.6823    1.9470    3.5516 N   0  3  0  0  0  0  0  0  0  0  0  0
    7.0699    3.1965    1.5328 C   0  0  1  0  0  0  0  0  0  0  0  0
    8.2334    4.0026    1.6380 O   0  0  0  0  0  0  0  0  0  0  0  0
    6.6552    3.0611    0.0694 C   0  0  2  0  0  0  0  0  0  0  0  0
    6.3247    4.3386   -0.4600 O   0  0  0  0  0  0  0  0  0  0  0  0
    4.6276    3.1306   -2.1512 N   0  3  0  0  0  0  0  0  0  0  0  0
    5.4466    2.1327   -0.0335 C   0  0  2  0  0  0  0  0  0  0  0  0
    5.7518    0.8538    0.5590 O   0  0  0  0  0  0  0  0  0  0  0  0
    2.7502   -2.1671    2.3526 C   0  0  2  0  0  0  0  0  0  0  0  0
    1.6300   -3.1245    2.5007 N   0  3  0  0  0  0  0  0  0  0  0  0
    3.3236   -1.8202    3.7219 C   0  0  0  0  0  0  0  0  0  0  0  0
    4.4754   -0.8343    3.5852 C   0  0  2  0  0  0  0  0  0  0  0  0
    4.9771   -0.5467    4.9215 N   0  3  0  0  0  0  0  0  0  0  0  0
    3.9870    0.4403    2.9009 C   0  0  1  0  0  0  0  0  0  0  0  0
    5.0889    1.3564    2.7500 O   0  0  0  0  0  0  0  0  0  0  0  0
    3.3934    0.1242    1.5210 C   0  0  2  0  0  0  0  0  0  0  0  0
    2.8491    1.3287    0.9487 O   0  0  0  0  0  0  0  0  0  0  0  0
    2.2781   -0.9138    1.6172 C   0  0  1  0  0  0  0  0  0  0  0  0
    1.8446   -1.2668    0.3103 O   0  0  0  0  0  0  0  0  0  0  0  0
  1  2  1  0  0  0  0
  3  2  1  6  0  0  0
  3  5  1  0  0  0  0
  3  4  1  0  0  0  0
  4  9  1  0  0  0  0
  5  7  1  0  0  0  0
  5  6  1  1  0  0  0
  7  9  1  0  0  0  0
  7  8  1  1  0  0  0
  9 40  1  6  0  0  0
 10  6  1  1  0  0  0
 10 11  1  0  0  0  0
 10 18  1  0  0  0  0
 11 13  1  0  0  0  0
 11 12  1  1  0  0  0
 13 15  1  0  0  0  0
 13 14  1  6  0  0  0
 15 17  1  0  0  0  0
 15 16  1  1  0  0  0
 17 19  1  1  0  0  0
 17 18  1  0  0  0  0
 19 20  1  0  0  0  0
 21 29  1  0  0  0  0
 22 23  1  0  0  0  0
 22 31  1  0  0  0  0
 22 38  1  1  0  0  0
 23 25  1  0  0  0  0
 23 24  1  1  0  0  0
 25 27  1  0  0  0  0
 25 26  1  6  0  0  0
 27 30  1  0  0  0  0
 27 28  1  1  0  0  0
 30 21  1  6  0  0  0
 30 31  1  0  0  0  0
 32 34  1  0  0  0  0
 32 41  1  0  0  0  0
 32 33  1  1  0  0  0
 34 35  1  0  0  0  0
 35 37  1  0  0  0  0
 35 36  1  1  0  0  0
 37 39  1  0  0  0  0
 37 38  1  6  0  0  0
 39 41  1  0  0  0  0
 39 40  1  1  0  0  0
 41 42  1  6  0  0  0
M  CHG  6  12   1  20   1  24   1  29   1  33   1  36   1
M  END
>  <CHROM.1>
-171.37380151,38.51693028,-104.49357877,-70.90125920,-141.58090764,-98.96602534
52.50579844,60.23249675,69.77746394,-171.76245160,20.04451671,-61.54428215
173.70797386,-167.10723205,-172.20498255,-74.23836144,66.61575980,-83.57658978
65.11628582,63.13602289,-68.67758222,-60.38663443,2.85628888,2.83355048,0.23893549
2.08046424,-0.22307713,-0.54177411

>  <Name>
1NEM.B

>  <RI>
0

>  <Rbt.Current_Directory>
/home/itssahil/PROJECTS/Mol_Feturizer/New_Systems/rnas/1nem

>  <Rbt.Executable>
rbdock ($Id: //depot/dev/client3/rdock/2013.1/src/exe/rbdock.cxx#4 $)

>  <Rbt.Library>
libRbt.so (2013.1, Build901 2013/11/27)

>  <Rbt.Parameter_File>
/export/apps/rDock/src/rDock_2013.1_src/data/scripts/dock_solv.prm

>  <Rbt.Receptor>
prm/pocket_docking_8.prm

>  <SCORE>
-23.7874

>  <SCORE.INTER>
-30.1844

>  <SCORE.INTER.CONST>
1

>  <SCORE.INTER.POLAR>
-4.79526

>  <SCORE.INTER.ROT>
9

>  <SCORE.INTER.SOLV>
24.7396

>  <SCORE.INTER.VDW>
-21.9853

>  <SCORE.INTER.norm>
-0.718677

>  <SCORE.INTRA>
6.39705

>  <SCORE.INTRA.DIHEDRAL>
3.57627

>  <SCORE.INTRA.DIHEDRAL.0>
22.4324

>  <SCORE.INTRA.POLAR>
0.506612

>  <SCORE.INTRA.POLAR.0>
-1.83749

>  <SCORE.INTRA.REPUL>
0

>  <SCORE.INTRA.REPUL.0>
0

>  <SCORE.INTRA.SOLV>
-1.40804

>  <SCORE.INTRA.SOLV.lig_0>
-160.638

>  <SCORE.INTRA.VDW>
3.59045

>  <SCORE.INTRA.VDW.0>
-7.61953

>  <SCORE.INTRA.norm>
0.152311

>  <SCORE.RESTR>
0

>  <SCORE.RESTR.CAVITY>
0

>  <SCORE.RESTR.norm>
0

>  <SCORE.SYSTEM>
0

>  <SCORE.SYSTEM.CONST>
0

>  <SCORE.SYSTEM.DIHEDRAL>
0

>  <SCORE.SYSTEM.SOLV>
0

>  <SCORE.SYSTEM.norm>
0

>  <SCORE.heavy>
42

>  <SCORE.norm>
-0.566366

>  <RMSD>
9.079

$$$$
1NEM.B
 OpenBabel11021811403D
libRbt.so/2013.1/901 2013/11/27
 42 45  0  0  0  0  0  0  0  0999 V2000
   -3.9553   -2.8968    7.7739 O   0  0  0  0  0  0  0  0  0  0  0  0
   -3.9950   -3.7491    6.6276 C   0  0  0  0  0  0  0  0  0  0  0  0
   -4.8097   -3.1640    5.4749 C   0  0  1  0  0  0  0  0  0  0  0  0
   -4.4767   -1.7945    5.2673 O   0  0  0  0  0  0  0  0  0  0  0  0
   -4.5359   -3.7961    4.1195 C   0  0  1  0  0  0  0  0  0  0  0  0
   -5.1211   -5.1002    4.1331 O   0  0  0  0  0  0  0  0  0  0  0  0
   -5.2079   -2.7622    3.2356 C   0  0  1  0  0  0  0  0  0  0  0  0
   -6.6334   -2.7860    3.3640 O   0  0  0  0  0  0  0  0  0  0  0  0
   -4.6405   -1.4927    3.8814 C   0  0  2  0  0  0  0  0  0  0  0  0
   -6.4827   -5.1703    3.8195 C   0  0  2  0  0  0  0  0  0  0  0  0
   -7.0807   -6.4394    4.4418 C   0  0  2  0  0  0  0  0  0  0  0  0
   -6.2888   -7.6297    4.0338 N   0  3  0  0  0  0  0  0  0  0  0  0
   -8.5587   -6.5867    4.0660 C   0  0  1  0  0  0  0  0  0  0  0  0
   -9.3243   -5.5982    4.7421 O   0  0  0  0  0  0  0  0  0  0  0  0
   -8.7612   -6.4483    2.5540 C   0  0  2  0  0  0  0  0  0  0  0  0
   -8.1914   -7.5605    1.8755 O   0  0  0  0  0  0  0  0  0  0  0  0
   -8.1158   -5.1543    2.0661 C   0  0  1  0  0  0  0  0  0  0  0  0
   -6.7186   -5.1462    2.4177 O   0  0  0  0  0  0  0  0  0  0  0  0
   -8.2221   -4.9614    0.5636 C   0  0  0  0  0  0  0  0  0  0  0  0
   -8.4095   -6.2461   -0.1464 N   0  3  0  0  0  0  0  0  0  0  0  0
    1.0924   -0.4279    0.8585 C   0  0  0  0  0  0  0  0  0  0  0  0
   -1.0690   -3.4364    0.7882 C   0  0  2  0  0  0  0  0  0  0  0  0
   -0.1033   -4.5041    1.2964 C   0  0  2  0  0  0  0  0  0  0  0  0
   -0.8549   -5.6829    1.7895 N   0  3  0  0  0  0  0  0  0  0  0  0
    0.7524   -3.9436    2.4246 C   0  0  1  0  0  0  0  0  0  0  0  0
    1.6975   -4.9197    2.8353 O   0  0  0  0  0  0  0  0  0  0  0  0
    1.4718   -2.6855    1.9436 C   0  0  2  0  0  0  0  0  0  0  0  0
    2.2186   -2.1170    3.0116 O   0  0  0  0  0  0  0  0  0  0  0  0
    0.4303   -0.0047   -0.3967 N   0  3  0  0  0  0  0  0  0  0  0  0
    0.4452   -1.6740    1.4374 C   0  0  2  0  0  0  0  0  0  0  0  0
   -0.3604   -2.2635    0.3966 O   0  0  0  0  0  0  0  0  0  0  0  0
   -4.3235   -0.0868   -0.0510 C   0  0  2  0  0  0  0  0  0  0  0  0
   -5.4907    0.6921   -0.5247 N   0  3  0  0  0  0  0  0  0  0  0  0
   -4.3325   -1.4746   -0.6818 C   0  0  0  0  0  0  0  0  0  0  0  0
   -3.1387   -2.2880   -0.2017 C   0  0  2  0  0  0  0  0  0  0  0  0
   -3.2048   -3.5956   -0.8389 N   0  3  0  0  0  0  0  0  0  0  0  0
   -3.1806   -2.4204    1.3188 C   0  0  1  0  0  0  0  0  0  0  0  0
   -2.0327   -3.1671    1.7674 O   0  0  0  0  0  0  0  0  0  0  0  0
   -3.1826   -1.0379    1.9859 C   0  0  2  0  0  0  0  0  0  0  0  0
   -3.3278   -1.1958    3.4102 O   0  0  0  0  0  0  0  0  0  0  0  0
   -4.3317   -0.1727    1.4744 C   0  0  1  0  0  0  0  0  0  0  0  0
   -4.2220    1.1341    2.0228 O   0  0  0  0  0  0  0  0  0  0  0  0
  1  2  1  0  0  0  0
  3  2  1  1  0  0  0
  3  5  1  0  0  0  0
  3  4  1  0  0  0  0
  4  9  1  0  0  0  0
  5  7  1  0  0  0  0
  5  6  1  1  0  0  0
  7  9  1  0  0  0  0
  7  8  1  1  0  0  0
  9 40  1  6  0  0  0
 10  6  1  6  0  0  0
 10 11  1  0  0  0  0
 10 18  1  0  0  0  0
 11 13  1  0  0  0  0
 11 12  1  6  0  0  0
 13 15  1  0  0  0  0
 13 14  1  1  0  0  0
 15 17  1  0  0  0  0
 15 16  1  6  0  0  0
 17 19  1  6  0  0  0
 17 18  1  0  0  0  0
 19 20  1  0  0  0  0
 21 29  1  0  0  0  0
 22 23  1  0  0  0  0
 22 31  1  0  0  0  0
 22 38  1  1  0  0  0
 23 25  1  0  0  0  0
 23 24  1  1  0  0  0
 25 27  1  0  0  0  0
 25 26  1  6  0  0  0
 27 30  1  0  0  0  0
 27 28  1  1  0  0  0
 30 21  1  6  0  0  0
 30 31  1  0  0  0  0
 32 34  1  0  0  0  0
 32 41  1  0  0  0  0
 32 33  1  6  0  0  0
 34 35  1  0  0  0  0
 35 37  1  0  0  0  0
 35 36  1  6  0  0  0
 37 39  1  0  0  0  0
 37 38  1  1  0  0  0
 39 41  1  0  0  0  0
 39 40  1  1  0  0  0
 41 42  1  1  0  0  0
M  CHG  6  12   1  20   1  24   1  29   1  33   1  36   1
M  END
>  <CHROM.1>
-61.88727779,45.68200257,84.24428440,-155.73030066,-105.61447347,171.55000289
-55.19116039,-157.38293003,74.21057419,-23.19800881,-40.52865917,137.15268656
-25.86145455,-166.06305345,-176.27910335,69.48566292,48.92361424,170.15176477
140.11629106,8.38844882,-77.08054218,69.71829880,-3.92334610,-3.34813345
2.38544637,-2.66509598,-0.19401489,-0.81655444

>  <Name>
1NEM.B

>  <RI>
0

>  <Rbt.Current_Directory>
/home/itssahil/PROJECTS/Mol_Feturizer/New_Systems/rnas/1nem

>  <Rbt.Executable>
rbdock ($Id: //depot/dev/client3/rdock/2013.1/src/exe/rbdock.cxx#4 $)

>  <Rbt.Library>
libRbt.so (2013.1, Build901 2013/11/27)

>  <Rbt.Parameter_File>
/export/apps/rDock/src/rDock_2013.1_src/data/scripts/dock_solv.prm

>  <Rbt.Receptor>
prm/blind_docking_100.prm

>  <SCORE>
-30.8412

>  <SCORE.INTER>
-61.9886

>  <SCORE.INTER.CONST>
1

>  <SCORE.INTER.POLAR>
-9.67931

>  <SCORE.INTER.ROT>
9

>  <SCORE.INTER.SOLV>
50.3217

>  <SCORE.INTER.VDW>
-35.4353

>  <SCORE.INTER.norm>
-1.47592

>  <SCORE.INTRA>
29.7985

>  <SCORE.INTRA.DIHEDRAL>
17.6233

>  <SCORE.INTRA.DIHEDRAL.0>
22.4324

>  <SCORE.INTRA.POLAR>
0.811786

>  <SCORE.INTRA.POLAR.0>
-1.83749

>  <SCORE.INTRA.REPUL>
0

>  <SCORE.INTRA.REPUL.0>
0

>  <SCORE.INTRA.SOLV>
-1.01546

>  <SCORE.INTRA.SOLV.lig_0>
-160.638

>  <SCORE.INTRA.VDW>
18.7345

>  <SCORE.INTRA.VDW.0>
-7.61953

>  <SCORE.INTRA.norm>
0.709488

>  <SCORE.RESTR>
1.34883

>  <SCORE.RESTR.CAVITY>
1.34883

>  <SCORE.RESTR.norm>
0.032115

>  <SCORE.SYSTEM>
0

>  <SCORE.SYSTEM.CONST>
0

>  <SCORE.SYSTEM.DIHEDRAL>
0

>  <SCORE.SYSTEM.SOLV>
0

>  <SCORE.SYSTEM.norm>
0

>  <SCORE.heavy>
42

>  <SCORE.norm>
-0.734315

>  <RMSD>
9.089

$$$$
1NEM.B
 OpenBabel11021811403D
libRbt.so/2013.1/901 2013/11/27
 42 45  0  0  0  0  0  0  0  0999 V2000
   -3.3186   -5.5436    5.8447 O   0  0  0  0  0  0  0  0  0  0  0  0
   -2.8350   -4.3051    5.3207 C   0  0  0  0  0  0  0  0  0  0  0  0
   -3.9535   -3.3185    4.9888 C   0  0  1  0  0  0  0  0  0  0  0  0
   -3.4173   -2.1073    4.4643 O   0  0  0  0  0  0  0  0  0  0  0  0
   -4.9022   -3.7797    3.8939 C   0  0  1  0  0  0  0  0  0  0  0  0
   -5.7133   -4.8198    4.4451 O   0  0  0  0  0  0  0  0  0  0  0  0
   -5.5952   -2.4604    3.6093 C   0  0  1  0  0  0  0  0  0  0  0  0
   -6.4516   -2.0571    4.6831 O   0  0  0  0  0  0  0  0  0  0  0  0
   -4.3613   -1.5524    3.5481 C   0  0  2  0  0  0  0  0  0  0  0  0
   -6.9927   -4.9622    3.8975 C   0  0  2  0  0  0  0  0  0  0  0  0
   -7.5290   -6.3631    4.2219 C   0  0  2  0  0  0  0  0  0  0  0  0
   -6.5515   -7.3965    3.7895 N   0  3  0  0  0  0  0  0  0  0  0  0
   -8.9041   -6.5822    3.5828 C   0  0  1  0  0  0  0  0  0  0  0  0
   -9.8741   -5.7875    4.2524 O   0  0  0  0  0  0  0  0  0  0  0  0
   -8.8853   -6.2236    2.0937 C   0  0  2  0  0  0  0  0  0  0  0  0
   -8.0929   -7.1572    1.3708 O   0  0  0  0  0  0  0  0  0  0  0  0
   -8.3262   -4.8153    1.9120 C   0  0  1  0  0  0  0  0  0  0  0  0
   -7.0105   -4.7366    2.4939 O   0  0  0  0  0  0  0  0  0  0  0  0
   -8.2206   -4.3959    0.4563 C   0  0  0  0  0  0  0  0  0  0  0  0
   -9.5444   -4.0808   -0.1252 N   0  3  0  0  0  0  0  0  0  0  0  0
    3.0913   -1.0474    2.5448 C   0  0  0  0  0  0  0  0  0  0  0  0
    0.0824   -1.9611    0.5855 C   0  0  2  0  0  0  0  0  0  0  0  0
    0.1974   -3.4834    0.5627 C   0  0  2  0  0  0  0  0  0  0  0  0
   -1.1153   -4.0924    0.2413 N   0  3  0  0  0  0  0  0  0  0  0  0
    0.6724   -3.9941    1.9164 C   0  0  1  0  0  0  0  0  0  0  0  0
    0.8497   -5.4011    1.8589 O   0  0  0  0  0  0  0  0  0  0  0  0
    1.9884   -3.3134    2.2863 C   0  0  2  0  0  0  0  0  0  0  0  0
    2.4033   -3.7330    3.5798 O   0  0  0  0  0  0  0  0  0  0  0  0
    2.8382    0.3815    2.8400 N   0  3  0  0  0  0  0  0  0  0  0  0
    1.7992   -1.7978    2.2725 C   0  0  2  0  0  0  0  0  0  0  0  0
    1.3168   -1.3699    0.9826 O   0  0  0  0  0  0  0  0  0  0  0  0
   -3.4620    1.7745    0.6390 C   0  0  2  0  0  0  0  0  0  0  0  0
   -4.4937    2.6336    0.0138 N   0  3  0  0  0  0  0  0  0  0  0  0
   -2.4100    1.3876   -0.3943 C   0  0  0  0  0  0  0  0  0  0  0  0
   -1.3434    0.5019    0.2343 C   0  0  2  0  0  0  0  0  0  0  0  0
   -0.3729    0.1706   -0.7994 N   0  3  0  0  0  0  0  0  0  0  0  0
   -1.9878   -0.7610    0.8011 C   0  0  1  0  0  0  0  0  0  0  0  0
   -0.9761   -1.5803    1.4189 O   0  0  0  0  0  0  0  0  0  0  0  0
   -3.0610   -0.4057    1.8395 C   0  0  2  0  0  0  0  0  0  0  0  0
   -3.7196   -1.6100    2.2760 O   0  0  0  0  0  0  0  0  0  0  0  0
   -4.1110    0.5373    1.2572 C   0  0  1  0  0  0  0  0  0  0  0  0
   -5.0105    0.9369    2.2828 O   0  0  0  0  0  0  0  0  0  0  0  0
  1  2  1  0  0  0  0
  3  2  1  6  0  0  0
  3  5  1  0  0  0  0
  3  4  1  0  0  0  0
  4  9  1  0  0  0  0
  5  7  1  0  0  0  0
  5  6  1  1  0  0  0
  7  9  1  0  0  0  0
  7  8  1  1  0  0  0
  9 40  1  6  0  0  0
 10  6  1  6  0  0  0
 10 11  1  0  0  0  0
 10 18  1  0  0  0  0
 11 13  1  0  0  0  0
 11 12  1  6  0  0  0
 13 15  1  0  0  0  0
 13 14  1  1  0  0  0
 15 17  1  0  0  0  0
 15 16  1  6  0  0  0
 17 19  1  6  0  0  0
 17 18  1  0  0  0  0
 19 20  1  0  0  0  0
 21 29  1  0  0  0  0
 22 23  1  0  0  0  0
 22 31  1  0  0  0  0
 22 38  1  1  0  0  0
 23 25  1  0  0  0  0
 23 24  1  1  0  0  0
 25 27  1  0  0  0  0
 25 26  1  6  0  0  0
 27 30  1  0  0  0  0
 27 28  1  1  0  0  0
 30 21  1  6  0  0  0
 30 31  1  0  0  0  0
 32 34  1  0  0  0  0
 32 41  1  0  0  0  0
 32 33  1  6  0  0  0
 34 35  1  0  0  0  0
 35 37  1  0  0  0  0
 35 36  1  6  0  0  0
 37 39  1  0  0  0  0
 37 38  1  1  0  0  0
 39 41  1  0  0  0  0
 39 40  1  6  0  0  0
 41 42  1  1  0  0  0
M  CHG  6  12   1  20   1  24   1  29   1  33   1  36   1
M  END
>  <CHROM.1>
-54.35049391,-179.66330901,151.41995891,160.48009137,97.50391067,-96.79334082
58.81984816,-174.45188157,77.24441951,74.22981072,173.06505896,-166.70335201
-73.59997776,-123.44056270,158.77878202,48.93327109,-175.21224880,170.91653672
-85.53654114,-57.41366652,157.35185538,162.45146113,-3.51752373,-2.84572293
2.33502986,-2.66371143,-0.06300473,-0.46305785

>  <Name>
1NEM.B

>  <RI>
0

>  <Rbt.Current_Directory>
/home/itssahil/PROJECTS/Mol_Feturizer/New_Systems/rnas/1nem

>  <Rbt.Executable>
rbdock ($Id: //depot/dev/client3/rdock/2013.1/src/exe/rbdock.cxx#4 $)

>  <Rbt.Library>
libRbt.so (2013.1, Build901 2013/11/27)

>  <Rbt.Parameter_File>
/export/apps/rDock/src/rDock_2013.1_src/data/scripts/dock_solv.prm

>  <Rbt.Receptor>
prm/blind_docking_100.prm

>  <SCORE>
-45.265

>  <SCORE.INTER>
-60.19

>  <SCORE.INTER.CONST>
1

>  <SCORE.INTER.POLAR>
-9.06752

>  <SCORE.INTER.ROT>
9

>  <SCORE.INTER.SOLV>
54.2584

>  <SCORE.INTER.VDW>
-37.5877

>  <SCORE.INTER.norm>
-1.43309

>  <SCORE.INTRA>
12.5776

>  <SCORE.INTRA.DIHEDRAL>
10.0737

>  <SCORE.INTRA.DIHEDRAL.0>
22.4324

>  <SCORE.INTRA.POLAR>
0.532493

>  <SCORE.INTRA.POLAR.0>
-1.83749

>  <SCORE.INTRA.REPUL>
0

>  <SCORE.INTRA.REPUL.0>
0

>  <SCORE.INTRA.SOLV>
-6.07361

>  <SCORE.INTRA.SOLV.lig_0>
-160.638

>  <SCORE.INTRA.VDW>
8.76705

>  <SCORE.INTRA.VDW.0>
-7.61953

>  <SCORE.INTRA.norm>
0.299466

>  <SCORE.RESTR>
2.34741

>  <SCORE.RESTR.CAVITY>
2.34741

>  <SCORE.RESTR.norm>
0.0558907

>  <SCORE.SYSTEM>
0

>  <SCORE.SYSTEM.CONST>
0

>  <SCORE.SYSTEM.DIHEDRAL>
0

>  <SCORE.SYSTEM.SOLV>
0

>  <SCORE.SYSTEM.norm>
0

>  <SCORE.heavy>
42

>  <SCORE.norm>
-1.07774

>  <RMSD>
9.091

$$$$
1NEM.B
 OpenBabel11021811403D
libRbt.so/2013.1/901 2013/11/27
 42 45  0  0  0  0  0  0  0  0999 V2000
   -5.5567   -4.3147    6.3869 O   0  0  0  0  0  0  0  0  0  0  0  0
   -4.6220   -3.3920    5.8238 C   0  0  0  0  0  0  0  0  0  0  0  0
   -5.2833   -2.3328    4.9432 C   0  0  1  0  0  0  0  0  0  0  0  0
   -4.3463   -1.3227    4.5808 O   0  0  0  0  0  0  0  0  0  0  0  0
   -5.7785   -2.8438    3.5997 C   0  0  1  0  0  0  0  0  0  0  0  0
   -6.9364   -3.6437    3.8501 O   0  0  0  0  0  0  0  0  0  0  0  0
   -6.0122   -1.5122    2.9110 C   0  0  1  0  0  0  0  0  0  0  0  0
   -7.1288   -0.8069    3.4631 O   0  0  0  0  0  0  0  0  0  0  0  0
   -4.7030   -0.8130    3.2957 C   0  0  2  0  0  0  0  0  0  0  0  0
   -6.8897   -4.9622    3.3845 C   0  0  2  0  0  0  0  0  0  0  0  0
   -8.2779   -5.6001    3.5311 C   0  0  2  0  0  0  0  0  0  0  0  0
   -8.7618   -5.4535    4.9292 N   0  3  0  0  0  0  0  0  0  0  0  0
   -8.2528   -7.0676    3.0917 C   0  0  1  0  0  0  0  0  0  0  0  0
   -8.0972   -7.1412    1.6807 O   0  0  0  0  0  0  0  0  0  0  0  0
   -7.1132   -7.8299    3.7748 C   0  0  2  0  0  0  0  0  0  0  0  0
   -7.3724   -7.9627    5.1667 O   0  0  0  0  0  0  0  0  0  0  0  0
   -5.7974   -7.0878    3.5587 C   0  0  1  0  0  0  0  0  0  0  0  0
   -5.9113   -5.7417    4.0599 O   0  0  0  0  0  0  0  0  0  0  0  0
   -4.6171   -7.7470    4.2503 C   0  0  0  0  0  0  0  0  0  0  0  0
   -5.0276   -8.4693    5.4750 N   0  3  0  0  0  0  0  0  0  0  0  0
    3.0873   -0.8687    0.2759 C   0  0  0  0  0  0  0  0  0  0  0  0
   -0.2906   -2.3713    0.5197 C   0  0  2  0  0  0  0  0  0  0  0  0
    0.0144   -3.6584    1.2822 C   0  0  2  0  0  0  0  0  0  0  0  0
   -1.2226   -4.1959    1.8973 N   0  3  0  0  0  0  0  0  0  0  0  0
    1.0444   -3.3914    2.3716 C   0  0  1  0  0  0  0  0  0  0  0  0
    1.3768   -4.6089    3.0211 O   0  0  0  0  0  0  0  0  0  0  0  0
    2.2935   -2.7684    1.7522 C   0  0  2  0  0  0  0  0  0  0  0  0
    3.2328   -2.4523    2.7716 O   0  0  0  0  0  0  0  0  0  0  0  0
    4.0351   -0.2453    1.2278 N   0  3  0  0  0  0  0  0  0  0  0  0
    1.9076   -1.4987    0.9958 C   0  0  2  0  0  0  0  0  0  0  0  0
    0.9071   -1.7985    0.0014 O   0  0  0  0  0  0  0  0  0  0  0  0
   -3.3321    1.8909    0.2836 C   0  0  2  0  0  0  0  0  0  0  0  0
   -4.3676    2.7204   -0.3744 N   0  3  0  0  0  0  0  0  0  0  0  0
   -2.4094    1.2804   -0.7653 C   0  0  0  0  0  0  0  0  0  0  0  0
   -1.3405    0.4225   -0.1030 C   0  0  2  0  0  0  0  0  0  0  0  0
   -0.4956   -0.1273   -1.1537 N   0  3  0  0  0  0  0  0  0  0  0  0
   -1.9995   -0.6928    0.7052 C   0  0  1  0  0  0  0  0  0  0  0  0
   -0.9823   -1.4827    1.3515 O   0  0  0  0  0  0  0  0  0  0  0  0
   -2.9446   -0.1111    1.7658 C   0  0  2  0  0  0  0  0  0  0  0  0
   -3.6269   -1.1868    2.4381 O   0  0  0  0  0  0  0  0  0  0  0  0
   -3.9892    0.8088    1.1388 C   0  0  1  0  0  0  0  0  0  0  0  0
   -4.7604    1.4196    2.1649 O   0  0  0  0  0  0  0  0  0  0  0  0
  1  2  1  0  0  0  0
  3  2  1  6  0  0  0
  3  5  1  0  0  0  0
  3  4  1  0  0  0  0
  4  9  1  0  0  0  0
  5  7  1  0  0  0  0
  5  6  1  1  0  0  0
  7  9  1  0  0  0  0
  7  8  1  1  0  0  0
  9 40  1  6  0  0  0
 10  6  1  1  0  0  0
 10 11  1  0  0  0  0
 10 18  1  0  0  0  0
 11 13  1  0  0  0  0
 11 12  1  1  0  0  0
 13 15  1  0  0  0  0
 13 14  1  6  0  0  0
 15 17  1  0  0  0  0
 15 16  1  1  0  0  0
 17 19  1  1  0  0  0
 17 18  1  0  0  0  0
 19 20  1  0  0  0  0
 21 29  1  0  0  0  0
 22 23  1  0  0  0  0
 22 31  1  0  0  0  0
 22 38  1  1  0  0  0
 23 25  1  0  0  0  0
 23 24  1  1  0  0  0
 25 27  1  0  0  0  0
 25 26  1  6  0  0  0
 27 30  1  0  0  0  0
 27 28  1  1  0  0  0
 30 21  1  6  0  0  0
 30 31  1  0  0  0  0
 32 34  1  0  0  0  0
 32 41  1  0  0  0  0
 32 33  1  6  0  0  0
 34 35  1  0  0  0  0
 35 37  1  0  0  0  0
 35 36  1  6  0  0  0
 37 39  1  0  0  0  0
 37 38  1  1  0  0  0
 39 41  1  0  0  0  0
 39 40  1  6  0  0  0
 41 42  1  1  0  0  0
M  CHG  6  12   1  20   1  24   1  29   1  33   1  36   1
M  END
>  <CHROM.1>
69.51514018,170.86927117,-123.16803983,-170.93334977,-53.08078552,-121.58720010
55.59103694,-172.20831462,80.34016158,-29.63561645,81.52401588,-71.63197332
75.13041416,-143.37970145,175.80003858,-49.56676824,67.29780420,170.17673771
63.92248651,-75.89216263,-169.87047942,60.19306242,-3.34867038,-2.85954458
2.54064409,-2.46488001,0.16852289,-0.37448551

>  <Name>
1NEM.B

>  <RI>
0

>  <Rbt.Current_Directory>
/home/itssahil/PROJECTS/Mol_Feturizer/New_Systems/rnas/1nem

>  <Rbt.Executable>
rbdock ($Id: //depot/dev/client3/rdock/2013.1/src/exe/rbdock.cxx#4 $)

>  <Rbt.Library>
libRbt.so (2013.1, Build901 2013/11/27)

>  <Rbt.Parameter_File>
/export/apps/rDock/src/rDock_2013.1_src/data/scripts/dock_solv.prm

>  <Rbt.Receptor>
prm/blind_docking_40.prm

>  <SCORE>
-14.8084

>  <SCORE.INTER>
-34.777

>  <SCORE.INTER.CONST>
1

>  <SCORE.INTER.POLAR>
-5.89407

>  <SCORE.INTER.ROT>
9

>  <SCORE.INTER.SOLV>
39.6893

>  <SCORE.INTER.VDW>
-26.3675

>  <SCORE.INTER.norm>
-0.828023

>  <SCORE.INTRA>
13.2732

>  <SCORE.INTRA.DIHEDRAL>
7.82212

>  <SCORE.INTRA.DIHEDRAL.0>
22.4324

>  <SCORE.INTRA.POLAR>
-0.793909

>  <SCORE.INTRA.POLAR.0>
-1.83749

>  <SCORE.INTRA.REPUL>
0.00020666

>  <SCORE.INTRA.REPUL.0>
0

>  <SCORE.INTRA.SOLV>
2.76642

>  <SCORE.INTRA.SOLV.lig_0>
-160.638

>  <SCORE.INTRA.VDW>
10.6772

>  <SCORE.INTRA.VDW.0>
-7.61953

>  <SCORE.INTRA.norm>
0.316029

>  <SCORE.RESTR>
6.69537

>  <SCORE.RESTR.CAVITY>
6.69537

>  <SCORE.RESTR.norm>
0.159414

>  <SCORE.SYSTEM>
0

>  <SCORE.SYSTEM.CONST>
0

>  <SCORE.SYSTEM.DIHEDRAL>
0

>  <SCORE.SYSTEM.SOLV>
0

>  <SCORE.SYSTEM.norm>
0

>  <SCORE.heavy>
42

>  <SCORE.norm>
-0.352581

>  <RMSD>
9.104

$$$$
1NEM.B
 OpenBabel11021811403D
libRbt.so/2013.1/901 2013/11/27
 42 45  0  0  0  0  0  0  0  0999 V2000
   -4.0523   -5.0210    4.6760 O   0  0  0  0  0  0  0  0  0  0  0  0
   -3.4228   -3.7407    4.5951 C   0  0  0  0  0  0  0  0  0  0  0  0
   -4.3420   -2.6564    4.0345 C   0  0  1  0  0  0  0  0  0  0  0  0
   -3.5879   -1.5192    3.6251 O   0  0  0  0  0  0  0  0  0  0  0  0
   -5.0894   -3.0496    2.7702 C   0  0  1  0  0  0  0  0  0  0  0  0
   -6.0988   -3.9885    3.1482 O   0  0  0  0  0  0  0  0  0  0  0  0
   -5.5697   -1.6757    2.3417 C   0  0  1  0  0  0  0  0  0  0  0  0
   -6.5812   -1.1605    3.2138 O   0  0  0  0  0  0  0  0  0  0  0  0
   -4.2624   -0.8974    2.5310 C   0  0  2  0  0  0  0  0  0  0  0  0
   -6.6210   -4.7821    2.1212 C   0  0  2  0  0  0  0  0  0  0  0  0
   -6.9933   -3.8883    0.9304 C   0  0  2  0  0  0  0  0  0  0  0  0
   -7.8870   -2.7878    1.3782 N   0  3  0  0  0  0  0  0  0  0  0  0
   -7.6303   -4.7134   -0.1925 C   0  0  1  0  0  0  0  0  0  0  0  0
   -6.6423   -5.5340   -0.8017 O   0  0  0  0  0  0  0  0  0  0  0  0
   -8.7677   -5.5893    0.3418 C   0  0  2  0  0  0  0  0  0  0  0  0
   -9.8650   -4.7808    0.7472 O   0  0  0  0  0  0  0  0  0  0  0  0
   -8.2670   -6.4172    1.5219 C   0  0  1  0  0  0  0  0  0  0  0  0
   -7.7459   -5.5428    2.5418 O   0  0  0  0  0  0  0  0  0  0  0  0
   -9.3478   -7.2788    2.1508 C   0  0  0  0  0  0  0  0  0  0  0  0
   -9.1038   -7.5062    3.5925 N   0  3  0  0  0  0  0  0  0  0  0  0
    3.5968   -0.2221    1.6969 C   0  0  0  0  0  0  0  0  0  0  0  0
    0.4785   -1.7630    0.4205 C   0  0  2  0  0  0  0  0  0  0  0  0
    0.5794   -3.1660    1.0142 C   0  0  2  0  0  0  0  0  0  0  0  0
   -0.7540   -3.8137    1.0296 N   0  3  0  0  0  0  0  0  0  0  0  0
    1.1228   -3.0966    2.4351 C   0  0  1  0  0  0  0  0  0  0  0  0
    1.2848   -4.4103    2.9475 O   0  0  0  0  0  0  0  0  0  0  0  0
    2.4625   -2.3639    2.4347 C   0  0  2  0  0  0  0  0  0  0  0  0
    2.9434   -2.2340    3.7663 O   0  0  0  0  0  0  0  0  0  0  0  0
    4.3799   -0.6688    0.5220 N   0  3  0  0  0  0  0  0  0  0  0  0
    2.2856   -0.9796    1.8137 C   0  0  2  0  0  0  0  0  0  0  0  0
    1.7376   -1.0984    0.4850 O   0  0  0  0  0  0  0  0  0  0  0  0
   -2.8395    2.1910   -0.4208 C   0  0  2  0  0  0  0  0  0  0  0  0
   -3.7418    2.9781   -1.2924 N   0  3  0  0  0  0  0  0  0  0  0  0
   -1.6159    1.7395   -1.2100 C   0  0  0  0  0  0  0  0  0  0  0  0
   -0.6798    0.9267   -0.3266 C   0  0  2  0  0  0  0  0  0  0  0  0
    0.4637    0.5291   -1.1357 N   0  3  0  0  0  0  0  0  0  0  0  0
   -1.4139   -0.2968    0.2171 C   0  0  1  0  0  0  0  0  0  0  0  0
   -0.5300   -1.0452    1.0744 O   0  0  0  0  0  0  0  0  0  0  0  0
   -2.6592    0.1234    1.0101 C   0  0  2  0  0  0  0  0  0  0  0  0
   -3.3837   -1.0526    1.4188 O   0  0  0  0  0  0  0  0  0  0  0  0
   -3.5876    0.9972    0.1703 C   0  0  1  0  0  0  0  0  0  0  0  0
   -4.6599    1.4635    0.9786 O   0  0  0  0  0  0  0  0  0  0  0  0
  1  2  1  0  0  0  0
  3  2  1  6  0  0  0
  3  5  1  0  0  0  0
  3  4  1  0  0  0  0
  4  9  1  0  0  0  0
  5  7  1  0  0  0  0
  5  6  1  1  0  0  0
  7  9  1  0  0  0  0
  7  8  1  1  0  0  0
  9 40  1  6  0  0  0
 10  6  1  1  0  0  0
 10 11  1  0  0  0  0
 10 18  1  0  0  0  0
 11 13  1  0  0  0  0
 11 12  1  1  0  0  0
 13 15  1  0  0  0  0
 13 14  1  1  0  0  0
 15 17  1  0  0  0  0
 15 16  1  1  0  0  0
 17 19  1  1  0  0  0
 17 18  1  0  0  0  0
 19 20  1  0  0  0  0
 21 29  1  0  0  0  0
 22 23  1  0  0  0  0
 22 31  1  0  0  0  0
 22 38  1  1  0  0  0
 23 25  1  0  0  0  0
 23 24  1  1  0  0  0
 25 27  1  0  0  0  0
 25 26  1  6  0  0  0
 27 30  1  0  0  0  0
 27 28  1  1  0  0  0
 30 21  1  6  0  0  0
 30 31  1  0  0  0  0
 32 34  1  0  0  0  0
 32 41  1  0  0  0  0
 32 33  1  6  0  0  0
 34 35  1  0  0  0  0
 35 37  1  0  0  0  0
 35 36  1  6  0  0  0
 37 39  1  0  0  0  0
 37 38  1  1  0  0  0
 39 41  1  0  0  0  0
 39 40  1  6  0  0  0
 41 42  1  1  0  0  0
M  CHG  6  12   1  20   1  24   1  29   1  33   1  36   1
M  END
>  <CHROM.1>
60.87885944,-163.72440003,-160.88431730,-48.41338177,-177.81745181,-104.76276652
136.94427871,-98.51232740,168.84469736,-150.72828419,63.70515678,79.75903506
48.50958770,-135.30118085,74.79036189,61.55194644,-179.83279256,-107.13392695
48.97993192,-73.25953899,158.28796120,-54.05478098,-3.25725605,-2.34526413
1.54212535,-2.71126680,-0.13177635,-0.48252775

>  <Name>
1NEM.B

>  <RI>
0

>  <Rbt.Current_Directory>
/home/itssahil/PROJECTS/Mol_Feturizer/New_Systems/rnas/1nem

>  <Rbt.Executable>
rbdock ($Id: //depot/dev/client3/rdock/2013.1/src/exe/rbdock.cxx#4 $)

>  <Rbt.Library>
libRbt.so (2013.1, Build901 2013/11/27)

>  <Rbt.Parameter_File>
/export/apps/rDock/src/rDock_2013.1_src/data/scripts/dock_solv.prm

>  <Rbt.Receptor>
prm/blind_docking_60.prm

>  <SCORE>
-37.008

>  <SCORE.INTER>
-55.9329

>  <SCORE.INTER.CONST>
1

>  <SCORE.INTER.POLAR>
-6.98881

>  <SCORE.INTER.ROT>
9

>  <SCORE.INTER.SOLV>
40.2496

>  <SCORE.INTER.VDW>
-37.0091

>  <SCORE.INTER.norm>
-1.33173

>  <SCORE.INTRA>
13.7156

>  <SCORE.INTRA.DIHEDRAL>
13.5295

>  <SCORE.INTRA.DIHEDRAL.0>
22.4324

>  <SCORE.INTRA.POLAR>
-0.469117

>  <SCORE.INTRA.POLAR.0>
-1.83749

>  <SCORE.INTRA.REPUL>
0

>  <SCORE.INTRA.REPUL.0>
0

>  <SCORE.INTRA.SOLV>
1.83092

>  <SCORE.INTRA.SOLV.lig_0>
-160.638

>  <SCORE.INTRA.VDW>
7.63042

>  <SCORE.INTRA.VDW.0>
-7.61953

>  <SCORE.INTRA.norm>
0.326562

>  <SCORE.RESTR>
5.20924

>  <SCORE.RESTR.CAVITY>
5.20924

>  <SCORE.RESTR.norm>
0.124029

>  <SCORE.SYSTEM>
0

>  <SCORE.SYSTEM.CONST>
0

>  <SCORE.SYSTEM.DIHEDRAL>
0

>  <SCORE.SYSTEM.SOLV>
0

>  <SCORE.SYSTEM.norm>
0

>  <SCORE.heavy>
42

>  <SCORE.norm>
-0.881143

>  <RMSD>
9.113

$$$$
1NEM.B
 OpenBabel11021811403D
libRbt.so/2013.1/901 2013/11/27
 42 45  0  0  0  0  0  0  0  0999 V2000
   -2.2799   -4.5098    4.6070 O   0  0  0  0  0  0  0  0  0  0  0  0
   -3.5320   -4.2015    5.2229 C   0  0  0  0  0  0  0  0  0  0  0  0
   -4.2133   -2.9773    4.6132 C   0  0  1  0  0  0  0  0  0  0  0  0
   -3.2572   -1.9628    4.3196 O   0  0  0  0  0  0  0  0  0  0  0  0
   -4.8787   -3.2253    3.2688 C   0  0  1  0  0  0  0  0  0  0  0  0
   -6.0525   -4.0037    3.5131 O   0  0  0  0  0  0  0  0  0  0  0  0
   -5.0981   -1.7856    2.8435 C   0  0  1  0  0  0  0  0  0  0  0  0
   -6.1032   -1.1370    3.6298 O   0  0  0  0  0  0  0  0  0  0  0  0
   -3.7138   -1.2229    3.1871 C   0  0  2  0  0  0  0  0  0  0  0  0
   -6.5555   -4.7228    2.4235 C   0  0  2  0  0  0  0  0  0  0  0  0
   -6.7687   -3.7674    1.2415 C   0  0  2  0  0  0  0  0  0  0  0  0
   -7.6069   -2.6139    1.6626 N   0  3  0  0  0  0  0  0  0  0  0  0
   -7.3811   -4.5059    0.0470 C   0  0  1  0  0  0  0  0  0  0  0  0
   -6.4158   -5.3831   -0.5182 O   0  0  0  0  0  0  0  0  0  0  0  0
   -8.6186   -5.3053    0.4664 C   0  0  2  0  0  0  0  0  0  0  0  0
   -9.6784   -4.4256    0.8201 O   0  0  0  0  0  0  0  0  0  0  0  0
   -8.2719   -6.2049    1.6494 C   0  0  1  0  0  0  0  0  0  0  0  0
   -7.7633   -5.4050    2.7346 O   0  0  0  0  0  0  0  0  0  0  0  0
   -9.4591   -6.9973    2.1676 C   0  0  0  0  0  0  0  0  0  0  0  0
  -10.6464   -6.1394    2.3780 N   0  3  0  0  0  0  0  0  0  0  0  0
    3.6403    0.9257    2.3926 C   0  0  0  0  0  0  0  0  0  0  0  0
    1.2100   -1.4130    0.8591 C   0  0  2  0  0  0  0  0  0  0  0  0
    1.7032   -2.7502    1.4064 C   0  0  2  0  0  0  0  0  0  0  0  0
    0.6319   -3.7704    1.3107 N   0  3  0  0  0  0  0  0  0  0  0  0
    2.1259   -2.5979    2.8614 C   0  0  1  0  0  0  0  0  0  0  0  0
    2.6543   -3.8272    3.3348 O   0  0  0  0  0  0  0  0  0  0  0  0
    3.1767   -1.4957    2.9755 C   0  0  2  0  0  0  0  0  0  0  0  0
    3.5261   -1.2998    4.3397 O   0  0  0  0  0  0  0  0  0  0  0  0
    4.7819    0.6198    1.5003 N   0  3  0  0  0  0  0  0  0  0  0  0
    2.6182   -0.1978    2.3954 C   0  0  2  0  0  0  0  0  0  0  0  0
    2.2015   -0.4036    1.0303 O   0  0  0  0  0  0  0  0  0  0  0  0
   -3.0270    1.1850   -0.4786 C   0  0  2  0  0  0  0  0  0  0  0  0
   -4.1332    1.5372   -1.3982 N   0  3  0  0  0  0  0  0  0  0  0  0
   -1.7994    0.7628   -1.2780 C   0  0  0  0  0  0  0  0  0  0  0  0
   -0.6541    0.3954   -0.3450 C   0  0  2  0  0  0  0  0  0  0  0  0
    0.4827    0.0048   -1.1668 N   0  3  0  0  0  0  0  0  0  0  0  0
   -1.0809   -0.7477    0.5729 C   0  0  1  0  0  0  0  0  0  0  0  0
   -0.0015   -1.0704    1.4714 O   0  0  0  0  0  0  0  0  0  0  0  0
   -2.3229   -0.3581    1.3864 C   0  0  2  0  0  0  0  0  0  0  0  0
   -2.7600   -1.4907    2.1615 O   0  0  0  0  0  0  0  0  0  0  0  0
   -3.4699    0.0802    0.4792 C   0  0  1  0  0  0  0  0  0  0  0  0
   -4.5512    0.5482    1.2742 O   0  0  0  0  0  0  0  0  0  0  0  0
  1  2  1  0  0  0  0
  3  2  1  6  0  0  0
  3  5  1  0  0  0  0
  3  4  1  0  0  0  0
  4  9  1  0  0  0  0
  5  7  1  0  0  0  0
  5  6  1  1  0  0  0
  7  9  1  0  0  0  0
  7  8  1  1  0  0  0
  9 40  1  6  0  0  0
 10  6  1  1  0  0  0
 10 11  1  0  0  0  0
 10 18  1  0  0  0  0
 11 13  1  0  0  0  0
 11 12  1  1  0  0  0
 13 15  1  0  0  0  0
 13 14  1  1  0  0  0
 15 17  1  0  0  0  0
 15 16  1  1  0  0  0
 17 19  1  1  0  0  0
 17 18  1  0  0  0  0
 19 20  1  0  0  0  0
 21 29  1  0  0  0  0
 22 23  1  0  0  0  0
 22 31  1  0  0  0  0
 22 38  1  1  0  0  0
 23 25  1  0  0  0  0
 23 24  1  1  0  0  0
 25 27  1  0  0  0  0
 25 26  1  6  0  0  0
 27 30  1  0  0  0  0
 27 28  1  1  0  0  0
 30 21  1  6  0  0  0
 30 31  1  0  0  0  0
 32 34  1  0  0  0  0
 32 41  1  0  0  0  0
 32 33  1  6  0  0  0
 34 35  1  0  0  0  0
 35 37  1  0  0  0  0
 35 36  1  6  0  0  0
 37 39  1  0  0  0  0
 37 38  1  1  0  0  0
 39 41  1  0  0  0  0
 39 40  1  6  0  0  0
 41 42  1  1  0  0  0
M  CHG  6  12   1  20   1  24   1  29   1  33   1  36   1
M  END
>  <CHROM.1>
76.39710086,-39.76080979,-158.79322036,-53.62565648,81.72585122,-135.95753190
40.26713093,66.09967377,59.37826447,-48.84247528,60.24672007,64.54630947
58.89878539,-127.43082435,-150.70495814,168.50733990,177.66662685,76.46046049
-85.82400009,-56.89244053,166.71793490,-65.45410758,-2.94129324,-2.28614933
1.85140859,-2.85783292,-0.24477904,-0.71673676

>  <Name>
1NEM.B

>  <RI>
0

>  <Rbt.Current_Directory>
/home/itssahil/PROJECTS/Mol_Feturizer/New_Systems/rnas/1nem

>  <Rbt.Executable>
rbdock ($Id: //depot/dev/client3/rdock/2013.1/src/exe/rbdock.cxx#4 $)

>  <Rbt.Library>
libRbt.so (2013.1, Build901 2013/11/27)

>  <Rbt.Parameter_File>
/export/apps/rDock/src/rDock_2013.1_src/data/scripts/dock_solv.prm

>  <Rbt.Receptor>
prm/blind_docking_60.prm

>  <SCORE>
-46.821

>  <SCORE.INTER>
-63.3084

>  <SCORE.INTER.CONST>
1

>  <SCORE.INTER.POLAR>
-9.20703

>  <SCORE.INTER.ROT>
9

>  <SCORE.INTER.SOLV>
46.0558

>  <SCORE.INTER.VDW>
-36.4674

>  <SCORE.INTER.norm>
-1.50734

>  <SCORE.INTRA>
11.7501

>  <SCORE.INTRA.DIHEDRAL>
4.78895

>  <SCORE.INTRA.DIHEDRAL.0>
22.4324

>  <SCORE.INTRA.POLAR>
-0.938485

>  <SCORE.INTRA.POLAR.0>
-1.83749

>  <SCORE.INTRA.REPUL>
0

>  <SCORE.INTRA.REPUL.0>
0

>  <SCORE.INTRA.SOLV>
3.33166

>  <SCORE.INTRA.SOLV.lig_0>
-160.638

>  <SCORE.INTRA.VDW>
10.8807

>  <SCORE.INTRA.VDW.0>
-7.61953

>  <SCORE.INTRA.norm>
0.279765

>  <SCORE.RESTR>
4.73732

>  <SCORE.RESTR.CAVITY>
4.73732

>  <SCORE.RESTR.norm>
0.112793

>  <SCORE.SYSTEM>
0

>  <SCORE.SYSTEM.CONST>
0

>  <SCORE.SYSTEM.DIHEDRAL>
0

>  <SCORE.SYSTEM.SOLV>
0

>  <SCORE.SYSTEM.norm>
0

>  <SCORE.heavy>
42

>  <SCORE.norm>
-1.11479

>  <RMSD>
9.134

$$$$
1NEM.B
 OpenBabel11021811403D
libRbt.so/2013.1/901 2013/11/27
 42 45  0  0  0  0  0  0  0  0999 V2000
   -2.4901   -4.1212    5.6531 O   0  0  0  0  0  0  0  0  0  0  0  0
   -3.3373   -4.3192    4.5195 C   0  0  0  0  0  0  0  0  0  0  0  0
   -4.1470   -3.0762    4.1533 C   0  0  1  0  0  0  0  0  0  0  0  0
   -3.2838   -1.9961    3.8099 O   0  0  0  0  0  0  0  0  0  0  0  0
   -5.0193   -3.2286    2.9175 C   0  0  1  0  0  0  0  0  0  0  0  0
   -6.1122   -4.0792    3.2713 O   0  0  0  0  0  0  0  0  0  0  0  0
   -5.3494   -1.7671    2.6784 C   0  0  1  0  0  0  0  0  0  0  0  0
   -6.2283   -1.2411    3.6784 O   0  0  0  0  0  0  0  0  0  0  0  0
   -3.9447   -1.1759    2.8459 C   0  0  2  0  0  0  0  0  0  0  0  0
   -6.6297   -4.8796    2.2471 C   0  0  2  0  0  0  0  0  0  0  0  0
   -6.9118   -4.0070    1.0165 C   0  0  2  0  0  0  0  0  0  0  0  0
   -7.7699   -2.8533    1.3948 N   0  3  0  0  0  0  0  0  0  0  0  0
   -7.5416   -4.8363   -0.1073 C   0  0  1  0  0  0  0  0  0  0  0  0
   -6.5698   -5.7198   -0.6510 O   0  0  0  0  0  0  0  0  0  0  0  0
   -8.7393   -5.6422    0.4049 C   0  0  2  0  0  0  0  0  0  0  0  0
   -9.8127   -4.7722    0.7409 O   0  0  0  0  0  0  0  0  0  0  0  0
   -8.3256   -6.4553    1.6283 C   0  0  1  0  0  0  0  0  0  0  0  0
   -7.8051   -5.5746    2.6429 O   0  0  0  0  0  0  0  0  0  0  0  0
   -9.4700   -7.2466    2.2367 C   0  0  0  0  0  0  0  0  0  0  0  0
  -10.1300   -8.1185    1.2398 N   0  3  0  0  0  0  0  0  0  0  0  0
    3.6553    0.1545    1.7002 C   0  0  0  0  0  0  0  0  0  0  0  0
    0.7300   -1.7274    0.4242 C   0  0  2  0  0  0  0  0  0  0  0  0
    1.0223   -3.1258    0.9629 C   0  0  2  0  0  0  0  0  0  0  0  0
   -0.2170   -3.9391    0.9783 N   0  3  0  0  0  0  0  0  0  0  0  0
    1.5850   -3.0372    2.3751 C   0  0  1  0  0  0  0  0  0  0  0  0
    1.9247   -4.3364    2.8347 O   0  0  0  0  0  0  0  0  0  0  0  0
    2.8202   -2.1394    2.3776 C   0  0  2  0  0  0  0  0  0  0  0  0
    3.3111   -1.9956    3.7042 O   0  0  0  0  0  0  0  0  0  0  0  0
    3.6193    1.2211    2.7269 N   0  3  0  0  0  0  0  0  0  0  0  0
    2.4543   -0.7683    1.8125 C   0  0  2  0  0  0  0  0  0  0  0  0
    1.8954   -0.9098    0.4906 O   0  0  0  0  0  0  0  0  0  0  0  0
   -2.9036    1.9249   -0.2688 C   0  0  2  0  0  0  0  0  0  0  0  0
   -3.8984    2.6510   -1.0912 N   0  3  0  0  0  0  0  0  0  0  0  0
   -1.7141    1.5160   -1.1302 C   0  0  0  0  0  0  0  0  0  0  0  0
   -0.6835    0.7662   -0.2977 C   0  0  2  0  0  0  0  0  0  0  0  0
    0.4221    0.4070   -1.1745 N   0  3  0  0  0  0  0  0  0  0  0  0
   -1.3201   -0.4795    0.3143 C   0  0  1  0  0  0  0  0  0  0  0  0
   -0.3463   -1.1680    1.1231 O   0  0  0  0  0  0  0  0  0  0  0  0
   -2.5293   -0.1029    1.1814 C   0  0  2  0  0  0  0  0  0  0  0  0
   -3.1674   -1.3033    1.6573 O   0  0  0  0  0  0  0  0  0  0  0  0
   -3.5523    0.7092    0.3910 C   0  0  1  0  0  0  0  0  0  0  0  0
   -4.5904    1.1403    1.2611 O   0  0  0  0  0  0  0  0  0  0  0  0
  1  2  1  0  0  0  0
  3  2  1  6  0  0  0
  3  5  1  0  0  0  0
  3  4  1  0  0  0  0
  4  9  1  0  0  0  0
  5  7  1  0  0  0  0
  5  6  1  1  0  0  0
  7  9  1  0  0  0  0
  7  8  1  1  0  0  0
  9 40  1  6  0  0  0
 10  6  1  1  0  0  0
 10 11  1  0  0  0  0
 10 18  1  0  0  0  0
 11 13  1  0  0  0  0
 11 12  1  1  0  0  0
 13 15  1  0  0  0  0
 13 14  1  1  0  0  0
 15 17  1  0  0  0  0
 15 16  1  1  0  0  0
 17 19  1  1  0  0  0
 17 18  1  0  0  0  0
 19 20  1  0  0  0  0
 21 29  1  0  0  0  0
 22 23  1  0  0  0  0
 22 31  1  0  0  0  0
 22 38  1  1  0  0  0
 23 25  1  0  0  0  0
 23 24  1  1  0  0  0
 25 27  1  0  0  0  0
 25 26  1  6  0  0  0
 27 30  1  0  0  0  0
 27 28  1  1  0  0  0
 30 21  1  6  0  0  0
 30 31  1  0  0  0  0
 32 34  1  0  0  0  0
 32 41  1  0  0  0  0
 32 33  1  6  0  0  0
 34 35  1  0  0  0  0
 35 37  1  0  0  0  0
 35 36  1  6  0  0  0
 37 39  1  0  0  0  0
 37 38  1  1  0  0  0
 39 41  1  0  0  0  0
 39 40  1  6  0  0  0
 41 42  1  1  0  0  0
M  CHG  6  12   1  20   1  24   1  29   1  33   1  36   1
M  END
>  <CHROM.1>
-81.54466087,61.44739618,-148.89010157,-50.20117136,89.57420195,-116.17380806
24.37397269,-168.00240000,147.02406204,54.55829066,-56.65361178,-107.27424361
61.00766060,-136.84305256,-152.19476220,-69.95692238,61.24233512,-100.53640156
-77.74442869,-66.60962741,156.45683921,-49.47763908,-3.13415905,-2.38251556
1.65112811,-2.73743525,-0.20806489,-0.48995940

>  <Name>
1NEM.B

>  <RI>
0

>  <Rbt.Current_Directory>
/home/itssahil/PROJECTS/Mol_Feturizer/New_Systems/rnas/1nem

>  <Rbt.Executable>
rbdock ($Id: //depot/dev/client3/rdock/2013.1/src/exe/rbdock.cxx#4 $)

>  <Rbt.Library>
libRbt.so (2013.1, Build901 2013/11/27)

>  <Rbt.Parameter_File>
/export/apps/rDock/src/rDock_2013.1_src/data/scripts/dock_solv.prm

>  <Rbt.Receptor>
prm/blind_docking_20.prm

>  <SCORE>
-45.1542

>  <SCORE.INTER>
-65.8486

>  <SCORE.INTER.CONST>
1

>  <SCORE.INTER.POLAR>
-8.45408

>  <SCORE.INTER.ROT>
9

>  <SCORE.INTER.SOLV>
40.5257

>  <SCORE.INTER.VDW>
-38.8274

>  <SCORE.INTER.norm>
-1.56782

>  <SCORE.INTRA>
16.8384

>  <SCORE.INTRA.DIHEDRAL>
21.1223

>  <SCORE.INTRA.DIHEDRAL.0>
22.4324

>  <SCORE.INTRA.POLAR>
-0.354055

>  <SCORE.INTRA.POLAR.0>
-1.83749

>  <SCORE.INTRA.REPUL>
0

>  <SCORE.INTRA.REPUL.0>
0

>  <SCORE.INTRA.SOLV>
-1.76103

>  <SCORE.INTRA.SOLV.lig_0>
-160.638

>  <SCORE.INTRA.VDW>
8.36153

>  <SCORE.INTRA.VDW.0>
-7.61953

>  <SCORE.INTRA.norm>
0.400914

>  <SCORE.RESTR>
3.85607

>  <SCORE.RESTR.CAVITY>
3.85607

>  <SCORE.RESTR.norm>
0.0918113

>  <SCORE.SYSTEM>
0

>  <SCORE.SYSTEM.CONST>
0

>  <SCORE.SYSTEM.DIHEDRAL>
0

>  <SCORE.SYSTEM.SOLV>
0

>  <SCORE.SYSTEM.norm>
0

>  <SCORE.heavy>
42

>  <SCORE.norm>
-1.0751

>  <RMSD>
9.167

$$$$
1NEM.B
 OpenBabel11021811403D
libRbt.so/2013.1/901 2013/11/27
 42 45  0  0  0  0  0  0  0  0999 V2000
    0.9508   -2.0292    1.8101 O   0  0  0  0  0  0  0  0  0  0  0  0
    1.0402   -0.9631    0.8627 C   0  0  0  0  0  0  0  0  0  0  0  0
    2.0607    0.1036    1.2569 C   0  0  1  0  0  0  0  0  0  0  0  0
    3.3585   -0.4676    1.3946 O   0  0  0  0  0  0  0  0  0  0  0  0
    2.2710    1.1946    0.2191 C   0  0  1  0  0  0  0  0  0  0  0  0
    1.1055    2.0222    0.2307 O   0  0  0  0  0  0  0  0  0  0  0  0
    3.5422    1.8087    0.7748 C   0  0  1  0  0  0  0  0  0  0  0  0
    3.3114    2.5141    1.9989 O   0  0  0  0  0  0  0  0  0  0  0  0
    4.3285    0.5209    1.0474 C   0  0  2  0  0  0  0  0  0  0  0  0
    0.9817    2.9308   -0.8259 C   0  0  2  0  0  0  0  0  0  0  0  0
    0.0181    4.0533   -0.4178 C   0  0  2  0  0  0  0  0  0  0  0  0
   -1.2671    3.4754    0.0562 N   0  3  0  0  0  0  0  0  0  0  0  0
   -0.1953    5.0361   -1.5737 C   0  0  1  0  0  0  0  0  0  0  0  0
    0.9894    5.7937   -1.7814 O   0  0  0  0  0  0  0  0  0  0  0  0
   -0.5670    4.2994   -2.8642 C   0  0  2  0  0  0  0  0  0  0  0  0
   -1.8620    3.7234   -2.7487 O   0  0  0  0  0  0  0  0  0  0  0  0
    0.4637    3.2105   -3.1487 C   0  0  1  0  0  0  0  0  0  0  0  0
    0.5407    2.3101   -2.0265 O   0  0  0  0  0  0  0  0  0  0  0  0
    0.1431    2.3907   -4.3861 C   0  0  0  0  0  0  0  0  0  0  0  0
    1.1488    1.3312   -4.6226 N   0  3  0  0  0  0  0  0  0  0  0  0
    6.4578    3.8892    1.5535 C   0  0  0  0  0  0  0  0  0  0  0  0
    7.9241    0.6011    2.4285 C   0  0  2  0  0  0  0  0  0  0  0  0
    7.6488    0.5463    3.9292 C   0  0  2  0  0  0  0  0  0  0  0  0
    7.7256   -0.8524    4.4143 N   0  3  0  0  0  0  0  0  0  0  0  0
    6.2661    1.1092    4.2299 C   0  0  1  0  0  0  0  0  0  0  0  0
    6.0532    1.1246    5.6331 O   0  0  0  0  0  0  0  0  0  0  0  0
    6.1567    2.5242    3.6663 C   0  0  2  0  0  0  0  0  0  0  0  0
    4.8459    3.0309    3.8821 O   0  0  0  0  0  0  0  0  0  0  0  0
    5.1895    4.6031    1.8265 N   0  3  0  0  0  0  0  0  0  0  0  0
    6.4600    2.5009    2.1694 C   0  0  2  0  0  0  0  0  0  0  0  0
    7.7630    1.9288    1.9362 O   0  0  0  0  0  0  0  0  0  0  0  0
    7.9805    0.8409   -2.2285 C   0  0  2  0  0  0  0  0  0  0  0  0
    8.2009    0.7569   -3.6906 N   0  3  0  0  0  0  0  0  0  0  0  0
    8.9519   -0.0819   -1.5013 C   0  0  0  0  0  0  0  0  0  0  0  0
    8.7351   -0.0076    0.0037 C   0  0  2  0  0  0  0  0  0  0  0  0
    9.6901   -0.9062    0.6367 N   0  3  0  0  0  0  0  0  0  0  0  0
    7.3016   -0.4114    0.3404 C   0  0  1  0  0  0  0  0  0  0  0  0
    7.0964   -0.3112    1.7632 O   0  0  0  0  0  0  0  0  0  0  0  0
    6.2963    0.4936   -0.3851 C   0  0  2  0  0  0  0  0  0  0  0  0
    4.9594    0.0221   -0.1300 O   0  0  0  0  0  0  0  0  0  0  0  0
    6.5311    0.4925   -1.8936 C   0  0  1  0  0  0  0  0  0  0  0  0
    5.6632    1.4348   -2.5095 O   0  0  0  0  0  0  0  0  0  0  0  0
  1  2  1  0  0  0  0
  3  2  1  6  0  0  0
  3  5  1  0  0  0  0
  3  4  1  0  0  0  0
  4  9  1  0  0  0  0
  5  7  1  0  0  0  0
  5  6  1  1  0  0  0
  7  9  1  0  0  0  0
  7  8  1  1  0  0  0
  9 40  1  6  0  0  0
 10  6  1  1  0  0  0
 10 11  1  0  0  0  0
 10 18  1  0  0  0  0
 11 13  1  0  0  0  0
 11 12  1  6  0  0  0
 13 15  1  0  0  0  0
 13 14  1  6  0  0  0
 15 17  1  0  0  0  0
 15 16  1  1  0  0  0
 17 19  1  6  0  0  0
 17 18  1  0  0  0  0
 19 20  1  0  0  0  0
 21 29  1  0  0  0  0
 22 23  1  0  0  0  0
 22 31  1  0  0  0  0
 22 38  1  6  0  0  0
 23 25  1  0  0  0  0
 23 24  1  6  0  0  0
 25 27  1  0  0  0  0
 25 26  1  1  0  0  0
 27 30  1  0  0  0  0
 27 28  1  6  0  0  0
 30 21  1  1  0  0  0
 30 31  1  0  0  0  0
 32 34  1  0  0  0  0
 32 41  1  0  0  0  0
 32 33  1  6  0  0  0
 34 35  1  0  0  0  0
 35 37  1  0  0  0  0
 35 36  1  1  0  0  0
 37 39  1  0  0  0  0
 37 38  1  1  0  0  0
 39 41  1  0  0  0  0
 39 40  1  6  0  0  0
 41 42  1  6  0  0  0
M  CHG  6  12   1  20   1  24   1  29   1  33   1  36   1
M  END
>  <CHROM.1>
60.99710089,58.89912319,-168.06289320,-159.22965585,69.52455048,-155.09148723
-70.58231120,-177.60951483,66.08235360,-179.11761029,76.08480412,-54.51270337
111.75431510,-176.97310666,-153.37104722,-73.36405026,66.78451433,-52.62058779
-139.26843273,25.86270752,87.23642380,86.68376724,4.16646663,1.58243881,0.28095656
2.69500963,0.33990335,-1.57475645

>  <Name>
1NEM.B

>  <RI>
0

>  <Rbt.Current_Directory>
/home/itssahil/PROJECTS/Mol_Feturizer/New_Systems/rnas/1nem

>  <Rbt.Executable>
rbdock ($Id: //depot/dev/client3/rdock/2013.1/src/exe/rbdock.cxx#4 $)

>  <Rbt.Library>
libRbt.so (2013.1, Build901 2013/11/27)

>  <Rbt.Parameter_File>
/export/apps/rDock/src/rDock_2013.1_src/data/scripts/dock_solv.prm

>  <Rbt.Receptor>
prm/pocket_docking_8.prm

>  <SCORE>
-20.942

>  <SCORE.INTER>
-26.6089

>  <SCORE.INTER.CONST>
1

>  <SCORE.INTER.POLAR>
-4.13928

>  <SCORE.INTER.ROT>
9

>  <SCORE.INTER.SOLV>
24.7633

>  <SCORE.INTER.VDW>
-21.7961

>  <SCORE.INTER.norm>
-0.633545

>  <SCORE.INTRA>
5.6669

>  <SCORE.INTRA.DIHEDRAL>
4.60634

>  <SCORE.INTRA.DIHEDRAL.0>
22.4324

>  <SCORE.INTRA.POLAR>
-0.468648

>  <SCORE.INTRA.POLAR.0>
-1.83749

>  <SCORE.INTRA.REPUL>
0

>  <SCORE.INTRA.REPUL.0>
0

>  <SCORE.INTRA.SOLV>
-0.990008

>  <SCORE.INTRA.SOLV.lig_0>
-160.638

>  <SCORE.INTRA.VDW>
5.45214

>  <SCORE.INTRA.VDW.0>
-7.61953

>  <SCORE.INTRA.norm>
0.134926

>  <SCORE.RESTR>
0

>  <SCORE.RESTR.CAVITY>
0

>  <SCORE.RESTR.norm>
0

>  <SCORE.SYSTEM>
0

>  <SCORE.SYSTEM.CONST>
0

>  <SCORE.SYSTEM.DIHEDRAL>
0

>  <SCORE.SYSTEM.SOLV>
0

>  <SCORE.SYSTEM.norm>
0

>  <SCORE.heavy>
42

>  <SCORE.norm>
-0.498619

>  <RMSD>
9.178

$$$$
1NEM.B
 OpenBabel11021811403D
libRbt.so/2013.1/901 2013/11/27
 42 45  0  0  0  0  0  0  0  0999 V2000
   -2.0359   -3.6218    5.3733 O   0  0  0  0  0  0  0  0  0  0  0  0
   -2.1435   -3.7944    3.9589 C   0  0  0  0  0  0  0  0  0  0  0  0
   -2.4836   -2.4996    3.2223 C   0  0  1  0  0  0  0  0  0  0  0  0
   -1.3156   -1.9312    2.6374 O   0  0  0  0  0  0  0  0  0  0  0  0
   -3.4168   -2.6718    2.0344 C   0  0  1  0  0  0  0  0  0  0  0  0
   -4.7188   -2.9514    2.5542 O   0  0  0  0  0  0  0  0  0  0  0  0
   -3.2253   -1.3147    1.3837 C   0  0  1  0  0  0  0  0  0  0  0  0
   -3.8108   -0.2590    2.1530 O   0  0  0  0  0  0  0  0  0  0  0  0
   -1.6958   -1.2324    1.4519 C   0  0  2  0  0  0  0  0  0  0  0  0
   -5.4550   -3.9333    1.8826 C   0  0  2  0  0  0  0  0  0  0  0  0
   -6.3246   -3.2672    0.8077 C   0  0  2  0  0  0  0  0  0  0  0  0
   -7.1439   -2.1843    1.4130 N   0  3  0  0  0  0  0  0  0  0  0  0
   -7.1966   -4.3039    0.0920 C   0  0  1  0  0  0  0  0  0  0  0  0
   -6.3808   -5.1288   -0.7294 O   0  0  0  0  0  0  0  0  0  0  0  0
   -7.9592   -5.1731    1.0966 C   0  0  2  0  0  0  0  0  0  0  0  0
   -8.9451   -4.4004    1.7698 O   0  0  0  0  0  0  0  0  0  0  0  0
   -6.9822   -5.7659    2.1080 C   0  0  1  0  0  0  0  0  0  0  0  0
   -6.2598   -4.7057    2.7639 O   0  0  0  0  0  0  0  0  0  0  0  0
   -7.6617   -6.6019    3.1783 C   0  0  0  0  0  0  0  0  0  0  0  0
   -6.7073   -7.4987    3.8674 N   0  3  0  0  0  0  0  0  0  0  0  0
    0.8152    3.6827    2.0020 C   0  0  0  0  0  0  0  0  0  0  0  0
   -0.2380    0.8612   -0.1560 C   0  0  2  0  0  0  0  0  0  0  0  0
   -0.4303    1.5704   -1.4943 C   0  0  2  0  0  0  0  0  0  0  0  0
   -0.4014    0.5883   -2.6043 N   0  3  0  0  0  0  0  0  0  0  0  0
    0.6704    2.6016   -1.7046 C   0  0  1  0  0  0  0  0  0  0  0  0
    0.4370    3.3071   -2.9139 O   0  0  0  0  0  0  0  0  0  0  0  0
    0.6931    3.5724   -0.5261 C   0  0  2  0  0  0  0  0  0  0  0  0
    1.7625    4.4964   -0.6809 O   0  0  0  0  0  0  0  0  0  0  0  0
   -0.5647    4.1462    2.2739 N   0  3  0  0  0  0  0  0  0  0  0  0
    0.8720    2.7908    0.7740 C   0  0  2  0  0  0  0  0  0  0  0  0
   -0.1732    1.8063    0.9087 O   0  0  0  0  0  0  0  0  0  0  0  0
    2.0257   -3.4569    1.9050 C   0  0  2  0  0  0  0  0  0  0  0  0
    2.1936   -4.4282    3.0103 N   0  3  0  0  0  0  0  0  0  0  0  0
    2.7026   -2.1385    2.2625 C   0  0  0  0  0  0  0  0  0  0  0  0
    2.5360   -1.1289    1.1354 C   0  0  2  0  0  0  0  0  0  0  0  0
    3.2029    0.1016    1.5369 N   0  3  0  0  0  0  0  0  0  0  0  0
    1.0515   -0.8840    0.8755 C   0  0  1  0  0  0  0  0  0  0  0  0
    0.9023    0.0508   -0.2109 O   0  0  0  0  0  0  0  0  0  0  0  0
    0.3370   -2.1957    0.5219 C   0  0  2  0  0  0  0  0  0  0  0  0
   -1.0754   -1.9479    0.3859 O   0  0  0  0  0  0  0  0  0  0  0  0
    0.5417   -3.2527    1.6043 C   0  0  1  0  0  0  0  0  0  0  0  0
   -0.0290   -4.4833    1.1796 O   0  0  0  0  0  0  0  0  0  0  0  0
  1  2  1  0  0  0  0
  3  2  1  6  0  0  0
  3  5  1  0  0  0  0
  3  4  1  0  0  0  0
  4  9  1  0  0  0  0
  5  7  1  0  0  0  0
  5  6  1  1  0  0  0
  7  9  1  0  0  0  0
  7  8  1  1  0  0  0
  9 40  1  6  0  0  0
 10  6  1  1  0  0  0
 10 11  1  0  0  0  0
 10 18  1  0  0  0  0
 11 13  1  0  0  0  0
 11 12  1  1  0  0  0
 13 15  1  0  0  0  0
 13 14  1  1  0  0  0
 15 17  1  0  0  0  0
 15 16  1  1  0  0  0
 17 19  1  1  0  0  0
 17 18  1  0  0  0  0
 19 20  1  0  0  0  0
 21 29  1  0  0  0  0
 22 23  1  0  0  0  0
 22 31  1  0  0  0  0
 22 38  1  6  0  0  0
 23 25  1  0  0  0  0
 23 24  1  6  0  0  0
 25 27  1  0  0  0  0
 25 26  1  6  0  0  0
 27 30  1  0  0  0  0
 27 28  1  6  0  0  0
 30 21  1  1  0  0  0
 30 31  1  0  0  0  0
 32 34  1  0  0  0  0
 32 41  1  0  0  0  0
 32 33  1  1  0  0  0
 34 35  1  0  0  0  0
 35 37  1  0  0  0  0
 35 36  1  1  0  0  0
 37 39  1  0  0  0  0
 37 38  1  6  0  0  0
 39 41  1  0  0  0  0
 39 40  1  1  0  0  0
 41 42  1  6  0  0  0
M  CHG  6  12   1  20   1  24   1  29   1  33   1  36   1
M  END
>  <CHROM.1>
-169.14880580,100.58322718,-138.97994150,-92.08330888,54.49907969,-51.56469501
139.75476254,-82.50972516,179.73485042,161.76129383,-48.33768512,72.82281619
69.74911216,-167.65802731,-38.08507810,179.34935979,175.52336705,11.15809871
60.87646518,-149.68318977,-49.90275856,-54.66062643,-2.01426050,-1.60310901
1.28033258,-2.41717423,-0.17781792,-0.49560299

>  <Name>
1NEM.B

>  <RI>
0

>  <Rbt.Current_Directory>
/home/itssahil/PROJECTS/Mol_Feturizer/New_Systems/rnas/1nem

>  <Rbt.Executable>
rbdock ($Id: //depot/dev/client3/rdock/2013.1/src/exe/rbdock.cxx#4 $)

>  <Rbt.Library>
libRbt.so (2013.1, Build901 2013/11/27)

>  <Rbt.Parameter_File>
/export/apps/rDock/src/rDock_2013.1_src/data/scripts/dock_solv.prm

>  <Rbt.Receptor>
prm/pocket_docking_6.prm

>  <SCORE>
-35.5247

>  <SCORE.INTER>
-45.851

>  <SCORE.INTER.CONST>
1

>  <SCORE.INTER.POLAR>
-8.68704

>  <SCORE.INTER.ROT>
9

>  <SCORE.INTER.SOLV>
46.8549

>  <SCORE.INTER.VDW>
-26.8288

>  <SCORE.INTER.norm>
-1.09169

>  <SCORE.INTRA>
10.3263

>  <SCORE.INTRA.DIHEDRAL>
9.20625

>  <SCORE.INTRA.DIHEDRAL.0>
22.4324

>  <SCORE.INTRA.POLAR>
0.748794

>  <SCORE.INTRA.POLAR.0>
-1.83749

>  <SCORE.INTRA.REPUL>
0

>  <SCORE.INTRA.REPUL.0>
0

>  <SCORE.INTRA.SOLV>
-6.4013

>  <SCORE.INTRA.SOLV.lig_0>
-160.638

>  <SCORE.INTRA.VDW>
6.37792

>  <SCORE.INTRA.VDW.0>
-7.61953

>  <SCORE.INTRA.norm>
0.245864

>  <SCORE.RESTR>
0

>  <SCORE.RESTR.CAVITY>
0

>  <SCORE.RESTR.norm>
0

>  <SCORE.SYSTEM>
0

>  <SCORE.SYSTEM.CONST>
0

>  <SCORE.SYSTEM.DIHEDRAL>
0

>  <SCORE.SYSTEM.SOLV>
0

>  <SCORE.SYSTEM.norm>
0

>  <SCORE.heavy>
42

>  <SCORE.norm>
-0.845826

>  <RMSD>
9.183

$$$$
1NEM.B
 OpenBabel11021811403D
libRbt.so/2013.1/901 2013/11/27
 42 45  0  0  0  0  0  0  0  0999 V2000
    2.7004    1.3055    7.7835 O   0  0  0  0  0  0  0  0  0  0  0  0
    2.2670    1.5776    6.4493 C   0  0  0  0  0  0  0  0  0  0  0  0
    2.8069    0.5766    5.4289 C   0  0  1  0  0  0  0  0  0  0  0  0
    2.4379    0.9569    4.1065 O   0  0  0  0  0  0  0  0  0  0  0  0
    4.3236    0.5000    5.3566 C   0  0  1  0  0  0  0  0  0  0  0  0
    4.7723   -0.1632    6.5407 O   0  0  0  0  0  0  0  0  0  0  0  0
    4.4605   -0.2703    4.0566 C   0  0  1  0  0  0  0  0  0  0  0  0
    4.0358   -1.6311    4.1875 O   0  0  0  0  0  0  0  0  0  0  0  0
    3.4559    0.5171    3.2071 C   0  0  2  0  0  0  0  0  0  0  0  0
    5.9097    0.3712    7.1556 C   0  0  2  0  0  0  0  0  0  0  0  0
    6.2745   -0.4847    8.3761 C   0  0  2  0  0  0  0  0  0  0  0  0
    5.0956   -0.6267    9.2706 N   0  3  0  0  0  0  0  0  0  0  0  0
    7.4788    0.1063    9.1163 C   0  0  1  0  0  0  0  0  0  0  0  0
    8.6530   -0.0688    8.3345 O   0  0  0  0  0  0  0  0  0  0  0  0
    7.2724    1.5960    9.4070 C   0  0  2  0  0  0  0  0  0  0  0  0
    6.2418    1.7731   10.3706 O   0  0  0  0  0  0  0  0  0  0  0  0
    6.9096    2.3253    8.1165 C   0  0  1  0  0  0  0  0  0  0  0  0
    5.7329    1.7294    7.5367 O   0  0  0  0  0  0  0  0  0  0  0  0
    6.6332    3.8044    8.3217 C   0  0  0  0  0  0  0  0  0  0  0  0
    7.8632    4.5544    8.6599 N   0  3  0  0  0  0  0  0  0  0  0  0
    9.9601    5.1144    0.8095 C   0  0  0  0  0  0  0  0  0  0  0  0
    7.7177    2.6290    2.3974 C   0  0  2  0  0  0  0  0  0  0  0  0
    7.6061    3.1946    3.8112 C   0  0  2  0  0  0  0  0  0  0  0  0
    6.4115    2.6412    4.4925 N   0  3  0  0  0  0  0  0  0  0  0  0
    7.5006    4.7130    3.7622 C   0  0  1  0  0  0  0  0  0  0  0  0
    7.4758    5.2313    5.0833 O   0  0  0  0  0  0  0  0  0  0  0  0
    8.6920    5.2835    2.9962 C   0  0  2  0  0  0  0  0  0  0  0  0
    8.5652    6.6954    2.8861 O   0  0  0  0  0  0  0  0  0  0  0  0
    9.8940    6.5596    0.4933 N   0  3  0  0  0  0  0  0  0  0  0  0
    8.7466    4.6611    1.6023 C   0  0  2  0  0  0  0  0  0  0  0  0
    8.8108    3.2240    1.7031 O   0  0  0  0  0  0  0  0  0  0  0  0
    4.1891    0.3019   -0.8100 C   0  0  2  0  0  0  0  0  0  0  0  0
    3.5847   -0.9167   -1.3957 N   0  3  0  0  0  0  0  0  0  0  0  0
    5.7092    0.2213   -0.8932 C   0  0  0  0  0  0  0  0  0  0  0  0
    6.3446    1.4673   -0.2923 C   0  0  2  0  0  0  0  0  0  0  0  0
    7.7898    1.3289   -0.4038 N   0  3  0  0  0  0  0  0  0  0  0  0
    5.9223    1.6104    1.1680 C   0  0  1  0  0  0  0  0  0  0  0  0
    6.5048    2.8067    1.7210 O   0  0  0  0  0  0  0  0  0  0  0  0
    4.3938    1.6844    1.2880 C   0  0  2  0  0  0  0  0  0  0  0  0
    4.0255    1.7134    2.6802 O   0  0  0  0  0  0  0  0  0  0  0  0
    3.7231    0.4789    0.6342 C   0  0  1  0  0  0  0  0  0  0  0  0
    2.3122    0.6498    0.6588 O   0  0  0  0  0  0  0  0  0  0  0  0
  1  2  1  0  0  0  0
  3  2  1  1  0  0  0
  3  5  1  0  0  0  0
  3  4  1  0  0  0  0
  4  9  1  0  0  0  0
  5  7  1  0  0  0  0
  5  6  1  1  0  0  0
  7  9  1  0  0  0  0
  7  8  1  1  0  0  0
  9 40  1  1  0  0  0
 10  6  1  1  0  0  0
 10 11  1  0  0  0  0
 10 18  1  0  0  0  0
 11 13  1  0  0  0  0
 11 12  1  1  0  0  0
 13 15  1  0  0  0  0
 13 14  1  6  0  0  0
 15 17  1  0  0  0  0
 15 16  1  1  0  0  0
 17 19  1  1  0  0  0
 17 18  1  0  0  0  0
 19 20  1  0  0  0  0
 21 29  1  0  0  0  0
 22 23  1  0  0  0  0
 22 31  1  0  0  0  0
 22 38  1  6  0  0  0
 23 25  1  0  0  0  0
 23 24  1  6  0  0  0
 25 27  1  0  0  0  0
 25 26  1  1  0  0  0
 27 30  1  0  0  0  0
 27 28  1  6  0  0  0
 30 21  1  1  0  0  0
 30 31  1  0  0  0  0
 32 34  1  0  0  0  0
 32 41  1  0  0  0  0
 32 33  1  1  0  0  0
 34 35  1  0  0  0  0
 35 37  1  0  0  0  0
 35 36  1  1  0  0  0
 37 39  1  0  0  0  0
 37 38  1  6  0  0  0
 39 41  1  0  0  0  0
 39 40  1  1  0  0  0
 41 42  1  6  0  0  0
M  CHG  6  12   1  20   1  24   1  29   1  33   1  36   1
M  END
>  <CHROM.1>
55.93003244,-175.15432026,-138.29921109,-178.17140742,61.89821561,-142.01266242
42.94016190,61.47257365,176.35911739,69.68844063,-171.06962951,-66.31611884
-64.74966446,-125.07283882,-29.07784658,-173.93202172,-59.08057143,-49.26095969
-56.49210070,-94.53324487,-106.45400544,68.12987634,5.98050631,1.91937334
4.22389627,1.66657904,0.76173814,1.65806576

>  <Name>
1NEM.B

>  <RI>
0

>  <Rbt.Current_Directory>
/home/itssahil/PROJECTS/Mol_Feturizer/New_Systems/rnas/1nem

>  <Rbt.Executable>
rbdock ($Id: //depot/dev/client3/rdock/2013.1/src/exe/rbdock.cxx#4 $)

>  <Rbt.Library>
libRbt.so (2013.1, Build901 2013/11/27)

>  <Rbt.Parameter_File>
/export/apps/rDock/src/rDock_2013.1_src/data/scripts/dock_solv.prm

>  <Rbt.Receptor>
prm/pocket_docking_7.prm

>  <SCORE>
-22.0204

>  <SCORE.INTER>
-24.812

>  <SCORE.INTER.CONST>
1

>  <SCORE.INTER.POLAR>
-3.56673

>  <SCORE.INTER.ROT>
9

>  <SCORE.INTER.SOLV>
18.1961

>  <SCORE.INTER.VDW>
-20.3176

>  <SCORE.INTER.norm>
-0.590763

>  <SCORE.INTRA>
2.79161

>  <SCORE.INTRA.DIHEDRAL>
10.755

>  <SCORE.INTRA.DIHEDRAL.0>
22.4324

>  <SCORE.INTRA.POLAR>
-2.69227

>  <SCORE.INTRA.POLAR.0>
-1.83749

>  <SCORE.INTRA.REPUL>
0

>  <SCORE.INTRA.REPUL.0>
0

>  <SCORE.INTRA.SOLV>
5.29064

>  <SCORE.INTRA.SOLV.lig_0>
-160.638

>  <SCORE.INTRA.VDW>
3.92251

>  <SCORE.INTRA.VDW.0>
-7.61953

>  <SCORE.INTRA.norm>
0.0664669

>  <SCORE.RESTR>
0

>  <SCORE.RESTR.CAVITY>
0

>  <SCORE.RESTR.norm>
0

>  <SCORE.SYSTEM>
0

>  <SCORE.SYSTEM.CONST>
0

>  <SCORE.SYSTEM.DIHEDRAL>
0

>  <SCORE.SYSTEM.SOLV>
0

>  <SCORE.SYSTEM.norm>
0

>  <SCORE.heavy>
42

>  <SCORE.norm>
-0.524296

>  <RMSD>
9.185

$$$$
1NEM.B
 OpenBabel11021811403D
libRbt.so/2013.1/901 2013/11/27
 42 45  0  0  0  0  0  0  0  0999 V2000
   -8.8802   -3.0091    1.3735 O   0  0  0  0  0  0  0  0  0  0  0  0
   -7.6393   -2.3730    1.6860 C   0  0  0  0  0  0  0  0  0  0  0  0
   -6.4306   -3.0947    1.0918 C   0  0  1  0  0  0  0  0  0  0  0  0
   -5.3885   -2.1702    0.7939 O   0  0  0  0  0  0  0  0  0  0  0  0
   -5.7580   -4.0840    2.0301 C   0  0  1  0  0  0  0  0  0  0  0  0
   -6.6250   -5.2144    2.1479 O   0  0  0  0  0  0  0  0  0  0  0  0
   -4.4670   -4.2987    1.2626 C   0  0  1  0  0  0  0  0  0  0  0  0
   -4.6741   -5.0331    0.0515 O   0  0  0  0  0  0  0  0  0  0  0  0
   -4.1345   -2.8364    0.9435 C   0  0  2  0  0  0  0  0  0  0  0  0
   -6.7096   -5.7994    3.4160 C   0  0  2  0  0  0  0  0  0  0  0  0
   -7.4381   -7.1456    3.3046 C   0  0  2  0  0  0  0  0  0  0  0  0
   -8.7441   -6.9639    2.6178 N   0  3  0  0  0  0  0  0  0  0  0  0
   -7.6090   -7.7890    4.6846 C   0  0  1  0  0  0  0  0  0  0  0  0
   -6.3466   -8.2325    5.1645 O   0  0  0  0  0  0  0  0  0  0  0  0
   -8.2201   -6.8013    5.6833 C   0  0  2  0  0  0  0  0  0  0  0  0
   -9.5715   -6.5232    5.3389 O   0  0  0  0  0  0  0  0  0  0  0  0
   -7.4080   -5.5092    5.6897 C   0  0  1  0  0  0  0  0  0  0  0  0
   -7.3615   -4.9587    4.3590 O   0  0  0  0  0  0  0  0  0  0  0  0
   -7.9767   -4.4488    6.6160 C   0  0  0  0  0  0  0  0  0  0  0  0
   -7.6195   -3.0818    6.1759 N   0  3  0  0  0  0  0  0  0  0  0  0
    3.2702   -0.3924    1.3915 C   0  0  0  0  0  0  0  0  0  0  0  0
    0.2791   -2.4141    0.5592 C   0  0  2  0  0  0  0  0  0  0  0  0
    0.7154   -3.7962    1.0393 C   0  0  2  0  0  0  0  0  0  0  0  0
   -0.4673   -4.6680    1.2363 N   0  3  0  0  0  0  0  0  0  0  0  0
    1.4795   -3.6789    2.3513 C   0  0  1  0  0  0  0  0  0  0  0  0
    1.9461   -4.9598    2.7466 O   0  0  0  0  0  0  0  0  0  0  0  0
    2.6569   -2.7229    2.1732 C   0  0  2  0  0  0  0  0  0  0  0  0
    3.3346   -2.5540    3.4116 O   0  0  0  0  0  0  0  0  0  0  0  0
    4.1614   -0.2308    2.5631 N   0  3  0  0  0  0  0  0  0  0  0  0
    2.1451   -1.3716    1.6778 C   0  0  2  0  0  0  0  0  0  0  0  0
    1.4009   -1.5414    0.4543 O   0  0  0  0  0  0  0  0  0  0  0  0
   -3.3532    1.3385    0.7056 C   0  0  2  0  0  0  0  0  0  0  0  0
   -4.3916    2.1806    0.0687 N   0  3  0  0  0  0  0  0  0  0  0  0
   -2.2006    1.1090   -0.2654 C   0  0  0  0  0  0  0  0  0  0  0  0
   -1.1257    0.2422    0.3756 C   0  0  2  0  0  0  0  0  0  0  0  0
   -0.0581    0.0629   -0.5982 N   0  3  0  0  0  0  0  0  0  0  0  0
   -1.7215   -1.1029    0.7844 C   0  0  1  0  0  0  0  0  0  0  0  0
   -0.7051   -1.9060    1.4154 O   0  0  0  0  0  0  0  0  0  0  0  0
   -2.8933   -0.9065    1.7562 C   0  0  2  0  0  0  0  0  0  0  0  0
   -3.4973   -2.1831    2.0392 O   0  0  0  0  0  0  0  0  0  0  0  0
   -3.9592    0.0141    1.1672 C   0  0  1  0  0  0  0  0  0  0  0  0
   -4.9604    0.2666    2.1441 O   0  0  0  0  0  0  0  0  0  0  0  0
  1  2  1  0  0  0  0
  3  2  1  1  0  0  0
  3  5  1  0  0  0  0
  3  4  1  0  0  0  0
  4  9  1  0  0  0  0
  5  7  1  0  0  0  0
  5  6  1  6  0  0  0
  7  9  1  0  0  0  0
  7  8  1  6  0  0  0
  9 40  1  1  0  0  0
 10  6  1  6  0  0  0
 10 11  1  0  0  0  0
 10 18  1  0  0  0  0
 11 13  1  0  0  0  0
 11 12  1  1  0  0  0
 13 15  1  0  0  0  0
 13 14  1  1  0  0  0
 15 17  1  0  0  0  0
 15 16  1  6  0  0  0
 17 19  1  1  0  0  0
 17 18  1  0  0  0  0
 19 20  1  0  0  0  0
 21 29  1  0  0  0  0
 22 23  1  0  0  0  0
 22 31  1  0  0  0  0
 22 38  1  1  0  0  0
 23 25  1  0  0  0  0
 23 24  1  1  0  0  0
 25 27  1  0  0  0  0
 25 26  1  6  0  0  0
 27 30  1  0  0  0  0
 27 28  1  1  0  0  0
 30 21  1  6  0  0  0
 30 31  1  0  0  0  0
 32 34  1  0  0  0  0
 32 41  1  0  0  0  0
 32 33  1  6  0  0  0
 34 35  1  0  0  0  0
 35 37  1  0  0  0  0
 35 36  1  6  0  0  0
 37 39  1  0  0  0  0
 37 38  1  1  0  0  0
 39 41  1  0  0  0  0
 39 40  1  6  0  0  0
 41 42  1  1  0  0  0
M  CHG  6  12   1  20   1  24   1  29   1  33   1  36   1
M  END
>  <CHROM.1>
72.52107402,149.28007654,-141.82940699,-168.49731334,64.69730058,-77.97236162
-73.38939985,-68.41362224,177.99923469,-153.36944030,-47.77416650,-54.21972305
69.92930262,-145.31294403,-156.66341246,62.47044784,-56.52323333,-59.90230257
34.51250597,-72.09505805,-65.53155001,-57.11572064,-3.51206931,-3.06663344
2.24062215,2.62915337,-0.03022227,2.63589953

>  <Name>
1NEM.B

>  <RI>
0

>  <Rbt.Current_Directory>
/home/itssahil/PROJECTS/Mol_Feturizer/New_Systems/rnas/1nem

>  <Rbt.Executable>
rbdock ($Id: //depot/dev/client3/rdock/2013.1/src/exe/rbdock.cxx#4 $)

>  <Rbt.Library>
libRbt.so (2013.1, Build901 2013/11/27)

>  <Rbt.Parameter_File>
/export/apps/rDock/src/rDock_2013.1_src/data/scripts/dock_solv.prm

>  <Rbt.Receptor>
prm/pocket_docking_6.prm

>  <SCORE>
-38.7077

>  <SCORE.INTER>
-45.8326

>  <SCORE.INTER.CONST>
1

>  <SCORE.INTER.POLAR>
-6.79935

>  <SCORE.INTER.ROT>
9

>  <SCORE.INTER.SOLV>
38.2846

>  <SCORE.INTER.VDW>
-30.2521

>  <SCORE.INTER.norm>
-1.09125

>  <SCORE.INTRA>
6.84295

>  <SCORE.INTRA.DIHEDRAL>
0.415234

>  <SCORE.INTRA.DIHEDRAL.0>
22.4324

>  <SCORE.INTRA.POLAR>
0.145082

>  <SCORE.INTRA.POLAR.0>
-1.83749

>  <SCORE.INTRA.REPUL>
0.00272689

>  <SCORE.INTRA.REPUL.0>
0

>  <SCORE.INTRA.SOLV>
-0.703238

>  <SCORE.INTRA.SOLV.lig_0>
-160.638

>  <SCORE.INTRA.VDW>
6.48004

>  <SCORE.INTRA.VDW.0>
-7.61953

>  <SCORE.INTRA.norm>
0.162927

>  <SCORE.RESTR>
0.281989

>  <SCORE.RESTR.CAVITY>
0.281989

>  <SCORE.RESTR.norm>
0.00671402

>  <SCORE.SYSTEM>
0

>  <SCORE.SYSTEM.CONST>
0

>  <SCORE.SYSTEM.DIHEDRAL>
0

>  <SCORE.SYSTEM.SOLV>
0

>  <SCORE.SYSTEM.norm>
0

>  <SCORE.heavy>
42

>  <SCORE.norm>
-0.921612

>  <RMSD>
9.193

$$$$
1NEM.B
 OpenBabel11021811403D
libRbt.so/2013.1/901 2013/11/27
 42 45  0  0  0  0  0  0  0  0999 V2000
   -5.6737   -0.4747   -0.0979 O   0  0  0  0  0  0  0  0  0  0  0  0
   -5.6525   -1.8361   -0.5317 C   0  0  0  0  0  0  0  0  0  0  0  0
   -4.2416   -2.4177   -0.6086 C   0  0  1  0  0  0  0  0  0  0  0  0
   -3.2744   -1.4450   -0.2240 O   0  0  0  0  0  0  0  0  0  0  0  0
   -3.9763   -3.5676    0.3500 C   0  0  1  0  0  0  0  0  0  0  0  0
   -4.6862   -4.7053   -0.1447 O   0  0  0  0  0  0  0  0  0  0  0  0
   -2.4633   -3.6173    0.2477 C   0  0  1  0  0  0  0  0  0  0  0  0
   -2.0234   -4.1000   -1.0262 O   0  0  0  0  0  0  0  0  0  0  0  0
   -2.1673   -2.1183    0.3755 C   0  0  2  0  0  0  0  0  0  0  0  0
   -6.0811   -4.6525   -0.0512 C   0  0  2  0  0  0  0  0  0  0  0  0
   -6.4777   -4.2441    1.3740 C   0  0  2  0  0  0  0  0  0  0  0  0
   -5.8241   -5.1417    2.3626 N   0  3  0  0  0  0  0  0  0  0  0  0
   -8.0013   -4.2380    1.5356 C   0  0  1  0  0  0  0  0  0  0  0  0
   -8.5546   -3.1505    0.8063 O   0  0  0  0  0  0  0  0  0  0  0  0
   -8.6148   -5.5522    1.0430 C   0  0  2  0  0  0  0  0  0  0  0  0
   -8.2497   -6.6218    1.9061 O   0  0  0  0  0  0  0  0  0  0  0  0
   -8.1356   -5.8420   -0.3766 C   0  0  1  0  0  0  0  0  0  0  0  0
   -6.6957   -5.8851   -0.4035 O   0  0  0  0  0  0  0  0  0  0  0  0
   -8.6542   -7.1589   -0.9268 C   0  0  0  0  0  0  0  0  0  0  0  0
   -8.1906   -7.4000   -2.3113 N   0  3  0  0  0  0  0  0  0  0  0  0
    2.3592   -1.1553    3.0886 C   0  0  0  0  0  0  0  0  0  0  0  0
   -0.4252   -3.3870    2.0917 C   0  0  2  0  0  0  0  0  0  0  0  0
    0.3407   -4.5561    1.4772 C   0  0  2  0  0  0  0  0  0  0  0  0
   -0.5188   -5.7629    1.4272 N   0  3  0  0  0  0  0  0  0  0  0  0
    1.5863   -4.8578    2.2997 C   0  0  1  0  0  0  0  0  0  0  0  0
    2.3293   -5.8938    1.6758 O   0  0  0  0  0  0  0  0  0  0  0  0
    2.4392   -3.5966    2.4166 C   0  0  2  0  0  0  0  0  0  0  0  0
    3.5693   -3.8515    3.2409 O   0  0  0  0  0  0  0  0  0  0  0  0
    3.4385   -1.1987    4.1016 N   0  3  0  0  0  0  0  0  0  0  0  0
    1.6033   -2.4709    3.0225 C   0  0  2  0  0  0  0  0  0  0  0  0
    0.4208   -2.2482    2.2275 O   0  0  0  0  0  0  0  0  0  0  0  0
   -4.8883   -2.3931    4.2444 C   0  0  2  0  0  0  0  0  0  0  0  0
   -5.9811   -1.5367    4.7598 N   0  3  0  0  0  0  0  0  0  0  0  0
   -3.9680   -2.8074    5.3869 C   0  0  0  0  0  0  0  0  0  0  0  0
   -2.8377   -3.6870    4.8711 C   0  0  2  0  0  0  0  0  0  0  0  0
   -1.9999   -4.0478    6.0060 N   0  3  0  0  0  0  0  0  0  0  0  0
   -2.0318   -2.9295    3.8184 C   0  0  1  0  0  0  0  0  0  0  0  0
   -0.9819   -3.7784    3.3151 O   0  0  0  0  0  0  0  0  0  0  0  0
   -2.9327   -2.4884    2.6564 C   0  0  2  0  0  0  0  0  0  0  0  0
   -2.1661   -1.6893    1.7354 O   0  0  0  0  0  0  0  0  0  0  0  0
   -4.1151   -1.6587    3.1503 C   0  0  1  0  0  0  0  0  0  0  0  0
   -4.9856   -1.3787    2.0619 O   0  0  0  0  0  0  0  0  0  0  0  0
  1  2  1  0  0  0  0
  3  2  1  1  0  0  0
  3  5  1  0  0  0  0
  3  4  1  0  0  0  0
  4  9  1  0  0  0  0
  5  7  1  0  0  0  0
  5  6  1  6  0  0  0
  7  9  1  0  0  0  0
  7  8  1  6  0  0  0
  9 40  1  1  0  0  0
 10  6  1  1  0  0  0
 10 11  1  0  0  0  0
 10 18  1  0  0  0  0
 11 13  1  0  0  0  0
 11 12  1  1  0  0  0
 13 15  1  0  0  0  0
 13 14  1  6  0  0  0
 15 17  1  0  0  0  0
 15 16  1  1  0  0  0
 17 19  1  1  0  0  0
 17 18  1  0  0  0  0
 19 20  1  0  0  0  0
 21 29  1  0  0  0  0
 22 23  1  0  0  0  0
 22 31  1  0  0  0  0
 22 38  1  1  0  0  0
 23 25  1  0  0  0  0
 23 24  1  1  0  0  0
 25 27  1  0  0  0  0
 25 26  1  6  0  0  0
 27 30  1  0  0  0  0
 27 28  1  1  0  0  0
 30 21  1  6  0  0  0
 30 31  1  0  0  0  0
 32 34  1  0  0  0  0
 32 41  1  0  0  0  0
 32 33  1  1  0  0  0
 34 35  1  0  0  0  0
 35 37  1  0  0  0  0
 35 36  1  1  0  0  0
 37 39  1  0  0  0  0
 37 38  1  6  0  0  0
 39 41  1  0  0  0  0
 39 40  1  6  0  0  0
 41 42  1  6  0  0  0
M  CHG  6  12   1  20   1  24   1  29   1  33   1  36   1
M  END
>  <CHROM.1>
76.31471176,-0.05157530,-70.08062528,-49.44241473,59.67169951,90.18584935
-48.74101223,64.39695069,-173.40457650,179.06442066,-18.83791649,-70.28458570
2.33908973,-162.86988295,-5.58872764,-152.99372665,153.80038217,64.64581228
2.54531310,161.62556521,125.33787715,171.61272307,-3.26215100,-3.62090248
1.71900397,2.79790109,0.05094322,-2.30721800

>  <Name>
1NEM.B

>  <RI>
0

>  <Rbt.Current_Directory>
/home/itssahil/PROJECTS/Mol_Feturizer/New_Systems/rnas/1nem

>  <Rbt.Executable>
rbdock ($Id: //depot/dev/client3/rdock/2013.1/src/exe/rbdock.cxx#4 $)

>  <Rbt.Library>
libRbt.so (2013.1, Build901 2013/11/27)

>  <Rbt.Parameter_File>
/export/apps/rDock/src/rDock_2013.1_src/data/scripts/dock_solv.prm

>  <Rbt.Receptor>
prm/blind_docking_80.prm

>  <SCORE>
-4.65575

>  <SCORE.INTER>
-37.203

>  <SCORE.INTER.CONST>
1

>  <SCORE.INTER.POLAR>
-9.90479

>  <SCORE.INTER.ROT>
9

>  <SCORE.INTER.SOLV>
66.1382

>  <SCORE.INTER.VDW>
-23.4321

>  <SCORE.INTER.norm>
-0.885786

>  <SCORE.INTRA>
32.0132

>  <SCORE.INTRA.DIHEDRAL>
20.2382

>  <SCORE.INTRA.DIHEDRAL.0>
22.4324

>  <SCORE.INTRA.POLAR>
1.13271

>  <SCORE.INTRA.POLAR.0>
-1.83749

>  <SCORE.INTRA.REPUL>
0

>  <SCORE.INTRA.REPUL.0>
0

>  <SCORE.INTRA.SOLV>
1.61485

>  <SCORE.INTRA.SOLV.lig_0>
-160.638

>  <SCORE.INTRA.VDW>
17.2355

>  <SCORE.INTRA.VDW.0>
-7.61953

>  <SCORE.INTRA.norm>
0.76222

>  <SCORE.RESTR>
0.533993

>  <SCORE.RESTR.CAVITY>
0.533993

>  <SCORE.RESTR.norm>
0.0127141

>  <SCORE.SYSTEM>
0

>  <SCORE.SYSTEM.CONST>
0

>  <SCORE.SYSTEM.DIHEDRAL>
0

>  <SCORE.SYSTEM.SOLV>
0

>  <SCORE.SYSTEM.norm>
0

>  <SCORE.heavy>
42

>  <SCORE.norm>
-0.110851

>  <RMSD>
9.195

$$$$
1NEM.B
 OpenBabel11021811403D
libRbt.so/2013.1/901 2013/11/27
 42 45  0  0  0  0  0  0  0  0999 V2000
   -4.2268   -5.6637    4.4182 O   0  0  0  0  0  0  0  0  0  0  0  0
   -3.6524   -4.4717    4.9579 C   0  0  0  0  0  0  0  0  0  0  0  0
   -4.2800   -3.1972    4.3955 C   0  0  1  0  0  0  0  0  0  0  0  0
   -3.2845   -2.2042    4.1667 O   0  0  0  0  0  0  0  0  0  0  0  0
   -4.9284   -3.3585    3.0298 C   0  0  1  0  0  0  0  0  0  0  0  0
   -6.1325   -4.1059    3.2169 O   0  0  0  0  0  0  0  0  0  0  0  0
   -5.0905   -1.8936    2.6697 C   0  0  1  0  0  0  0  0  0  0  0  0
   -6.0873   -1.2478    3.4688 O   0  0  0  0  0  0  0  0  0  0  0  0
   -3.6945   -1.3965    3.0630 C   0  0  2  0  0  0  0  0  0  0  0  0
   -6.6058   -4.8053    2.1016 C   0  0  2  0  0  0  0  0  0  0  0  0
   -6.9258   -3.8097    0.9783 C   0  0  2  0  0  0  0  0  0  0  0  0
   -7.8412   -2.7511    1.4801 N   0  3  0  0  0  0  0  0  0  0  0  0
   -7.5095   -4.5317   -0.2405 C   0  0  1  0  0  0  0  0  0  0  0  0
   -6.4932   -5.2974   -0.8740 O   0  0  0  0  0  0  0  0  0  0  0  0
   -8.6680   -5.4491    0.1628 C   0  0  2  0  0  0  0  0  0  0  0  0
   -9.7844   -4.6773    0.5874 O   0  0  0  0  0  0  0  0  0  0  0  0
   -8.2195   -6.3784    1.2871 C   0  0  1  0  0  0  0  0  0  0  0  0
   -7.7470   -5.5980    2.4023 O   0  0  0  0  0  0  0  0  0  0  0  0
   -9.3258   -7.2899    1.7882 C   0  0  0  0  0  0  0  0  0  0  0  0
   -8.7883   -8.5174    2.4160 N   0  3  0  0  0  0  0  0  0  0  0  0
    3.4109    1.2056    2.4873 C   0  0  0  0  0  0  0  0  0  0  0  0
    1.3128   -1.4088    0.9093 C   0  0  2  0  0  0  0  0  0  0  0  0
    1.9268   -2.6753    1.5009 C   0  0  2  0  0  0  0  0  0  0  0  0
    0.9778   -3.8082    1.3848 N   0  3  0  0  0  0  0  0  0  0  0  0
    2.2725   -2.4553    2.9675 C   0  0  1  0  0  0  0  0  0  0  0  0
    2.9127   -3.6118    3.4844 O   0  0  0  0  0  0  0  0  0  0  0  0
    3.1915   -1.2429    3.0996 C   0  0  2  0  0  0  0  0  0  0  0  0
    3.4632   -0.9889    4.4719 O   0  0  0  0  0  0  0  0  0  0  0  0
    3.0792    2.1060    3.6153 N   0  3  0  0  0  0  0  0  0  0  0  0
    2.5182   -0.0230    2.4736 C   0  0  2  0  0  0  0  0  0  0  0  0
    2.1806   -0.2942    1.0980 O   0  0  0  0  0  0  0  0  0  0  0  0
   -2.9212    1.0543   -0.5762 C   0  0  2  0  0  0  0  0  0  0  0  0
   -3.9933    1.4057   -1.5356 N   0  3  0  0  0  0  0  0  0  0  0  0
   -1.6579    0.6544   -1.3301 C   0  0  0  0  0  0  0  0  0  0  0  0
   -0.5471    0.2881   -0.3558 C   0  0  2  0  0  0  0  0  0  0  0  0
    0.6261   -0.0809   -1.1353 N   0  3  0  0  0  0  0  0  0  0  0  0
   -0.9979   -0.8701    0.5312 C   0  0  1  0  0  0  0  0  0  0  0  0
    0.0478   -1.1919    1.4688 O   0  0  0  0  0  0  0  0  0  0  0  0
   -2.2759   -0.5030    1.2982 C   0  0  2  0  0  0  0  0  0  0  0  0
   -2.7314   -1.6491    2.0422 O   0  0  0  0  0  0  0  0  0  0  0  0
   -3.3901   -0.0662    0.3504 C   0  0  1  0  0  0  0  0  0  0  0  0
   -4.5077    0.3811    1.1064 O   0  0  0  0  0  0  0  0  0  0  0  0
  1  2  1  0  0  0  0
  3  2  1  6  0  0  0
  3  5  1  0  0  0  0
  3  4  1  0  0  0  0
  4  9  1  0  0  0  0
  5  7  1  0  0  0  0
  5  6  1  1  0  0  0
  7  9  1  0  0  0  0
  7  8  1  1  0  0  0
  9 40  1  6  0  0  0
 10  6  1  1  0  0  0
 10 11  1  0  0  0  0
 10 18  1  0  0  0  0
 11 13  1  0  0  0  0
 11 12  1  1  0  0  0
 13 15  1  0  0  0  0
 13 14  1  1  0  0  0
 15 17  1  0  0  0  0
 15 16  1  1  0  0  0
 17 19  1  1  0  0  0
 17 18  1  0  0  0  0
 19 20  1  0  0  0  0
 21 29  1  0  0  0  0
 22 23  1  0  0  0  0
 22 31  1  0  0  0  0
 22 38  1  1  0  0  0
 23 25  1  0  0  0  0
 23 24  1  1  0  0  0
 25 27  1  0  0  0  0
 25 26  1  6  0  0  0
 27 30  1  0  0  0  0
 27 28  1  1  0  0  0
 30 21  1  6  0  0  0
 30 31  1  0  0  0  0
 32 34  1  0  0  0  0
 32 41  1  0  0  0  0
 32 33  1  6  0  0  0
 34 35  1  0  0  0  0
 35 37  1  0  0  0  0
 35 36  1  6  0  0  0
 37 39  1  0  0  0  0
 37 38  1  1  0  0  0
 39 41  1  0  0  0  0
 39 40  1  6  0  0  0
 41 42  1  1  0  0  0
M  CHG  6  12   1  20   1  24   1  29   1  33   1  36   1
M  END
>  <CHROM.1>
170.98964645,-140.40129924,-155.94977335,-61.41960009,171.50066886,-138.02540824
23.58133436,-102.79414565,156.26759419,155.74282326,-55.20031719,-98.79611003
-150.99318612,-133.42573474,-42.49069652,-61.29059247,53.36169389,-148.18607519
-90.50436168,-51.94080380,164.60697387,75.05455954,-2.97727965,-2.40821809
1.79765668,-2.80783364,-0.31707029,-0.65593840

>  <Name>
1NEM.B

>  <RI>
0

>  <Rbt.Current_Directory>
/home/itssahil/PROJECTS/Mol_Feturizer/New_Systems/rnas/1nem

>  <Rbt.Executable>
rbdock ($Id: //depot/dev/client3/rdock/2013.1/src/exe/rbdock.cxx#4 $)

>  <Rbt.Library>
libRbt.so (2013.1, Build901 2013/11/27)

>  <Rbt.Parameter_File>
/export/apps/rDock/src/rDock_2013.1_src/data/scripts/dock_solv.prm

>  <Rbt.Receptor>
prm/blind_docking_20.prm

>  <SCORE>
-45.0835

>  <SCORE.INTER>
-68.7275

>  <SCORE.INTER.CONST>
1

>  <SCORE.INTER.POLAR>
-10.2523

>  <SCORE.INTER.ROT>
9

>  <SCORE.INTER.SOLV>
42.7277

>  <SCORE.INTER.VDW>
-35.4866

>  <SCORE.INTER.norm>
-1.63637

>  <SCORE.INTRA>
20.9455

>  <SCORE.INTRA.DIHEDRAL>
22.5289

>  <SCORE.INTRA.DIHEDRAL.0>
22.4324

>  <SCORE.INTRA.POLAR>
-0.031792

>  <SCORE.INTRA.POLAR.0>
-1.83749

>  <SCORE.INTRA.REPUL>
0

>  <SCORE.INTRA.REPUL.0>
0

>  <SCORE.INTRA.SOLV>
-1.58191

>  <SCORE.INTRA.SOLV.lig_0>
-160.638

>  <SCORE.INTRA.VDW>
10.5801

>  <SCORE.INTRA.VDW.0>
-7.61953

>  <SCORE.INTRA.norm>
0.498702

>  <SCORE.RESTR>
2.69853

>  <SCORE.RESTR.CAVITY>
2.69853

>  <SCORE.RESTR.norm>
0.0642506

>  <SCORE.SYSTEM>
0

>  <SCORE.SYSTEM.CONST>
0

>  <SCORE.SYSTEM.DIHEDRAL>
0

>  <SCORE.SYSTEM.SOLV>
0

>  <SCORE.SYSTEM.norm>
0

>  <SCORE.heavy>
42

>  <SCORE.norm>
-1.07342

>  <RMSD>
9.212

$$$$
1NEM.B
 OpenBabel11021811403D
libRbt.so/2013.1/901 2013/11/27
 42 45  0  0  0  0  0  0  0  0999 V2000
   -3.4708   -5.8844    2.9233 O   0  0  0  0  0  0  0  0  0  0  0  0
   -3.0150   -4.9201    3.8744 C   0  0  0  0  0  0  0  0  0  0  0  0
   -3.2872   -3.4797    3.4434 C   0  0  1  0  0  0  0  0  0  0  0  0
   -2.0915   -2.8576    2.9821 O   0  0  0  0  0  0  0  0  0  0  0  0
   -4.2297   -3.3393    2.2587 C   0  0  1  0  0  0  0  0  0  0  0  0
   -5.5439   -3.6590    2.7213 O   0  0  0  0  0  0  0  0  0  0  0  0
   -3.9676   -1.8842    1.9183 C   0  0  1  0  0  0  0  0  0  0  0  0
   -4.4956   -0.9943    2.9074 O   0  0  0  0  0  0  0  0  0  0  0  0
   -2.4358   -1.8973    1.9832 C   0  0  2  0  0  0  0  0  0  0  0  0
   -6.2856   -4.5341    1.9204 C   0  0  2  0  0  0  0  0  0  0  0  0
   -6.4079   -3.9468    0.5078 C   0  0  2  0  0  0  0  0  0  0  0  0
   -6.9459   -2.5625    0.5756 N   0  3  0  0  0  0  0  0  0  0  0  0
   -7.2701   -4.8461   -0.3839 C   0  0  1  0  0  0  0  0  0  0  0  0
   -6.5649   -6.0450   -0.6773 O   0  0  0  0  0  0  0  0  0  0  0  0
   -8.6006   -5.1857    0.2949 C   0  0  2  0  0  0  0  0  0  0  0  0
   -9.4173   -4.0254    0.3890 O   0  0  0  0  0  0  0  0  0  0  0  0
   -8.3366   -5.7509    1.6876 C   0  0  1  0  0  0  0  0  0  0  0  0
   -7.5733   -4.8034    2.4593 O   0  0  0  0  0  0  0  0  0  0  0  0
   -9.6074   -6.0663    2.4569 C   0  0  0  0  0  0  0  0  0  0  0  0
   -9.3610   -6.1684    3.9125 N   0  3  0  0  0  0  0  0  0  0  0  0
   -4.4971   -0.3942   -0.3597 C   0  0  0  0  0  0  0  0  0  0  0  0
   -0.8139   -0.2469   -0.7340 C   0  0  2  0  0  0  0  0  0  0  0  0
   -0.6585    0.9769   -1.6334 C   0  0  2  0  0  0  0  0  0  0  0  0
    0.7238    1.5056   -1.5463 N   0  3  0  0  0  0  0  0  0  0  0  0
   -1.6410    2.0630   -1.2162 C   0  0  1  0  0  0  0  0  0  0  0  0
   -1.5407    3.1635   -2.1070 O   0  0  0  0  0  0  0  0  0  0  0  0
   -3.0609    1.5014   -1.2328 C   0  0  2  0  0  0  0  0  0  0  0  0
   -3.9771    2.4889   -0.7779 O   0  0  0  0  0  0  0  0  0  0  0  0
   -5.4851    0.3441    0.4598 N   0  3  0  0  0  0  0  0  0  0  0  0
   -3.1338    0.2745   -0.3259 C   0  0  2  0  0  0  0  0  0  0  0  0
   -2.1626   -0.7075   -0.7410 O   0  0  0  0  0  0  0  0  0  0  0  0
    1.6508   -3.5515    1.5305 C   0  0  2  0  0  0  0  0  0  0  0  0
    2.1465   -4.7083    2.3111 N   0  3  0  0  0  0  0  0  0  0  0  0
    2.1310   -2.2508    2.1644 C   0  0  0  0  0  0  0  0  0  0  0  0
    1.6267   -1.0521    1.3731 C   0  0  2  0  0  0  0  0  0  0  0  0
    2.1189    0.1525    2.0263 N   0  3  0  0  0  0  0  0  0  0  0  0
    0.1004   -1.0644    1.3320 C   0  0  1  0  0  0  0  0  0  0  0  0
   -0.3679    0.0571    0.5578 O   0  0  0  0  0  0  0  0  0  0  0  0
   -0.4170   -2.3675    0.7072 C   0  0  2  0  0  0  0  0  0  0  0  0
   -1.8554   -2.3926    0.7787 O   0  0  0  0  0  0  0  0  0  0  0  0
    0.1262   -3.5921    1.4392 C   0  0  1  0  0  0  0  0  0  0  0  0
   -0.2758   -4.7711    0.7545 O   0  0  0  0  0  0  0  0  0  0  0  0
  1  2  1  0  0  0  0
  3  2  1  6  0  0  0
  3  5  1  0  0  0  0
  3  4  1  0  0  0  0
  4  9  1  0  0  0  0
  5  7  1  0  0  0  0
  5  6  1  1  0  0  0
  7  9  1  0  0  0  0
  7  8  1  1  0  0  0
  9 40  1  6  0  0  0
 10  6  1  1  0  0  0
 10 11  1  0  0  0  0
 10 18  1  0  0  0  0
 11 13  1  0  0  0  0
 11 12  1  1  0  0  0
 13 15  1  0  0  0  0
 13 14  1  1  0  0  0
 15 17  1  0  0  0  0
 15 16  1  1  0  0  0
 17 19  1  1  0  0  0
 17 18  1  0  0  0  0
 19 20  1  0  0  0  0
 21 29  1  0  0  0  0
 22 23  1  0  0  0  0
 22 31  1  0  0  0  0
 22 38  1  1  0  0  0
 23 25  1  0  0  0  0
 23 24  1  1  0  0  0
 25 27  1  0  0  0  0
 25 26  1  6  0  0  0
 27 30  1  0  0  0  0
 27 28  1  1  0  0  0
 30 21  1  6  0  0  0
 30 31  1  0  0  0  0
 32 34  1  0  0  0  0
 32 41  1  0  0  0  0
 32 33  1  1  0  0  0
 34 35  1  0  0  0  0
 35 37  1  0  0  0  0
 35 36  1  1  0  0  0
 37 39  1  0  0  0  0
 37 38  1  6  0  0  0
 39 41  1  0  0  0  0
 39 40  1  1  0  0  0
 41 42  1  6  0  0  0
M  CHG  6  12   1  20   1  24   1  29   1  33   1  36   1
M  END
>  <CHROM.1>
-68.61294466,-104.02058471,-133.13283465,-57.42751721,73.50577839,-69.09535105
-67.98199102,-175.67290265,67.17486650,-160.74268268,-53.27984379,-77.85705293
46.32103930,-153.75469395,172.01156089,-179.06169214,-48.08308075,110.74028672
64.18684503,103.71052776,-40.01785270,-43.14490955,-3.31647947,-2.30770271
1.03095608,-2.58203583,-0.13427482,-0.51527886

>  <Name>
1NEM.B

>  <RI>
0

>  <Rbt.Current_Directory>
/home/itssahil/PROJECTS/Mol_Feturizer/New_Systems/rnas/1nem

>  <Rbt.Executable>
rbdock ($Id: //depot/dev/client3/rdock/2013.1/src/exe/rbdock.cxx#4 $)

>  <Rbt.Library>
libRbt.so (2013.1, Build901 2013/11/27)

>  <Rbt.Parameter_File>
/export/apps/rDock/src/rDock_2013.1_src/data/scripts/dock_solv.prm

>  <Rbt.Receptor>
prm/blind_docking_60.prm

>  <SCORE>
-8.87925

>  <SCORE.INTER>
-35.3343

>  <SCORE.INTER.CONST>
1

>  <SCORE.INTER.POLAR>
-7.17346

>  <SCORE.INTER.ROT>
9

>  <SCORE.INTER.SOLV>
42.3835

>  <SCORE.INTER.VDW>
-23.3725

>  <SCORE.INTER.norm>
-0.841294

>  <SCORE.INTRA>
18.9817

>  <SCORE.INTRA.DIHEDRAL>
9.75376

>  <SCORE.INTRA.DIHEDRAL.0>
22.4324

>  <SCORE.INTRA.POLAR>
-0.222964

>  <SCORE.INTRA.POLAR.0>
-1.83749

>  <SCORE.INTRA.REPUL>
0.113144

>  <SCORE.INTRA.REPUL.0>
0

>  <SCORE.INTRA.SOLV>
5.08293

>  <SCORE.INTRA.SOLV.lig_0>
-160.638

>  <SCORE.INTRA.VDW>
11.7557

>  <SCORE.INTRA.VDW.0>
-7.61953

>  <SCORE.INTRA.norm>
0.451944

>  <SCORE.RESTR>
7.47344

>  <SCORE.RESTR.CAVITY>
7.47344

>  <SCORE.RESTR.norm>
0.177939

>  <SCORE.SYSTEM>
0

>  <SCORE.SYSTEM.CONST>
0

>  <SCORE.SYSTEM.DIHEDRAL>
0

>  <SCORE.SYSTEM.SOLV>
0

>  <SCORE.SYSTEM.norm>
0

>  <SCORE.heavy>
42

>  <SCORE.norm>
-0.211411

>  <RMSD>
9.224

$$$$
1NEM.B
 OpenBabel11021811403D
libRbt.so/2013.1/901 2013/11/27
 42 45  0  0  0  0  0  0  0  0999 V2000
   -5.5712   -4.1863   -0.9690 O   0  0  0  0  0  0  0  0  0  0  0  0
   -5.5667   -4.0052    0.4485 C   0  0  0  0  0  0  0  0  0  0  0  0
   -4.2190   -4.3335    1.0894 C   0  0  1  0  0  0  0  0  0  0  0  0
   -3.3003   -3.2600    0.9078 O   0  0  0  0  0  0  0  0  0  0  0  0
   -4.2592   -4.5030    2.5997 C   0  0  1  0  0  0  0  0  0  0  0  0
   -4.9144   -5.7442    2.8706 O   0  0  0  0  0  0  0  0  0  0  0  0
   -2.7699   -4.4479    2.8843 C   0  0  1  0  0  0  0  0  0  0  0  0
   -2.0855   -5.6116    2.4082 O   0  0  0  0  0  0  0  0  0  0  0  0
   -2.4082   -3.2327    2.0222 C   0  0  2  0  0  0  0  0  0  0  0  0
   -6.3067   -5.6937    2.9977 C   0  0  2  0  0  0  0  0  0  0  0  0
   -6.7767   -6.8570    3.8815 C   0  0  2  0  0  0  0  0  0  0  0  0
   -6.2490   -8.1434    3.3551 N   0  3  0  0  0  0  0  0  0  0  0  0
   -8.3047   -6.8751    3.9923 C   0  0  1  0  0  0  0  0  0  0  0  0
   -8.7393   -5.7762    4.7823 O   0  0  0  0  0  0  0  0  0  0  0  0
   -8.9601   -6.8049    2.6096 C   0  0  2  0  0  0  0  0  0  0  0  0
   -8.7213   -8.0069    1.8882 O   0  0  0  0  0  0  0  0  0  0  0  0
   -8.4012   -5.6138    1.8364 C   0  0  1  0  0  0  0  0  0  0  0  0
   -6.9681   -5.7273    1.7397 O   0  0  0  0  0  0  0  0  0  0  0  0
   -8.9582   -5.4988    0.4284 C   0  0  0  0  0  0  0  0  0  0  0  0
   -8.0404   -6.0777   -0.5777 N   0  3  0  0  0  0  0  0  0  0  0  0
    3.2325    1.3270    2.1937 C   0  0  0  0  0  0  0  0  0  0  0  0
    1.0755   -1.4058    0.9264 C   0  0  2  0  0  0  0  0  0  0  0  0
    1.8627   -2.6343    1.3759 C   0  0  2  0  0  0  0  0  0  0  0  0
    0.9846   -3.8286    1.3929 N   0  3  0  0  0  0  0  0  0  0  0  0
    2.4356   -2.4097    2.7688 C   0  0  1  0  0  0  0  0  0  0  0  0
    3.2287   -3.5257    3.1431 O   0  0  0  0  0  0  0  0  0  0  0  0
    3.2816   -1.1384    2.7745 C   0  0  2  0  0  0  0  0  0  0  0  0
    3.7636   -0.8839    4.0877 O   0  0  0  0  0  0  0  0  0  0  0  0
    3.1247    2.1372    3.4285 N   0  3  0  0  0  0  0  0  0  0  0  0
    2.4334    0.0398    2.2998 C   0  0  2  0  0  0  0  0  0  0  0  0
    1.8873   -0.2364    0.9940 O   0  0  0  0  0  0  0  0  0  0  0  0
   -3.5303    0.7460    0.2542 C   0  0  2  0  0  0  0  0  0  0  0  0
   -4.7712    1.0277   -0.5035 N   0  3  0  0  0  0  0  0  0  0  0  0
   -2.3794    0.4822   -0.7101 C   0  0  0  0  0  0  0  0  0  0  0  0
   -1.0968    0.1887    0.0554 C   0  0  2  0  0  0  0  0  0  0  0  0
   -0.0413   -0.0516   -0.9184 N   0  3  0  0  0  0  0  0  0  0  0  0
   -1.2974   -1.0301    0.9530 C   0  0  1  0  0  0  0  0  0  0  0  0
   -0.0885   -1.2841    1.6948 O   0  0  0  0  0  0  0  0  0  0  0  0
   -2.4578   -0.8007    1.9313 C   0  0  2  0  0  0  0  0  0  0  0  0
   -2.6876   -2.0038    2.6893 O   0  0  0  0  0  0  0  0  0  0  0  0
   -3.7453   -0.4380    1.1955 C   0  0  1  0  0  0  0  0  0  0  0  0
   -4.7566   -0.1141    2.1404 O   0  0  0  0  0  0  0  0  0  0  0  0
  1  2  1  0  0  0  0
  3  2  1  1  0  0  0
  3  5  1  0  0  0  0
  3  4  1  0  0  0  0
  4  9  1  0  0  0  0
  5  7  1  0  0  0  0
  5  6  1  6  0  0  0
  7  9  1  0  0  0  0
  7  8  1  6  0  0  0
  9 40  1  1  0  0  0
 10  6  1  6  0  0  0
 10 11  1  0  0  0  0
 10 18  1  0  0  0  0
 11 13  1  0  0  0  0
 11 12  1  6  0  0  0
 13 15  1  0  0  0  0
 13 14  1  1  0  0  0
 15 17  1  0  0  0  0
 15 16  1  6  0  0  0
 17 19  1  6  0  0  0
 17 18  1  0  0  0  0
 19 20  1  0  0  0  0
 21 29  1  0  0  0  0
 22 23  1  0  0  0  0
 22 31  1  0  0  0  0
 22 38  1  1  0  0  0
 23 25  1  0  0  0  0
 23 24  1  1  0  0  0
 25 27  1  0  0  0  0
 25 26  1  6  0  0  0
 27 30  1  0  0  0  0
 27 28  1  1  0  0  0
 30 21  1  6  0  0  0
 30 31  1  0  0  0  0
 32 34  1  0  0  0  0
 32 41  1  0  0  0  0
 32 33  1  6  0  0  0
 34 35  1  0  0  0  0
 35 37  1  0  0  0  0
 35 36  1  6  0  0  0
 37 39  1  0  0  0  0
 37 38  1  1  0  0  0
 39 41  1  0  0  0  0
 39 40  1  6  0  0  0
 41 42  1  1  0  0  0
M  CHG  6  12   1  20   1  24   1  29   1  33   1  36   1
M  END
>  <CHROM.1>
-53.33776648,78.78959055,-88.74410006,-154.12456358,93.16261660,-61.75966833
156.13305239,104.93763654,-179.33149181,-98.02769582,33.53705404,-94.18214395
-146.97146768,-133.12446095,-152.25826238,62.96929048,65.07102786,-61.01636712
151.79096034,-53.54124180,-31.49615680,-54.14802922,-2.87918997,-3.02513470
1.78259485,2.65876546,0.27250048,2.63335645

>  <Name>
1NEM.B

>  <RI>
0

>  <Rbt.Current_Directory>
/home/itssahil/PROJECTS/Mol_Feturizer/New_Systems/rnas/1nem

>  <Rbt.Executable>
rbdock ($Id: //depot/dev/client3/rdock/2013.1/src/exe/rbdock.cxx#4 $)

>  <Rbt.Library>
libRbt.so (2013.1, Build901 2013/11/27)

>  <Rbt.Parameter_File>
/export/apps/rDock/src/rDock_2013.1_src/data/scripts/dock_solv.prm

>  <Rbt.Receptor>
prm/blind_docking_60.prm

>  <SCORE>
-33.703

>  <SCORE.INTER>
-58.8089

>  <SCORE.INTER.CONST>
1

>  <SCORE.INTER.POLAR>
-9.34054

>  <SCORE.INTER.ROT>
9

>  <SCORE.INTER.SOLV>
45.5009

>  <SCORE.INTER.VDW>
-32.8377

>  <SCORE.INTER.norm>
-1.40021

>  <SCORE.INTRA>
20.6866

>  <SCORE.INTRA.DIHEDRAL>
20.7914

>  <SCORE.INTRA.DIHEDRAL.0>
22.4324

>  <SCORE.INTRA.POLAR>
-1.2088

>  <SCORE.INTRA.POLAR.0>
-1.83749

>  <SCORE.INTRA.REPUL>
0

>  <SCORE.INTRA.REPUL.0>
0

>  <SCORE.INTRA.SOLV>
1.87997

>  <SCORE.INTRA.SOLV.lig_0>
-160.638

>  <SCORE.INTRA.VDW>
13.4609

>  <SCORE.INTRA.VDW.0>
-7.61953

>  <SCORE.INTRA.norm>
0.492539

>  <SCORE.RESTR>
4.41927

>  <SCORE.RESTR.CAVITY>
4.41927

>  <SCORE.RESTR.norm>
0.105221

>  <SCORE.SYSTEM>
0

>  <SCORE.SYSTEM.CONST>
0

>  <SCORE.SYSTEM.DIHEDRAL>
0

>  <SCORE.SYSTEM.SOLV>
0

>  <SCORE.SYSTEM.norm>
0

>  <SCORE.heavy>
42

>  <SCORE.norm>
-0.802451

>  <RMSD>
9.230

$$$$
1NEM.B
 OpenBabel11021811403D
libRbt.so/2013.1/901 2013/11/27
 42 45  0  0  0  0  0  0  0  0999 V2000
   -3.1381   -4.7507    3.7935 O   0  0  0  0  0  0  0  0  0  0  0  0
   -3.7995   -3.9638    4.7862 C   0  0  0  0  0  0  0  0  0  0  0  0
   -4.6055   -2.8084    4.1946 C   0  0  1  0  0  0  0  0  0  0  0  0
   -3.7478   -1.7313    3.8289 O   0  0  0  0  0  0  0  0  0  0  0  0
   -5.3235   -3.1356    2.8951 C   0  0  1  0  0  0  0  0  0  0  0  0
   -6.4188   -3.9948    3.2197 O   0  0  0  0  0  0  0  0  0  0  0  0
   -5.6759   -1.7263    2.4574 C   0  0  1  0  0  0  0  0  0  0  0  0
   -6.6826   -1.1383    3.2881 O   0  0  0  0  0  0  0  0  0  0  0  0
   -4.3220   -1.0533    2.7113 C   0  0  2  0  0  0  0  0  0  0  0  0
   -6.8519   -4.8550    2.2049 C   0  0  2  0  0  0  0  0  0  0  0  0
   -7.0483   -4.0531    0.9112 C   0  0  2  0  0  0  0  0  0  0  0  0
   -7.9415   -2.8913    1.1617 N   0  3  0  0  0  0  0  0  0  0  0  0
   -7.5856   -4.9489   -0.2095 C   0  0  1  0  0  0  0  0  0  0  0  0
   -6.5689   -5.8485   -0.6309 O   0  0  0  0  0  0  0  0  0  0  0  0
   -8.8118   -5.7406    0.2554 C   0  0  2  0  0  0  0  0  0  0  0  0
   -9.9142   -4.8669    0.4631 O   0  0  0  0  0  0  0  0  0  0  0  0
   -8.4840   -6.4820    1.5484 C   0  0  1  0  0  0  0  0  0  0  0  0
   -8.0479   -5.5420    2.5495 O   0  0  0  0  0  0  0  0  0  0  0  0
   -9.6643   -7.2533    2.1124 C   0  0  0  0  0  0  0  0  0  0  0  0
   -9.5548   -8.7045    1.8440 N   0  3  0  0  0  0  0  0  0  0  0  0
    3.4635   -0.2269    1.7466 C   0  0  0  0  0  0  0  0  0  0  0  0
    0.4612   -1.8843    0.3441 C   0  0  2  0  0  0  0  0  0  0  0  0
    0.6699   -3.3206    0.8178 C   0  0  2  0  0  0  0  0  0  0  0  0
   -0.6113   -4.0653    0.7783 N   0  3  0  0  0  0  0  0  0  0  0  0
    1.2151   -3.3303    2.2397 C   0  0  1  0  0  0  0  0  0  0  0  0
    1.4778   -4.6665    2.6397 O   0  0  0  0  0  0  0  0  0  0  0  0
    2.4965   -2.5019    2.3012 C   0  0  2  0  0  0  0  0  0  0  0  0
    2.9743   -2.4486    3.6393 O   0  0  0  0  0  0  0  0  0  0  0  0
    4.2983   -0.5521    0.5674 N   0  3  0  0  0  0  0  0  0  0  0  0
    2.2131   -1.0875    1.7988 C   0  0  2  0  0  0  0  0  0  0  0  0
    1.6675   -1.1351    0.4648 O   0  0  0  0  0  0  0  0  0  0  0  0
   -2.9881    1.9380   -0.2928 C   0  0  2  0  0  0  0  0  0  0  0  0
   -3.9524    2.7220   -1.0983 N   0  3  0  0  0  0  0  0  0  0  0  0
   -1.8396    1.4605   -1.1743 C   0  0  0  0  0  0  0  0  0  0  0  0
   -0.8410    0.6506   -0.3594 C   0  0  2  0  0  0  0  0  0  0  0  0
    0.2265    0.2277   -1.2548 N   0  3  0  0  0  0  0  0  0  0  0  0
   -1.5392   -0.5560    0.2636 C   0  0  1  0  0  0  0  0  0  0  0  0
   -0.5941   -1.3013    1.0558 O   0  0  0  0  0  0  0  0  0  0  0  0
   -2.7093   -0.1096    1.1512 C   0  0  2  0  0  0  0  0  0  0  0  0
   -3.4088   -1.2708    1.6380 O   0  0  0  0  0  0  0  0  0  0  0  0
   -3.6960    0.7619    0.3781 C   0  0  1  0  0  0  0  0  0  0  0  0
   -4.6919    1.2527    1.2657 O   0  0  0  0  0  0  0  0  0  0  0  0
  1  2  1  0  0  0  0
  3  2  1  6  0  0  0
  3  5  1  0  0  0  0
  3  4  1  0  0  0  0
  4  9  1  0  0  0  0
  5  7  1  0  0  0  0
  5  6  1  1  0  0  0
  7  9  1  0  0  0  0
  7  8  1  1  0  0  0
  9 40  1  6  0  0  0
 10  6  1  1  0  0  0
 10 11  1  0  0  0  0
 10 18  1  0  0  0  0
 11 13  1  0  0  0  0
 11 12  1  1  0  0  0
 13 15  1  0  0  0  0
 13 14  1  1  0  0  0
 15 17  1  0  0  0  0
 15 16  1  1  0  0  0
 17 19  1  1  0  0  0
 17 18  1  0  0  0  0
 19 20  1  0  0  0  0
 21 29  1  0  0  0  0
 22 23  1  0  0  0  0
 22 31  1  0  0  0  0
 22 38  1  1  0  0  0
 23 25  1  0  0  0  0
 23 24  1  1  0  0  0
 25 27  1  0  0  0  0
 25 26  1  6  0  0  0
 27 30  1  0  0  0  0
 27 28  1  1  0  0  0
 30 21  1  6  0  0  0
 30 31  1  0  0  0  0
 32 34  1  0  0  0  0
 32 41  1  0  0  0  0
 32 33  1  6  0  0  0
 34 35  1  0  0  0  0
 35 37  1  0  0  0  0
 35 36  1  6  0  0  0
 37 39  1  0  0  0  0
 37 38  1  1  0  0  0
 39 41  1  0  0  0  0
 39 40  1  6  0  0  0
 41 42  1  1  0  0  0
M  CHG  6  12   1  20   1  24   1  29   1  33   1  36   1
M  END
>  <CHROM.1>
-166.74283834,-77.98783337,-153.60657889,-49.20724442,-33.33771430,-112.92991837
124.76324245,-177.59410661,-75.44220701,102.97003217,53.89228483,77.44914902
169.11316032,-135.08135781,-160.45917622,170.88002556,179.81223138,-103.91683495
-79.38625485,-64.50256840,166.05846552,70.76993231,-3.33716600,-2.52130595
1.48445222,-2.72016043,-0.11223513,-0.38158204

>  <Name>
1NEM.B

>  <RI>
0

>  <Rbt.Current_Directory>
/home/itssahil/PROJECTS/Mol_Feturizer/New_Systems/rnas/1nem

>  <Rbt.Executable>
rbdock ($Id: //depot/dev/client3/rdock/2013.1/src/exe/rbdock.cxx#4 $)

>  <Rbt.Library>
libRbt.so (2013.1, Build901 2013/11/27)

>  <Rbt.Parameter_File>
/export/apps/rDock/src/rDock_2013.1_src/data/scripts/dock_solv.prm

>  <Rbt.Receptor>
prm/blind_docking_20.prm

>  <SCORE>
-34.2203

>  <SCORE.INTER>
-58.7333

>  <SCORE.INTER.CONST>
1

>  <SCORE.INTER.POLAR>
-8.24829

>  <SCORE.INTER.ROT>
9

>  <SCORE.INTER.SOLV>
42.0497

>  <SCORE.INTER.VDW>
-35.2778

>  <SCORE.INTER.norm>
-1.39841

>  <SCORE.INTRA>
20.431

>  <SCORE.INTRA.DIHEDRAL>
16.1738

>  <SCORE.INTRA.DIHEDRAL.0>
22.4324

>  <SCORE.INTRA.POLAR>
0.537456

>  <SCORE.INTRA.POLAR.0>
-1.83749

>  <SCORE.INTRA.REPUL>
0.00205044

>  <SCORE.INTRA.REPUL.0>
0

>  <SCORE.INTRA.SOLV>
0.716953

>  <SCORE.INTRA.SOLV.lig_0>
-160.638

>  <SCORE.INTRA.VDW>
10.148

>  <SCORE.INTRA.VDW.0>
-7.61953

>  <SCORE.INTRA.norm>
0.486452

>  <SCORE.RESTR>
4.08204

>  <SCORE.RESTR.CAVITY>
4.08204

>  <SCORE.RESTR.norm>
0.0971914

>  <SCORE.SYSTEM>
0

>  <SCORE.SYSTEM.CONST>
0

>  <SCORE.SYSTEM.DIHEDRAL>
0

>  <SCORE.SYSTEM.SOLV>
0

>  <SCORE.SYSTEM.norm>
0

>  <SCORE.heavy>
42

>  <SCORE.norm>
-0.814769

>  <RMSD>
9.242

$$$$
1NEM.B
 OpenBabel11021811403D
libRbt.so/2013.1/901 2013/11/27
 42 45  0  0  0  0  0  0  0  0999 V2000
   -3.3091   -5.3946    1.7434 O   0  0  0  0  0  0  0  0  0  0  0  0
   -3.3561   -5.0821    3.1371 C   0  0  0  0  0  0  0  0  0  0  0  0
   -3.9780   -3.7161    3.4233 C   0  0  1  0  0  0  0  0  0  0  0  0
   -3.0466   -2.6723    3.1539 O   0  0  0  0  0  0  0  0  0  0  0  0
   -5.1622   -3.3602    2.5387 C   0  0  1  0  0  0  0  0  0  0  0  0
   -6.2633   -4.1702    2.9568 O   0  0  0  0  0  0  0  0  0  0  0  0
   -5.2552   -1.8785    2.8516 C   0  0  1  0  0  0  0  0  0  0  0  0
   -5.7147   -1.6356    4.1854 O   0  0  0  0  0  0  0  0  0  0  0  0
   -3.7702   -1.5166    2.7304 C   0  0  2  0  0  0  0  0  0  0  0  0
   -6.8639   -4.9559    1.9673 C   0  0  2  0  0  0  0  0  0  0  0  0
   -6.8736   -4.1812    0.6425 C   0  0  2  0  0  0  0  0  0  0  0  0
   -7.4976   -2.8458    0.8368 N   0  3  0  0  0  0  0  0  0  0  0  0
   -7.5829   -4.9834   -0.4533 C   0  0  1  0  0  0  0  0  0  0  0  0
   -6.7805   -6.0960   -0.8260 O   0  0  0  0  0  0  0  0  0  0  0  0
   -8.9540   -5.4747    0.0210 C   0  0  2  0  0  0  0  0  0  0  0  0
   -9.8442   -4.3772    0.1798 O   0  0  0  0  0  0  0  0  0  0  0  0
   -8.8030   -6.2185    1.3449 C   0  0  1  0  0  0  0  0  0  0  0  0
   -8.1822   -5.3561    2.3180 O   0  0  0  0  0  0  0  0  0  0  0  0
  -10.1257   -6.6960    1.9181 C   0  0  0  0  0  0  0  0  0  0  0  0
   -9.9945   -7.1227    3.3290 N   0  3  0  0  0  0  0  0  0  0  0  0
    3.4469   -0.3811   -0.1322 C   0  0  0  0  0  0  0  0  0  0  0  0
    0.2450   -2.0796    0.6360 C   0  0  2  0  0  0  0  0  0  0  0  0
    0.6935   -3.0907    1.6884 C   0  0  2  0  0  0  0  0  0  0  0  0
   -0.4709   -3.5641    2.4743 N   0  3  0  0  0  0  0  0  0  0  0  0
    1.7105   -2.4551    2.6269 C   0  0  1  0  0  0  0  0  0  0  0  0
    2.1771   -3.4258    3.5513 O   0  0  0  0  0  0  0  0  0  0  0  0
    2.8780   -1.8993    1.8145 C   0  0  2  0  0  0  0  0  0  0  0  0
    3.7985   -1.2431    2.6769 O   0  0  0  0  0  0  0  0  0  0  0  0
    3.4600   -1.0841   -1.4355 N   0  3  0  0  0  0  0  0  0  0  0  0
    2.3509   -0.9110    0.7760 C   0  0  2  0  0  0  0  0  0  0  0  0
    1.3683   -1.5508   -0.0636 O   0  0  0  0  0  0  0  0  0  0  0  0
   -2.9632    2.0612   -0.2518 C   0  0  2  0  0  0  0  0  0  0  0  0
   -3.8611    2.8275   -1.1462 N   0  3  0  0  0  0  0  0  0  0  0  0
   -1.6561    1.7468   -0.9706 C   0  0  0  0  0  0  0  0  0  0  0  0
   -0.7234    0.9567   -0.0633 C   0  0  2  0  0  0  0  0  0  0  0  0
    0.5011    0.6913   -0.8051 N   0  3  0  0  0  0  0  0  0  0  0  0
   -1.3962   -0.3465    0.3614 C   0  0  1  0  0  0  0  0  0  0  0  0
   -0.5186   -1.0748    1.2422 O   0  0  0  0  0  0  0  0  0  0  0  0
   -2.7227   -0.0652    1.0807 C   0  0  2  0  0  0  0  0  0  0  0  0
   -3.3801   -1.3127    1.3741 O   0  0  0  0  0  0  0  0  0  0  0  0
   -3.6555    0.7838    0.2206 C   0  0  1  0  0  0  0  0  0  0  0  0
   -4.8145    1.1229    0.9703 O   0  0  0  0  0  0  0  0  0  0  0  0
  1  2  1  0  0  0  0
  3  2  1  6  0  0  0
  3  5  1  0  0  0  0
  3  4  1  0  0  0  0
  4  9  1  0  0  0  0
  5  7  1  0  0  0  0
  5  6  1  1  0  0  0
  7  9  1  0  0  0  0
  7  8  1  1  0  0  0
  9 40  1  6  0  0  0
 10  6  1  1  0  0  0
 10 11  1  0  0  0  0
 10 18  1  0  0  0  0
 11 13  1  0  0  0  0
 11 12  1  1  0  0  0
 13 15  1  0  0  0  0
 13 14  1  1  0  0  0
 15 17  1  0  0  0  0
 15 16  1  1  0  0  0
 17 19  1  1  0  0  0
 17 18  1  0  0  0  0
 19 20  1  0  0  0  0
 21 29  1  0  0  0  0
 22 23  1  0  0  0  0
 22 31  1  0  0  0  0
 22 38  1  1  0  0  0
 23 25  1  0  0  0  0
 23 24  1  1  0  0  0
 25 27  1  0  0  0  0
 25 26  1  1  0  0  0
 27 30  1  0  0  0  0
 27 28  1  1  0  0  0
 30 21  1  6  0  0  0
 30 31  1  0  0  0  0
 32 34  1  0  0  0  0
 32 41  1  0  0  0  0
 32 33  1  6  0  0  0
 34 35  1  0  0  0  0
 35 37  1  0  0  0  0
 35 36  1  6  0  0  0
 37 39  1  0  0  0  0
 37 38  1  1  0  0  0
 39 41  1  0  0  0  0
 39 40  1  6  0  0  0
 41 42  1  1  0  0  0
M  CHG  6  12   1  20   1  24   1  29   1  33   1  36   1
M  END
>  <CHROM.1>
52.49467853,-77.64910039,-124.33637952,-36.64585781,64.28806845,-118.66607632
154.23003845,71.40235280,-109.65286852,-166.57949812,-53.78865394,99.88532670
173.68342105,-158.35446369,-143.33454718,177.67584349,67.87086575,25.74849523
126.29884663,-97.32251899,127.01584118,63.80910956,-3.21641302,-2.44101104
1.30933723,-2.72603883,-0.11935111,-0.45641680

>  <Name>
1NEM.B

>  <RI>
0

>  <Rbt.Current_Directory>
/home/itssahil/PROJECTS/Mol_Feturizer/New_Systems/rnas/1nem

>  <Rbt.Executable>
rbdock ($Id: //depot/dev/client3/rdock/2013.1/src/exe/rbdock.cxx#4 $)

>  <Rbt.Library>
libRbt.so (2013.1, Build901 2013/11/27)

>  <Rbt.Parameter_File>
/export/apps/rDock/src/rDock_2013.1_src/data/scripts/dock_solv.prm

>  <Rbt.Receptor>
prm/blind_docking_80.prm

>  <SCORE>
-17.2459

>  <SCORE.INTER>
-52.1769

>  <SCORE.INTER.CONST>
1

>  <SCORE.INTER.POLAR>
-7.41032

>  <SCORE.INTER.ROT>
9

>  <SCORE.INTER.SOLV>
42.4321

>  <SCORE.INTER.VDW>
-33.8276

>  <SCORE.INTER.norm>
-1.24231

>  <SCORE.INTRA>
28.8865

>  <SCORE.INTRA.DIHEDRAL>
31.6181

>  <SCORE.INTRA.DIHEDRAL.0>
22.4324

>  <SCORE.INTRA.POLAR>
-0.0330383

>  <SCORE.INTRA.POLAR.0>
-1.83749

>  <SCORE.INTRA.REPUL>
0

>  <SCORE.INTRA.REPUL.0>
0

>  <SCORE.INTRA.SOLV>
7.5377

>  <SCORE.INTRA.SOLV.lig_0>
-160.638

>  <SCORE.INTRA.VDW>
9.42094

>  <SCORE.INTRA.VDW.0>
-7.61953

>  <SCORE.INTRA.norm>
0.687774

>  <SCORE.RESTR>
6.04454

>  <SCORE.RESTR.CAVITY>
6.04454

>  <SCORE.RESTR.norm>
0.143918

>  <SCORE.SYSTEM>
0

>  <SCORE.SYSTEM.CONST>
0

>  <SCORE.SYSTEM.DIHEDRAL>
0

>  <SCORE.SYSTEM.SOLV>
0

>  <SCORE.SYSTEM.norm>
0

>  <SCORE.heavy>
42

>  <SCORE.norm>
-0.410616

>  <RMSD>
9.246

$$$$
1NEM.B
 OpenBabel11021811403D
libRbt.so/2013.1/901 2013/11/27
 42 45  0  0  0  0  0  0  0  0999 V2000
   -5.2848   -5.3312    4.1468 O   0  0  0  0  0  0  0  0  0  0  0  0
   -4.3098   -4.3287    3.8527 C   0  0  0  0  0  0  0  0  0  0  0  0
   -4.9240   -2.9524    3.6010 C   0  0  1  0  0  0  0  0  0  0  0  0
   -3.9098   -1.9923    3.3196 O   0  0  0  0  0  0  0  0  0  0  0  0
   -5.8244   -2.8733    2.3785 C   0  0  1  0  0  0  0  0  0  0  0  0
   -7.0303   -3.5733    2.6932 O   0  0  0  0  0  0  0  0  0  0  0  0
   -5.9296   -1.3645    2.2586 C   0  0  1  0  0  0  0  0  0  0  0  0
   -6.7053   -0.7912    3.3163 O   0  0  0  0  0  0  0  0  0  0  0  0
   -4.4489   -1.0084    2.4365 C   0  0  2  0  0  0  0  0  0  0  0  0
   -7.2457   -4.7734    2.0073 C   0  0  2  0  0  0  0  0  0  0  0  0
   -8.1131   -4.5009    0.7708 C   0  0  2  0  0  0  0  0  0  0  0  0
   -9.3530   -3.7818    1.1656 N   0  3  0  0  0  0  0  0  0  0  0  0
   -8.4265   -5.8031    0.0267 C   0  0  1  0  0  0  0  0  0  0  0  0
   -7.2482   -6.2889   -0.6028 O   0  0  0  0  0  0  0  0  0  0  0  0
   -8.9749   -6.8675    0.9820 C   0  0  2  0  0  0  0  0  0  0  0  0
  -10.2670   -6.4964    1.4457 O   0  0  0  0  0  0  0  0  0  0  0  0
   -8.0252   -7.0338    2.1649 C   0  0  1  0  0  0  0  0  0  0  0  0
   -7.8481   -5.7665    2.8271 O   0  0  0  0  0  0  0  0  0  0  0  0
   -8.5196   -8.0352    3.1940 C   0  0  0  0  0  0  0  0  0  0  0  0
   -7.5876   -9.1742    3.3485 N   0  3  0  0  0  0  0  0  0  0  0  0
    2.4612   -3.6436    2.0180 C   0  0  0  0  0  0  0  0  0  0  0  0
   -0.4419   -2.5364   -0.0003 C   0  0  2  0  0  0  0  0  0  0  0  0
   -1.4093   -3.6979    0.2144 C   0  0  2  0  0  0  0  0  0  0  0  0
   -2.7940   -3.2787   -0.1087 N   0  3  0  0  0  0  0  0  0  0  0  0
   -1.3498   -4.1699    1.6610 C   0  0  1  0  0  0  0  0  0  0  0  0
   -2.1947   -5.2980    1.8288 O   0  0  0  0  0  0  0  0  0  0  0  0
    0.0890   -4.5328    2.0214 C   0  0  2  0  0  0  0  0  0  0  0  0
    0.1648   -4.9085    3.3905 O   0  0  0  0  0  0  0  0  0  0  0  0
    3.0252   -2.7836    3.0835 N   0  3  0  0  0  0  0  0  0  0  0  0
    0.9965   -3.3309    1.7661 C   0  0  2  0  0  0  0  0  0  0  0  0
    0.8778   -2.9023    0.3943 O   0  0  0  0  0  0  0  0  0  0  0  0
   -2.9677    2.1168   -0.4836 C   0  0  2  0  0  0  0  0  0  0  0  0
   -3.8403    3.0352   -1.2506 N   0  3  0  0  0  0  0  0  0  0  0  0
   -1.8474    1.5954   -1.3763 C   0  0  0  0  0  0  0  0  0  0  0  0
   -0.9430    0.6475   -0.6011 C   0  0  2  0  0  0  0  0  0  0  0  0
    0.1018    0.1886   -1.5054 N   0  3  0  0  0  0  0  0  0  0  0  0
   -1.7595   -0.5286   -0.0707 C   0  0  1  0  0  0  0  0  0  0  0  0
   -0.9021   -1.4059    0.6854 O   0  0  0  0  0  0  0  0  0  0  0  0
   -2.9042   -0.0365    0.8257 C   0  0  2  0  0  0  0  0  0  0  0  0
   -3.7149   -1.1587    1.2233 O   0  0  0  0  0  0  0  0  0  0  0  0
   -3.7921    0.9687    0.0965 C   0  0  1  0  0  0  0  0  0  0  0  0
   -4.7595    1.4892    0.9987 O   0  0  0  0  0  0  0  0  0  0  0  0
  1  2  1  0  0  0  0
  3  2  1  6  0  0  0
  3  5  1  0  0  0  0
  3  4  1  0  0  0  0
  4  9  1  0  0  0  0
  5  7  1  0  0  0  0
  5  6  1  1  0  0  0
  7  9  1  0  0  0  0
  7  8  1  1  0  0  0
  9 40  1  6  0  0  0
 10  6  1  1  0  0  0
 10 11  1  0  0  0  0
 10 18  1  0  0  0  0
 11 13  1  0  0  0  0
 11 12  1  1  0  0  0
 13 15  1  0  0  0  0
 13 14  1  1  0  0  0
 15 17  1  0  0  0  0
 15 16  1  1  0  0  0
 17 19  1  1  0  0  0
 17 18  1  0  0  0  0
 19 20  1  0  0  0  0
 21 29  1  0  0  0  0
 22 23  1  0  0  0  0
 22 31  1  0  0  0  0
 22 38  1  1  0  0  0
 23 25  1  0  0  0  0
 23 24  1  1  0  0  0
 25 27  1  0  0  0  0
 25 26  1  6  0  0  0
 27 30  1  0  0  0  0
 27 28  1  1  0  0  0
 30 21  1  6  0  0  0
 30 31  1  0  0  0  0
 32 34  1  0  0  0  0
 32 41  1  0  0  0  0
 32 33  1  6  0  0  0
 34 35  1  0  0  0  0
 35 37  1  0  0  0  0
 35 36  1  6  0  0  0
 37 39  1  0  0  0  0
 37 38  1  1  0  0  0
 39 41  1  0  0  0  0
 39 40  1  6  0  0  0
 41 42  1  1  0  0  0
M  CHG  6  12   1  20   1  24   1  29   1  33   1  36   1
M  END
>  <CHROM.1>
-175.29849325,179.72549754,-111.18400150,-94.51650918,-69.06320481,-116.05304554
-71.95466792,97.03738656,76.67526630,118.71464284,-70.30255249,-119.44079550
-27.70028187,-91.00228418,176.45814521,-177.59274029,-61.02695724,123.02203863
-157.52070629,-98.97356133,155.18229057,62.27171617,-4.01822756,-3.04548137
1.45257378,-2.52919372,-0.04758508,-0.35609261

>  <Name>
1NEM.B

>  <RI>
0

>  <Rbt.Current_Directory>
/home/itssahil/PROJECTS/Mol_Feturizer/New_Systems/rnas/1nem

>  <Rbt.Executable>
rbdock ($Id: //depot/dev/client3/rdock/2013.1/src/exe/rbdock.cxx#4 $)

>  <Rbt.Library>
libRbt.so (2013.1, Build901 2013/11/27)

>  <Rbt.Parameter_File>
/export/apps/rDock/src/rDock_2013.1_src/data/scripts/dock_solv.prm

>  <Rbt.Receptor>
prm/blind_docking_100.prm

>  <SCORE>
19.2059

>  <SCORE.INTER>
-1.97116

>  <SCORE.INTER.CONST>
1

>  <SCORE.INTER.POLAR>
-7.22514

>  <SCORE.INTER.ROT>
9

>  <SCORE.INTER.SOLV>
54.8929

>  <SCORE.INTER.VDW>
-5.12794

>  <SCORE.INTER.norm>
-0.0469323

>  <SCORE.INTRA>
17.5889

>  <SCORE.INTRA.DIHEDRAL>
32.2233

>  <SCORE.INTRA.DIHEDRAL.0>
22.4324

>  <SCORE.INTRA.POLAR>
0.0370144

>  <SCORE.INTRA.POLAR.0>
-1.83749

>  <SCORE.INTRA.REPUL>
0

>  <SCORE.INTRA.REPUL.0>
0

>  <SCORE.INTRA.SOLV>
-2.62804

>  <SCORE.INTRA.SOLV.lig_0>
-160.638

>  <SCORE.INTRA.VDW>
2.66541

>  <SCORE.INTRA.VDW.0>
-7.61953

>  <SCORE.INTRA.norm>
0.418784

>  <SCORE.RESTR>
3.58814

>  <SCORE.RESTR.CAVITY>
3.58814

>  <SCORE.RESTR.norm>
0.085432

>  <SCORE.SYSTEM>
0

>  <SCORE.SYSTEM.CONST>
0

>  <SCORE.SYSTEM.DIHEDRAL>
0

>  <SCORE.SYSTEM.SOLV>
0

>  <SCORE.SYSTEM.norm>
0

>  <SCORE.heavy>
42

>  <SCORE.norm>
0.457283

>  <RMSD>
9.248

$$$$
1NEM.B
 OpenBabel11021811403D
libRbt.so/2013.1/901 2013/11/27
 42 45  0  0  0  0  0  0  0  0999 V2000
   -3.8197    2.3072    1.7432 O   0  0  0  0  0  0  0  0  0  0  0  0
   -4.6121    1.1406    1.9739 C   0  0  0  0  0  0  0  0  0  0  0  0
   -4.2011   -0.0441    1.1008 C   0  0  1  0  0  0  0  0  0  0  0  0
   -2.9982    0.2444    0.3942 O   0  0  0  0  0  0  0  0  0  0  0  0
   -3.8558   -1.3093    1.8699 C   0  0  1  0  0  0  0  0  0  0  0  0
   -5.0806   -1.8491    2.3716 O   0  0  0  0  0  0  0  0  0  0  0  0
   -3.1799   -2.0869    0.7562 C   0  0  1  0  0  0  0  0  0  0  0  0
   -4.1091   -2.5150   -0.2450 O   0  0  0  0  0  0  0  0  0  0  0  0
   -2.2812   -0.9752    0.2019 C   0  0  2  0  0  0  0  0  0  0  0  0
   -5.4097   -3.1392    1.9422 C   0  0  2  0  0  0  0  0  0  0  0  0
   -6.6225   -3.0665    1.0045 C   0  0  2  0  0  0  0  0  0  0  0  0
   -7.7336   -2.3306    1.6633 N   0  3  0  0  0  0  0  0  0  0  0  0
   -7.0553   -4.4684    0.5630 C   0  0  1  0  0  0  0  0  0  0  0  0
   -6.0885   -5.0083   -0.3283 O   0  0  0  0  0  0  0  0  0  0  0  0
   -7.2213   -5.4006    1.7671 C   0  0  2  0  0  0  0  0  0  0  0  0
   -8.3382   -5.0007    2.5511 O   0  0  0  0  0  0  0  0  0  0  0  0
   -5.9532   -5.3737    2.6157 C   0  0  1  0  0  0  0  0  0  0  0  0
   -5.6722   -4.0214    3.0257 O   0  0  0  0  0  0  0  0  0  0  0  0
   -6.0500   -6.2317    3.8649 C   0  0  0  0  0  0  0  0  0  0  0  0
   -5.0728   -7.3429    3.8489 N   0  3  0  0  0  0  0  0  0  0  0  0
    2.3835    3.3984    1.2767 C   0  0  0  0  0  0  0  0  0  0  0  0
    0.2392    1.0262   -0.5946 C   0  0  2  0  0  0  0  0  0  0  0  0
    0.0632    1.7689   -1.9168 C   0  0  2  0  0  0  0  0  0  0  0  0
   -0.3637    0.8289   -2.9806 N   0  3  0  0  0  0  0  0  0  0  0  0
    1.3723    2.4313   -2.3249 C   0  0  1  0  0  0  0  0  0  0  0  0
    1.1759    3.1818   -3.5134 O   0  0  0  0  0  0  0  0  0  0  0  0
    1.8550    3.3449   -1.2004 C   0  0  2  0  0  0  0  0  0  0  0  0
    3.1117    3.9137   -1.5450 O   0  0  0  0  0  0  0  0  0  0  0  0
    1.2165    4.1206    1.8332 N   0  3  0  0  0  0  0  0  0  0  0  0
    1.9914    2.5371    0.0888 C   0  0  2  0  0  0  0  0  0  0  0  0
    0.7370    1.9035    0.4122 O   0  0  0  0  0  0  0  0  0  0  0  0
    1.4035   -3.5817    1.6031 C   0  0  2  0  0  0  0  0  0  0  0  0
    1.6077   -4.4542    2.7822 N   0  3  0  0  0  0  0  0  0  0  0  0
    2.6541   -2.7477    1.3491 C   0  0  0  0  0  0  0  0  0  0  0  0
    2.4577   -1.8436    0.1403 C   0  0  2  0  0  0  0  0  0  0  0  0
    3.6824   -1.0789   -0.0484 N   0  3  0  0  0  0  0  0  0  0  0  0
    1.2676   -0.9164    0.3757 C   0  0  1  0  0  0  0  0  0  0  0  0
    1.0710   -0.0839   -0.7839 O   0  0  0  0  0  0  0  0  0  0  0  0
   -0.0085   -1.7260    0.6449 C   0  0  2  0  0  0  0  0  0  0  0  0
   -1.0860   -0.8255    0.9651 O   0  0  0  0  0  0  0  0  0  0  0  0
    0.1789   -2.6923    1.8119 C   0  0  1  0  0  0  0  0  0  0  0  0
   -0.9795   -3.5053    1.9453 O   0  0  0  0  0  0  0  0  0  0  0  0
  1  2  1  0  0  0  0
  3  2  1  1  0  0  0
  3  5  1  0  0  0  0
  3  4  1  0  0  0  0
  4  9  1  0  0  0  0
  5  7  1  0  0  0  0
  5  6  1  6  0  0  0
  7  9  1  0  0  0  0
  7  8  1  6  0  0  0
  9 40  1  1  0  0  0
 10  6  1  1  0  0  0
 10 11  1  0  0  0  0
 10 18  1  0  0  0  0
 11 13  1  0  0  0  0
 11 12  1  1  0  0  0
 13 15  1  0  0  0  0
 13 14  1  6  0  0  0
 15 17  1  0  0  0  0
 15 16  1  1  0  0  0
 17 19  1  1  0  0  0
 17 18  1  0  0  0  0
 19 20  1  0  0  0  0
 21 29  1  0  0  0  0
 22 23  1  0  0  0  0
 22 31  1  0  0  0  0
 22 38  1  6  0  0  0
 23 25  1  0  0  0  0
 23 24  1  6  0  0  0
 25 27  1  0  0  0  0
 25 26  1  6  0  0  0
 27 30  1  0  0  0  0
 27 28  1  6  0  0  0
 30 21  1  1  0  0  0
 30 31  1  0  0  0  0
 32 34  1  0  0  0  0
 32 41  1  0  0  0  0
 32 33  1  1  0  0  0
 34 35  1  0  0  0  0
 35 37  1  0  0  0  0
 35 36  1  1  0  0  0
 37 39  1  0  0  0  0
 37 38  1  6  0  0  0
 39 41  1  0  0  0  0
 39 40  1  1  0  0  0
 41 42  1  6  0  0  0
M  CHG  6  12   1  20   1  24   1  29   1  33   1  36   1
M  END
>  <CHROM.1>
-61.97977241,8.14852918,119.93415162,-110.67718146,66.75053753,-162.26990720
-28.58116712,-69.77381353,-68.36376745,116.63896109,59.77627986,79.82595037
66.00665543,-176.99186698,-156.86377923,66.15544864,-66.33112388,79.91162398
-95.67114170,-164.98789413,127.20851317,159.66042007,-1.90108961,-1.21469398
0.78757795,0.71608513,0.03732873,-0.37011488

>  <Name>
1NEM.B

>  <RI>
0

>  <Rbt.Current_Directory>
/home/itssahil/PROJECTS/Mol_Feturizer/New_Systems/rnas/1nem

>  <Rbt.Executable>
rbdock ($Id: //depot/dev/client3/rdock/2013.1/src/exe/rbdock.cxx#4 $)

>  <Rbt.Library>
libRbt.so (2013.1, Build901 2013/11/27)

>  <Rbt.Parameter_File>
/export/apps/rDock/src/rDock_2013.1_src/data/scripts/dock_solv.prm

>  <Rbt.Receptor>
prm/pocket_docking_4.prm

>  <SCORE>
-27.7706

>  <SCORE.INTER>
-48.7687

>  <SCORE.INTER.CONST>
1

>  <SCORE.INTER.POLAR>
-7.95398

>  <SCORE.INTER.ROT>
9

>  <SCORE.INTER.SOLV>
45.1432

>  <SCORE.INTER.VDW>
-30.647

>  <SCORE.INTER.norm>
-1.16116

>  <SCORE.INTRA>
20.7258

>  <SCORE.INTRA.DIHEDRAL>
22.3769

>  <SCORE.INTRA.DIHEDRAL.0>
22.4324

>  <SCORE.INTRA.POLAR>
1.69722

>  <SCORE.INTRA.POLAR.0>
-1.83749

>  <SCORE.INTRA.REPUL>
0

>  <SCORE.INTRA.REPUL.0>
0

>  <SCORE.INTRA.SOLV>
-7.04795

>  <SCORE.INTRA.SOLV.lig_0>
-160.638

>  <SCORE.INTRA.VDW>
7.29077

>  <SCORE.INTRA.VDW.0>
-7.61953

>  <SCORE.INTRA.norm>
0.493471

>  <SCORE.RESTR>
0.272321

>  <SCORE.RESTR.CAVITY>
0.272321

>  <SCORE.RESTR.norm>
0.00648382

>  <SCORE.SYSTEM>
0

>  <SCORE.SYSTEM.CONST>
0

>  <SCORE.SYSTEM.DIHEDRAL>
0

>  <SCORE.SYSTEM.SOLV>
0

>  <SCORE.SYSTEM.norm>
0

>  <SCORE.heavy>
42

>  <SCORE.norm>
-0.661205

>  <RMSD>
9.259

$$$$
1NEM.B
 OpenBabel11021811403D
libRbt.so/2013.1/901 2013/11/27
 42 45  0  0  0  0  0  0  0  0999 V2000
   -3.7542   -5.5946    4.0844 O   0  0  0  0  0  0  0  0  0  0  0  0
   -4.1203   -4.7449    5.1735 C   0  0  0  0  0  0  0  0  0  0  0  0
   -4.6948   -3.4039    4.7191 C   0  0  1  0  0  0  0  0  0  0  0  0
   -3.6703   -2.4170    4.6429 O   0  0  0  0  0  0  0  0  0  0  0  0
   -5.2779   -3.4066    3.3149 C   0  0  1  0  0  0  0  0  0  0  0  0
   -6.5039   -4.1399    3.3656 O   0  0  0  0  0  0  0  0  0  0  0  0
   -5.3938   -1.9087    3.1034 C   0  0  1  0  0  0  0  0  0  0  0  0
   -6.4162   -1.3254    3.9180 O   0  0  0  0  0  0  0  0  0  0  0  0
   -4.0096   -1.4892    3.6121 C   0  0  2  0  0  0  0  0  0  0  0  0
   -6.8478   -4.8501    2.2104 C   0  0  2  0  0  0  0  0  0  0  0  0
   -6.9668   -3.8735    1.0325 C   0  0  2  0  0  0  0  0  0  0  0  0
   -7.8970   -2.7667    1.3792 N   0  3  0  0  0  0  0  0  0  0  0  0
   -7.4066   -4.6048   -0.2400 C   0  0  1  0  0  0  0  0  0  0  0  0
   -6.3459   -5.4265   -0.7094 O   0  0  0  0  0  0  0  0  0  0  0  0
   -8.6477   -5.4649    0.0175 C   0  0  2  0  0  0  0  0  0  0  0  0
   -9.7782   -4.6389    0.2660 O   0  0  0  0  0  0  0  0  0  0  0  0
   -8.3987   -6.3803    1.2129 C   0  0  1  0  0  0  0  0  0  0  0  0
   -8.0523   -5.5891    2.3661 O   0  0  0  0  0  0  0  0  0  0  0  0
   -9.6015   -7.2340    1.5744 C   0  0  0  0  0  0  0  0  0  0  0  0
   -9.9183   -8.2183    0.5159 N   0  3  0  0  0  0  0  0  0  0  0  0
    3.7035   -0.6581    1.9410 C   0  0  0  0  0  0  0  0  0  0  0  0
    0.5041   -1.8073    0.4678 C   0  0  2  0  0  0  0  0  0  0  0  0
    0.6069   -3.3155    0.6815 C   0  0  2  0  0  0  0  0  0  0  0  0
   -0.7356   -3.9385    0.5966 N   0  3  0  0  0  0  0  0  0  0  0  0
    1.2150   -3.6119    2.0458 C   0  0  1  0  0  0  0  0  0  0  0  0
    1.3768   -5.0135    2.2005 O   0  0  0  0  0  0  0  0  0  0  0  0
    2.5661   -2.9106    2.1663 C   0  0  2  0  0  0  0  0  0  0  0  0
    3.1088   -3.1254    3.4628 O   0  0  0  0  0  0  0  0  0  0  0  0
    4.3510   -0.7226    3.2712 N   0  3  0  0  0  0  0  0  0  0  0  0
    2.3857   -1.4131    1.9252 C   0  0  2  0  0  0  0  0  0  0  0  0
    1.7763   -1.1879    0.6378 O   0  0  0  0  0  0  0  0  0  0  0  0
   -3.7841    1.1114    0.1834 C   0  0  2  0  0  0  0  0  0  0  0  0
   -5.0594    1.5182   -0.4502 N   0  3  0  0  0  0  0  0  0  0  0  0
   -2.7821    0.6905   -0.8857 C   0  0  0  0  0  0  0  0  0  0  0  0
   -1.4661    0.2671   -0.2483 C   0  0  2  0  0  0  0  0  0  0  0  0
   -0.5567   -0.1195   -1.3177 N   0  3  0  0  0  0  0  0  0  0  0  0
   -1.7063   -0.8972    0.7098 C   0  0  1  0  0  0  0  0  0  0  0  0
   -0.4611   -1.2731    1.3299 O   0  0  0  0  0  0  0  0  0  0  0  0
   -2.7201   -0.5090    1.7951 C   0  0  2  0  0  0  0  0  0  0  0  0
   -3.0023   -1.6577    2.6170 O   0  0  0  0  0  0  0  0  0  0  0  0
   -4.0298   -0.0157    1.1852 C   0  0  1  0  0  0  0  0  0  0  0  0
   -4.8891    0.4480    2.2181 O   0  0  0  0  0  0  0  0  0  0  0  0
  1  2  1  0  0  0  0
  3  2  1  6  0  0  0
  3  5  1  0  0  0  0
  3  4  1  0  0  0  0
  4  9  1  0  0  0  0
  5  7  1  0  0  0  0
  5  6  1  1  0  0  0
  7  9  1  0  0  0  0
  7  8  1  1  0  0  0
  9 40  1  6  0  0  0
 10  6  1  1  0  0  0
 10 11  1  0  0  0  0
 10 18  1  0  0  0  0
 11 13  1  0  0  0  0
 11 12  1  1  0  0  0
 13 15  1  0  0  0  0
 13 14  1  1  0  0  0
 15 17  1  0  0  0  0
 15 16  1  1  0  0  0
 17 19  1  1  0  0  0
 17 18  1  0  0  0  0
 19 20  1  0  0  0  0
 21 29  1  0  0  0  0
 22 23  1  0  0  0  0
 22 31  1  0  0  0  0
 22 38  1  1  0  0  0
 23 25  1  0  0  0  0
 23 24  1  1  0  0  0
 25 27  1  0  0  0  0
 25 26  1  6  0  0  0
 27 30  1  0  0  0  0
 27 28  1  1  0  0  0
 30 21  1  6  0  0  0
 30 31  1  0  0  0  0
 32 34  1  0  0  0  0
 32 41  1  0  0  0  0
 32 33  1  6  0  0  0
 34 35  1  0  0  0  0
 35 37  1  0  0  0  0
 35 36  1  6  0  0  0
 37 39  1  0  0  0  0
 37 38  1  1  0  0  0
 39 41  1  0  0  0  0
 39 40  1  1  0  0  0
 41 42  1  1  0  0  0
M  CHG  6  12   1  20   1  24   1  29   1  33   1  36   1
M  END
>  <CHROM.1>
-168.05836082,-93.23229964,-148.01085809,-59.25831444,95.57209499,-152.59356503
144.49396334,94.84787931,64.41728797,66.23971493,-66.11365648,-63.98772888
-19.31919778,-105.78167556,139.21442175,-60.23992697,152.92214754,169.62460205
130.53022996,-65.91984322,-175.26206514,-43.41658635,-3.42321664,-2.77449709
1.72172471,-2.82568943,-0.16133734,-0.38928161

>  <Name>
1NEM.B

>  <RI>
0

>  <Rbt.Current_Directory>
/home/itssahil/PROJECTS/Mol_Feturizer/New_Systems/rnas/1nem

>  <Rbt.Executable>
rbdock ($Id: //depot/dev/client3/rdock/2013.1/src/exe/rbdock.cxx#4 $)

>  <Rbt.Library>
libRbt.so (2013.1, Build901 2013/11/27)

>  <Rbt.Parameter_File>
/export/apps/rDock/src/rDock_2013.1_src/data/scripts/dock_solv.prm

>  <Rbt.Receptor>
prm/blind_docking_80.prm

>  <SCORE>
-26.2127

>  <SCORE.INTER>
-58.7905

>  <SCORE.INTER.CONST>
1

>  <SCORE.INTER.POLAR>
-9.93159

>  <SCORE.INTER.ROT>
9

>  <SCORE.INTER.SOLV>
47.6959

>  <SCORE.INTER.VDW>
-31.587

>  <SCORE.INTER.norm>
-1.39977

>  <SCORE.INTRA>
30.2342

>  <SCORE.INTRA.DIHEDRAL>
20.1067

>  <SCORE.INTRA.DIHEDRAL.0>
22.4324

>  <SCORE.INTRA.POLAR>
1.39958

>  <SCORE.INTRA.POLAR.0>
-1.83749

>  <SCORE.INTRA.REPUL>
0

>  <SCORE.INTRA.REPUL.0>
0

>  <SCORE.INTRA.SOLV>
1.45365

>  <SCORE.INTRA.SOLV.lig_0>
-160.638

>  <SCORE.INTRA.VDW>
14.6955

>  <SCORE.INTRA.VDW.0>
-7.61953

>  <SCORE.INTRA.norm>
0.719862

>  <SCORE.RESTR>
2.34355

>  <SCORE.RESTR.CAVITY>
2.34355

>  <SCORE.RESTR.norm>
0.0557987

>  <SCORE.SYSTEM>
0

>  <SCORE.SYSTEM.CONST>
0

>  <SCORE.SYSTEM.DIHEDRAL>
0

>  <SCORE.SYSTEM.SOLV>
0

>  <SCORE.SYSTEM.norm>
0

>  <SCORE.heavy>
42

>  <SCORE.norm>
-0.624113

>  <RMSD>
9.265

$$$$
1NEM.B
 OpenBabel11021811403D
libRbt.so/2013.1/901 2013/11/27
 42 45  0  0  0  0  0  0  0  0999 V2000
   -4.0168    3.1656   -1.2439 O   0  0  0  0  0  0  0  0  0  0  0  0
   -3.1272    2.1406   -0.7966 C   0  0  0  0  0  0  0  0  0  0  0  0
   -1.8619    2.6911   -0.1402 C   0  0  1  0  0  0  0  0  0  0  0  0
   -1.0586    1.6318    0.3717 O   0  0  0  0  0  0  0  0  0  0  0  0
   -0.9185    3.4140   -1.0883 C   0  0  1  0  0  0  0  0  0  0  0  0
   -1.5273    4.6633   -1.4226 O   0  0  0  0  0  0  0  0  0  0  0  0
    0.3094    3.4762   -0.1993 C   0  0  1  0  0  0  0  0  0  0  0  0
    0.1372    4.3797    0.8976 O   0  0  0  0  0  0  0  0  0  0  0  0
    0.3115    2.0281    0.3044 C   0  0  2  0  0  0  0  0  0  0  0  0
   -0.6926    5.6208   -2.0090 C   0  0  2  0  0  0  0  0  0  0  0  0
   -1.5492    6.6376   -2.7755 C   0  0  2  0  0  0  0  0  0  0  0  0
   -2.4481    5.9331   -3.7273 N   0  3  0  0  0  0  0  0  0  0  0  0
   -0.6664    7.6677   -3.4875 C   0  0  1  0  0  0  0  0  0  0  0  0
   -0.0661    8.5273   -2.5276 O   0  0  0  0  0  0  0  0  0  0  0  0
    0.4242    6.9823   -4.3166 C   0  0  2  0  0  0  0  0  0  0  0  0
   -0.1521    6.3004   -5.4234 O   0  0  0  0  0  0  0  0  0  0  0  0
    1.1921    5.9969   -3.4402 C   0  0  1  0  0  0  0  0  0  0  0  0
    0.2780    5.0400   -2.8702 O   0  0  0  0  0  0  0  0  0  0  0  0
    2.2619    5.2297   -4.1971 C   0  0  0  0  0  0  0  0  0  0  0  0
    3.3385    6.1197   -4.6857 N   0  3  0  0  0  0  0  0  0  0  0  0
    6.0040    4.7041    0.7819 C   0  0  0  0  0  0  0  0  0  0  0  0
    3.3578    2.5291   -0.6302 C   0  0  2  0  0  0  0  0  0  0  0  0
    3.5942    2.7125   -2.1274 C   0  0  2  0  0  0  0  0  0  0  0  0
    2.9711    1.6012   -2.8852 N   0  3  0  0  0  0  0  0  0  0  0  0
    5.0878    2.7488   -2.4222 C   0  0  1  0  0  0  0  0  0  0  0  0
    5.2944    2.9971   -3.8043 O   0  0  0  0  0  0  0  0  0  0  0  0
    5.7470    3.8443   -1.5873 C   0  0  2  0  0  0  0  0  0  0  0  0
    7.1521    3.8391   -1.8048 O   0  0  0  0  0  0  0  0  0  0  0  0
    5.6455    4.4857    2.2020 N   0  3  0  0  0  0  0  0  0  0  0  0
    5.4541    3.6028   -0.1077 C   0  0  2  0  0  0  0  0  0  0  0  0
    4.0302    3.5427    0.1125 O   0  0  0  0  0  0  0  0  0  0  0  0
    1.4930   -1.8638    1.5669 C   0  0  2  0  0  0  0  0  0  0  0  0
    0.5926   -2.5713    2.5061 N   0  3  0  0  0  0  0  0  0  0  0  0
    2.6895   -1.2948    2.3210 C   0  0  0  0  0  0  0  0  0  0  0  0
    3.6233   -0.5623    1.3677 C   0  0  2  0  0  0  0  0  0  0  0  0
    4.7406   -0.0468    2.1462 N   0  3  0  0  0  0  0  0  0  0  0  0
    2.8711    0.5729    0.6770 C   0  0  1  0  0  0  0  0  0  0  0  0
    3.7538    1.2430   -0.2440 O   0  0  0  0  0  0  0  0  0  0  0  0
    1.6522    0.0341   -0.0847 C   0  0  2  0  0  0  0  0  0  0  0  0
    0.9081    1.1374   -0.6357 O   0  0  0  0  0  0  0  0  0  0  0  0
    0.7285   -0.7638    0.8322 C   0  0  1  0  0  0  0  0  0  0  0  0
   -0.3160   -1.3456    0.0635 O   0  0  0  0  0  0  0  0  0  0  0  0
  1  2  1  0  0  0  0
  3  2  1  6  0  0  0
  3  5  1  0  0  0  0
  3  4  1  0  0  0  0
  4  9  1  0  0  0  0
  5  7  1  0  0  0  0
  5  6  1  1  0  0  0
  7  9  1  0  0  0  0
  7  8  1  1  0  0  0
  9 40  1  6  0  0  0
 10  6  1  6  0  0  0
 10 11  1  0  0  0  0
 10 18  1  0  0  0  0
 11 13  1  0  0  0  0
 11 12  1  6  0  0  0
 13 15  1  0  0  0  0
 13 14  1  1  0  0  0
 15 17  1  0  0  0  0
 15 16  1  6  0  0  0
 17 19  1  6  0  0  0
 17 18  1  0  0  0  0
 19 20  1  0  0  0  0
 21 29  1  0  0  0  0
 22 23  1  0  0  0  0
 22 31  1  0  0  0  0
 22 38  1  1  0  0  0
 23 25  1  0  0  0  0
 23 24  1  6  0  0  0
 25 27  1  0  0  0  0
 25 26  1  6  0  0  0
 27 30  1  0  0  0  0
 27 28  1  1  0  0  0
 30 21  1  1  0  0  0
 30 31  1  0  0  0  0
 32 34  1  0  0  0  0
 32 41  1  0  0  0  0
 32 33  1  1  0  0  0
 34 35  1  0  0  0  0
 35 37  1  0  0  0  0
 35 36  1  1  0  0  0
 37 39  1  0  0  0  0
 37 38  1  6  0  0  0
 39 41  1  0  0  0  0
 39 40  1  1  0  0  0
 41 42  1  6  0  0  0
M  CHG  6  12   1  20   1  24   1  29   1  33   1  36   1
M  END
>  <CHROM.1>
-169.83269021,175.81647053,164.58260835,158.49590595,66.76462680,-99.99843274
-75.68595451,-55.53630698,169.66998082,65.08698952,-56.29148222,176.95038292
-63.34287769,-138.08679853,153.09537667,60.46551004,63.31840536,-171.37999878
-172.87205137,-160.78956850,-64.77236713,68.57218621,1.59678445,3.07977404
-1.07674434,1.97824186,-0.02855328,-0.61294174

>  <Name>
1NEM.B

>  <RI>
0

>  <Rbt.Current_Directory>
/home/itssahil/PROJECTS/Mol_Feturizer/New_Systems/rnas/1nem

>  <Rbt.Executable>
rbdock ($Id: //depot/dev/client3/rdock/2013.1/src/exe/rbdock.cxx#4 $)

>  <Rbt.Library>
libRbt.so (2013.1, Build901 2013/11/27)

>  <Rbt.Parameter_File>
/export/apps/rDock/src/rDock_2013.1_src/data/scripts/dock_solv.prm

>  <Rbt.Receptor>
prm/pocket_docking_8.prm

>  <SCORE>
-23.7874

>  <SCORE.INTER>
-22.7532

>  <SCORE.INTER.CONST>
1

>  <SCORE.INTER.POLAR>
-3.81204

>  <SCORE.INTER.ROT>
9

>  <SCORE.INTER.SOLV>
26.9686

>  <SCORE.INTER.VDW>
-21.0516

>  <SCORE.INTER.norm>
-0.541744

>  <SCORE.INTRA>
-1.03419

>  <SCORE.INTRA.DIHEDRAL>
-1.35396

>  <SCORE.INTRA.DIHEDRAL.0>
22.4324

>  <SCORE.INTRA.POLAR>
-0.132705

>  <SCORE.INTRA.POLAR.0>
-1.83749

>  <SCORE.INTRA.REPUL>
0

>  <SCORE.INTRA.REPUL.0>
0

>  <SCORE.INTRA.SOLV>
-3.68143

>  <SCORE.INTRA.SOLV.lig_0>
-160.638

>  <SCORE.INTRA.VDW>
1.93471

>  <SCORE.INTRA.VDW.0>
-7.61953

>  <SCORE.INTRA.norm>
-0.0246235

>  <SCORE.RESTR>
0

>  <SCORE.RESTR.CAVITY>
0

>  <SCORE.RESTR.norm>
0

>  <SCORE.SYSTEM>
0

>  <SCORE.SYSTEM.CONST>
0

>  <SCORE.SYSTEM.DIHEDRAL>
0

>  <SCORE.SYSTEM.SOLV>
0

>  <SCORE.SYSTEM.norm>
0

>  <SCORE.heavy>
42

>  <SCORE.norm>
-0.566367

>  <RMSD>
9.266

$$$$
1NEM.B
 OpenBabel11021811403D
libRbt.so/2013.1/901 2013/11/27
 42 45  0  0  0  0  0  0  0  0999 V2000
   11.3203    1.0293    4.4418 O   0  0  0  0  0  0  0  0  0  0  0  0
   10.2719    1.2688    5.3828 C   0  0  0  0  0  0  0  0  0  0  0  0
    9.1499    0.2345    5.3045 C   0  0  1  0  0  0  0  0  0  0  0  0
    8.1814    0.4641    6.3238 O   0  0  0  0  0  0  0  0  0  0  0  0
    8.3270    0.2867    4.0271 C   0  0  1  0  0  0  0  0  0  0  0  0
    9.1446   -0.2285    2.9739 O   0  0  0  0  0  0  0  0  0  0  0  0
    7.1590   -0.5786    4.4619 C   0  0  1  0  0  0  0  0  0  0  0  0
    7.5276   -1.9551    4.5982 O   0  0  0  0  0  0  0  0  0  0  0  0
    6.9062    0.0397    5.8419 C   0  0  2  0  0  0  0  0  0  0  0  0
    8.7833    0.1405    1.6737 C   0  0  2  0  0  0  0  0  0  0  0  0
    9.6956   -0.5796    0.6713 C   0  0  2  0  0  0  0  0  0  0  0  0
   11.1218   -0.3337    1.0114 N   0  3  0  0  0  0  0  0  0  0  0  0
    9.3740   -0.1512   -0.7641 C   0  0  1  0  0  0  0  0  0  0  0  0
    8.1149   -0.6855   -1.1513 O   0  0  0  0  0  0  0  0  0  0  0  0
    9.3460    1.3749   -0.8926 C   0  0  2  0  0  0  0  0  0  0  0  0
   10.6544    1.9081   -0.7318 O   0  0  0  0  0  0  0  0  0  0  0  0
    8.4114    1.9617    0.1615 C   0  0  1  0  0  0  0  0  0  0  0  0
    8.8384    1.5469    1.4736 O   0  0  0  0  0  0  0  0  0  0  0  0
    8.3642    3.4794    0.1421 C   0  0  0  0  0  0  0  0  0  0  0  0
    7.7372    3.9967   -1.0945 N   0  3  0  0  0  0  0  0  0  0  0  0
    5.2893    4.4948    9.7327 C   0  0  0  0  0  0  0  0  0  0  0  0
    5.4166    1.0520    8.3694 C   0  0  2  0  0  0  0  0  0  0  0  0
    5.5307    0.2319    9.6521 C   0  0  2  0  0  0  0  0  0  0  0  0
    5.1357   -1.1743    9.3990 N   0  3  0  0  0  0  0  0  0  0  0  0
    4.6341    0.8207   10.7331 C   0  0  1  0  0  0  0  0  0  0  0  0
    4.8076    0.0973   11.9418 O   0  0  0  0  0  0  0  0  0  0  0  0
    4.9878    2.2910   10.9453 C   0  0  2  0  0  0  0  0  0  0  0  0
    4.1091    2.8665   11.9036 O   0  0  0  0  0  0  0  0  0  0  0  0
    4.7916    5.2957    8.5908 N   0  3  0  0  0  0  0  0  0  0  0  0
    4.8664    3.0404    9.6199 C   0  0  2  0  0  0  0  0  0  0  0  0
    5.7066    2.4241    8.6229 O   0  0  0  0  0  0  0  0  0  0  0  0
    2.9290    1.7506    3.8341 C   0  0  2  0  0  0  0  0  0  0  0  0
    2.6530    2.5088    2.5923 N   0  3  0  0  0  0  0  0  0  0  0  0
    2.1242    2.3335    4.9903 C   0  0  0  0  0  0  0  0  0  0  0  0
    2.3999    1.5647    6.2750 C   0  0  2  0  0  0  0  0  0  0  0  0
    1.6038    2.1672    7.3348 N   0  3  0  0  0  0  0  0  0  0  0  0
    3.8887    1.6304    6.6078 C   0  0  1  0  0  0  0  0  0  0  0  0
    4.1456    0.8772    7.8090 O   0  0  0  0  0  0  0  0  0  0  0  0
    4.7295    1.0593    5.4576 C   0  0  2  0  0  0  0  0  0  0  0  0
    6.1277    1.2314    5.7577 O   0  0  0  0  0  0  0  0  0  0  0  0
    4.4260    1.7665    4.1392 C   0  0  1  0  0  0  0  0  0  0  0  0
    5.1310    1.1261    3.0840 O   0  0  0  0  0  0  0  0  0  0  0  0
  1  2  1  0  0  0  0
  3  2  1  6  0  0  0
  3  5  1  0  0  0  0
  3  4  1  0  0  0  0
  4  9  1  0  0  0  0
  5  7  1  0  0  0  0
  5  6  1  6  0  0  0
  7  9  1  0  0  0  0
  7  8  1  1  0  0  0
  9 40  1  6  0  0  0
 10  6  1  1  0  0  0
 10 11  1  0  0  0  0
 10 18  1  0  0  0  0
 11 13  1  0  0  0  0
 11 12  1  1  0  0  0
 13 15  1  0  0  0  0
 13 14  1  1  0  0  0
 15 17  1  0  0  0  0
 15 16  1  1  0  0  0
 17 19  1  1  0  0  0
 17 18  1  0  0  0  0
 19 20  1  0  0  0  0
 21 29  1  0  0  0  0
 22 23  1  0  0  0  0
 22 31  1  0  0  0  0
 22 38  1  1  0  0  0
 23 25  1  0  0  0  0
 23 24  1  6  0  0  0
 25 27  1  0  0  0  0
 25 26  1  1  0  0  0
 27 30  1  0  0  0  0
 27 28  1  1  0  0  0
 30 21  1  1  0  0  0
 30 31  1  0  0  0  0
 32 34  1  0  0  0  0
 32 41  1  0  0  0  0
 32 33  1  6  0  0  0
 34 35  1  0  0  0  0
 35 37  1  0  0  0  0
 35 36  1  1  0  0  0
 37 39  1  0  0  0  0
 37 38  1  1  0  0  0
 39 41  1  0  0  0  0
 39 40  1  1  0  0  0
 41 42  1  6  0  0  0
M  CHG  6  12   1  20   1  24   1  29   1  33   1  36   1
M  END
>  <CHROM.1>
177.99342129,175.85475176,-158.76039868,-175.81790432,-54.73504221,-172.22044624
-71.76530697,53.64592001,70.21943522,67.18706657,58.78787900,-162.73580528
67.23812618,178.26121566,-47.83410835,60.17117044,56.31858280,-177.40429452
175.07542881,-168.63654913,119.69768096,-62.24339020,6.53571896,1.26280202
5.01849269,-1.02900241,-0.40469006,1.70401376

>  <Name>
1NEM.B

>  <RI>
0

>  <Rbt.Current_Directory>
/home/itssahil/PROJECTS/Mol_Feturizer/New_Systems/rnas/1nem

>  <Rbt.Executable>
rbdock ($Id: //depot/dev/client3/rdock/2013.1/src/exe/rbdock.cxx#4 $)

>  <Rbt.Library>
libRbt.so (2013.1, Build901 2013/11/27)

>  <Rbt.Parameter_File>
/export/apps/rDock/src/rDock_2013.1_src/data/scripts/dock_solv.prm

>  <Rbt.Receptor>
prm/pocket_docking_8.prm

>  <SCORE>
-29.0694

>  <SCORE.INTER>
-26.43

>  <SCORE.INTER.CONST>
1

>  <SCORE.INTER.POLAR>
-4.86821

>  <SCORE.INTER.ROT>
9

>  <SCORE.INTER.SOLV>
21.4338

>  <SCORE.INTER.VDW>
-18.1373

>  <SCORE.INTER.norm>
-0.629287

>  <SCORE.INTRA>
-2.63938

>  <SCORE.INTRA.DIHEDRAL>
-8.34715

>  <SCORE.INTRA.DIHEDRAL.0>
22.4324

>  <SCORE.INTRA.POLAR>
1.2135

>  <SCORE.INTRA.POLAR.0>
-1.83749

>  <SCORE.INTRA.REPUL>
0

>  <SCORE.INTRA.REPUL.0>
0

>  <SCORE.INTRA.SOLV>
-8.12223

>  <SCORE.INTRA.SOLV.lig_0>
-160.638

>  <SCORE.INTRA.VDW>
1.46942

>  <SCORE.INTRA.VDW.0>
-7.61953

>  <SCORE.INTRA.norm>
-0.0628425

>  <SCORE.RESTR>
0

>  <SCORE.RESTR.CAVITY>
0

>  <SCORE.RESTR.norm>
0

>  <SCORE.SYSTEM>
0

>  <SCORE.SYSTEM.CONST>
0

>  <SCORE.SYSTEM.DIHEDRAL>
0

>  <SCORE.SYSTEM.SOLV>
0

>  <SCORE.SYSTEM.norm>
0

>  <SCORE.heavy>
42

>  <SCORE.norm>
-0.692129

>  <RMSD>
9.268

$$$$
1NEM.B
 OpenBabel11021811403D
libRbt.so/2013.1/901 2013/11/27
 42 45  0  0  0  0  0  0  0  0999 V2000
   -6.3505   -2.6934    1.0469 O   0  0  0  0  0  0  0  0  0  0  0  0
   -5.8532   -3.9135    0.4936 C   0  0  0  0  0  0  0  0  0  0  0  0
   -4.4755   -4.2968    1.0319 C   0  0  1  0  0  0  0  0  0  0  0  0
   -3.5421   -3.2408    0.8244 O   0  0  0  0  0  0  0  0  0  0  0  0
   -4.4205   -4.5170    2.5352 C   0  0  1  0  0  0  0  0  0  0  0  0
   -5.0897   -5.7502    2.8086 O   0  0  0  0  0  0  0  0  0  0  0  0
   -2.9148   -4.5087    2.7212 C   0  0  1  0  0  0  0  0  0  0  0  0
   -2.2949   -5.6719    2.1628 O   0  0  0  0  0  0  0  0  0  0  0  0
   -2.5781   -3.2739    1.8770 C   0  0  2  0  0  0  0  0  0  0  0  0
   -6.4539   -5.6609    3.1057 C   0  0  2  0  0  0  0  0  0  0  0  0
   -6.8600   -6.8534    3.9823 C   0  0  2  0  0  0  0  0  0  0  0  0
   -6.4492   -8.1267    3.3341 N   0  3  0  0  0  0  0  0  0  0  0  0
   -8.3635   -6.8272    4.2762 C   0  0  1  0  0  0  0  0  0  0  0  0
   -8.6578   -5.7580    5.1654 O   0  0  0  0  0  0  0  0  0  0  0  0
   -9.1758   -6.6626    2.9880 C   0  0  2  0  0  0  0  0  0  0  0  0
   -9.0716   -7.8319    2.1855 O   0  0  0  0  0  0  0  0  0  0  0  0
   -8.6672   -5.4512    2.2117 C   0  0  1  0  0  0  0  0  0  0  0  0
   -7.2613   -5.6063    1.9368 O   0  0  0  0  0  0  0  0  0  0  0  0
   -9.3832   -5.2437    0.8887 C   0  0  0  0  0  0  0  0  0  0  0  0
   -8.7748   -6.0408   -0.1996 N   0  3  0  0  0  0  0  0  0  0  0  0
    3.4459    0.8380    2.3663 C   0  0  0  0  0  0  0  0  0  0  0  0
    0.9848   -1.5213    0.9159 C   0  0  2  0  0  0  0  0  0  0  0  0
    1.5981   -2.8635    1.3072 C   0  0  2  0  0  0  0  0  0  0  0  0
    0.5741   -3.9336    1.2442 N   0  3  0  0  0  0  0  0  0  0  0  0
    2.1645   -2.7900    2.7189 C   0  0  1  0  0  0  0  0  0  0  0  0
    2.7997   -4.0176    3.0415 O   0  0  0  0  0  0  0  0  0  0  0  0
    3.1661   -1.6408    2.8084 C   0  0  2  0  0  0  0  0  0  0  0  0
    3.6479   -1.5217    4.1408 O   0  0  0  0  0  0  0  0  0  0  0  0
    3.9208    1.1776    3.7273 N   0  3  0  0  0  0  0  0  0  0  0  0
    2.4863   -0.3391    2.3882 C   0  0  2  0  0  0  0  0  0  0  0  0
    1.9380   -0.4719    1.0610 O   0  0  0  0  0  0  0  0  0  0  0  0
   -3.6074    0.7321    0.2118 C   0  0  2  0  0  0  0  0  0  0  0  0
   -4.8369    1.0170   -0.5631 N   0  3  0  0  0  0  0  0  0  0  0  0
   -2.4356    0.5026   -0.7360 C   0  0  0  0  0  0  0  0  0  0  0  0
   -1.1644    0.2062    0.0473 C   0  0  2  0  0  0  0  0  0  0  0  0
   -0.0880   -0.0007   -0.9112 N   0  3  0  0  0  0  0  0  0  0  0  0
   -1.3680   -1.0345    0.9137 C   0  0  1  0  0  0  0  0  0  0  0  0
   -0.1705   -1.2918    1.6727 O   0  0  0  0  0  0  0  0  0  0  0  0
   -2.5492   -0.8399    1.8744 C   0  0  2  0  0  0  0  0  0  0  0  0
   -2.7795   -2.0621    2.6010 O   0  0  0  0  0  0  0  0  0  0  0  0
   -3.8267   -0.4750    1.1223 C   0  0  1  0  0  0  0  0  0  0  0  0
   -4.8592   -0.1834    2.0546 O   0  0  0  0  0  0  0  0  0  0  0  0
  1  2  1  0  0  0  0
  3  2  1  1  0  0  0
  3  5  1  0  0  0  0
  3  4  1  0  0  0  0
  4  9  1  0  0  0  0
  5  7  1  0  0  0  0
  5  6  1  6  0  0  0
  7  9  1  0  0  0  0
  7  8  1  6  0  0  0
  9 40  1  1  0  0  0
 10  6  1  6  0  0  0
 10 11  1  0  0  0  0
 10 18  1  0  0  0  0
 11 13  1  0  0  0  0
 11 12  1  6  0  0  0
 13 15  1  0  0  0  0
 13 14  1  1  0  0  0
 15 17  1  0  0  0  0
 15 16  1  6  0  0  0
 17 19  1  6  0  0  0
 17 18  1  0  0  0  0
 19 20  1  0  0  0  0
 21 29  1  0  0  0  0
 22 23  1  0  0  0  0
 22 31  1  0  0  0  0
 22 38  1  1  0  0  0
 23 25  1  0  0  0  0
 23 24  1  1  0  0  0
 25 27  1  0  0  0  0
 25 26  1  6  0  0  0
 27 30  1  0  0  0  0
 27 28  1  1  0  0  0
 30 21  1  6  0  0  0
 30 31  1  0  0  0  0
 32 34  1  0  0  0  0
 32 41  1  0  0  0  0
 32 33  1  6  0  0  0
 34 35  1  0  0  0  0
 35 37  1  0  0  0  0
 35 36  1  6  0  0  0
 37 39  1  0  0  0  0
 37 38  1  1  0  0  0
 39 41  1  0  0  0  0
 39 40  1  6  0  0  0
 41 42  1  1  0  0  0
M  CHG  6  12   1  20   1  24   1  29   1  33   1  36   1
M  END
>  <CHROM.1>
-40.64277292,-55.54993251,-92.28001912,-153.47315012,-79.43194350,-62.62195828
-82.28222594,68.22445209,175.84103606,-85.71898170,34.65601506,-66.63680846
-82.52803446,-124.45185898,7.68383287,-172.35647946,48.32347779,58.16050171
32.77105774,-59.89862157,-36.43811165,-56.17566174,-3.03997062,-3.07860822
1.89332596,2.69139551,0.22262007,2.62879067

>  <Name>
1NEM.B

>  <RI>
0

>  <Rbt.Current_Directory>
/home/itssahil/PROJECTS/Mol_Feturizer/New_Systems/rnas/1nem

>  <Rbt.Executable>
rbdock ($Id: //depot/dev/client3/rdock/2013.1/src/exe/rbdock.cxx#4 $)

>  <Rbt.Library>
libRbt.so (2013.1, Build901 2013/11/27)

>  <Rbt.Parameter_File>
/export/apps/rDock/src/rDock_2013.1_src/data/scripts/dock_solv.prm

>  <Rbt.Receptor>
prm/blind_docking_60.prm

>  <SCORE>
-36.689

>  <SCORE.INTER>
-54.8046

>  <SCORE.INTER.CONST>
1

>  <SCORE.INTER.POLAR>
-8.26294

>  <SCORE.INTER.ROT>
9

>  <SCORE.INTER.SOLV>
41.409

>  <SCORE.INTER.VDW>
-32.3963

>  <SCORE.INTER.norm>
-1.30487

>  <SCORE.INTRA>
13.6884

>  <SCORE.INTRA.DIHEDRAL>
10.1202

>  <SCORE.INTRA.DIHEDRAL.0>
22.4324

>  <SCORE.INTRA.POLAR>
-0.878205

>  <SCORE.INTRA.POLAR.0>
-1.83749

>  <SCORE.INTRA.REPUL>
0

>  <SCORE.INTRA.REPUL.0>
0

>  <SCORE.INTRA.SOLV>
4.23398

>  <SCORE.INTRA.SOLV.lig_0>
-160.638

>  <SCORE.INTRA.VDW>
9.49725

>  <SCORE.INTRA.VDW.0>
-7.61953

>  <SCORE.INTRA.norm>
0.325915

>  <SCORE.RESTR>
4.42716

>  <SCORE.RESTR.CAVITY>
4.42716

>  <SCORE.RESTR.norm>
0.105409

>  <SCORE.SYSTEM>
0

>  <SCORE.SYSTEM.CONST>
0

>  <SCORE.SYSTEM.DIHEDRAL>
0

>  <SCORE.SYSTEM.SOLV>
0

>  <SCORE.SYSTEM.norm>
0

>  <SCORE.heavy>
42

>  <SCORE.norm>
-0.873548

>  <RMSD>
9.279

$$$$
1NEM.B
 OpenBabel11021811403D
libRbt.so/2013.1/901 2013/11/27
 42 45  0  0  0  0  0  0  0  0999 V2000
   -4.6679   -6.0581    5.0338 O   0  0  0  0  0  0  0  0  0  0  0  0
   -3.8495   -4.9131    5.2819 C   0  0  0  0  0  0  0  0  0  0  0  0
   -4.5034   -3.6039    4.8425 C   0  0  1  0  0  0  0  0  0  0  0  0
   -3.5295   -2.5715    4.7185 O   0  0  0  0  0  0  0  0  0  0  0  0
   -5.1417   -3.6451    3.4633 C   0  0  1  0  0  0  0  0  0  0  0  0
   -6.3293   -4.4336    3.5683 O   0  0  0  0  0  0  0  0  0  0  0  0
   -5.3353   -2.1559    3.2469 C   0  0  1  0  0  0  0  0  0  0  0  0
   -6.3501   -1.6136    4.0986 O   0  0  0  0  0  0  0  0  0  0  0  0
   -3.9527   -1.6689    3.6963 C   0  0  2  0  0  0  0  0  0  0  0  0
   -6.7505   -5.0761    2.3991 C   0  0  2  0  0  0  0  0  0  0  0  0
   -6.8900   -4.0408    1.2748 C   0  0  2  0  0  0  0  0  0  0  0  0
   -7.7645   -2.9226    1.7166 N   0  3  0  0  0  0  0  0  0  0  0  0
   -7.4129   -4.6956   -0.0078 C   0  0  1  0  0  0  0  0  0  0  0  0
   -6.4040   -5.5277   -0.5649 O   0  0  0  0  0  0  0  0  0  0  0  0
   -8.6697   -5.5267    0.2684 C   0  0  2  0  0  0  0  0  0  0  0  0
   -9.7584   -4.6776    0.6087 O   0  0  0  0  0  0  0  0  0  0  0  0
   -8.3975   -6.5059    1.4068 C   0  0  1  0  0  0  0  0  0  0  0  0
   -7.9712   -5.7826    2.5777 O   0  0  0  0  0  0  0  0  0  0  0  0
   -9.6109   -7.3368    1.7853 C   0  0  0  0  0  0  0  0  0  0  0  0
  -10.0865   -8.1663    0.6558 N   0  3  0  0  0  0  0  0  0  0  0  0
    3.5217    0.0606    2.3688 C   0  0  0  0  0  0  0  0  0  0  0  0
    0.6404   -1.4868    0.6279 C   0  0  2  0  0  0  0  0  0  0  0  0
    0.9818   -2.9694    0.7549 C   0  0  2  0  0  0  0  0  0  0  0  0
   -0.2317   -3.7951    0.5469 N   0  3  0  0  0  0  0  0  0  0  0  0
    1.5584   -3.2589    2.1343 C   0  0  1  0  0  0  0  0  0  0  0  0
    1.9433   -4.6228    2.2128 O   0  0  0  0  0  0  0  0  0  0  0  0
    2.7655   -2.3572    2.3830 C   0  0  2  0  0  0  0  0  0  0  0  0
    3.2676   -2.5723    3.6957 O   0  0  0  0  0  0  0  0  0  0  0  0
    4.4881   -0.4139    3.3856 N   0  3  0  0  0  0  0  0  0  0  0  0
    2.3509   -0.8958    2.2232 C   0  0  2  0  0  0  0  0  0  0  0  0
    1.7809   -0.6821    0.9159 O   0  0  0  0  0  0  0  0  0  0  0  0
   -3.9509    0.8134    0.1261 C   0  0  2  0  0  0  0  0  0  0  0  0
   -5.2361    1.0683   -0.5643 N   0  3  0  0  0  0  0  0  0  0  0  0
   -2.8695    0.4752   -0.8939 C   0  0  0  0  0  0  0  0  0  0  0  0
   -1.5423    0.2083   -0.1977 C   0  0  2  0  0  0  0  0  0  0  0  0
   -0.5565   -0.1055   -1.2222 N   0  3  0  0  0  0  0  0  0  0  0  0
   -1.6967   -0.9517    0.7831 C   0  0  1  0  0  0  0  0  0  0  0  0
   -0.4442   -1.1794    1.4581 O   0  0  0  0  0  0  0  0  0  0  0  0
   -2.7870   -0.6469    1.8197 C   0  0  2  0  0  0  0  0  0  0  0  0
   -2.9795   -1.7991    2.6623 O   0  0  0  0  0  0  0  0  0  0  0  0
   -4.1163   -0.3092    1.1492 C   0  0  1  0  0  0  0  0  0  0  0  0
   -5.0590    0.0857    2.1371 O   0  0  0  0  0  0  0  0  0  0  0  0
  1  2  1  0  0  0  0
  3  2  1  6  0  0  0
  3  5  1  0  0  0  0
  3  4  1  0  0  0  0
  4  9  1  0  0  0  0
  5  7  1  0  0  0  0
  5  6  1  1  0  0  0
  7  9  1  0  0  0  0
  7  8  1  1  0  0  0
  9 40  1  6  0  0  0
 10  6  1  1  0  0  0
 10 11  1  0  0  0  0
 10 18  1  0  0  0  0
 11 13  1  0  0  0  0
 11 12  1  1  0  0  0
 13 15  1  0  0  0  0
 13 14  1  1  0  0  0
 15 17  1  0  0  0  0
 15 16  1  1  0  0  0
 17 19  1  1  0  0  0
 17 18  1  0  0  0  0
 19 20  1  0  0  0  0
 21 29  1  0  0  0  0
 22 23  1  0  0  0  0
 22 31  1  0  0  0  0
 22 38  1  1  0  0  0
 23 25  1  0  0  0  0
 23 24  1  1  0  0  0
 25 27  1  0  0  0  0
 25 26  1  6  0  0  0
 27 30  1  0  0  0  0
 27 28  1  1  0  0  0
 30 21  1  6  0  0  0
 30 31  1  0  0  0  0
 32 34  1  0  0  0  0
 32 41  1  0  0  0  0
 32 33  1  6  0  0  0
 34 35  1  0  0  0  0
 35 37  1  0  0  0  0
 35 36  1  6  0  0  0
 37 39  1  0  0  0  0
 37 38  1  1  0  0  0
 39 41  1  0  0  0  0
 39 40  1  1  0  0  0
 41 42  1  1  0  0  0
M  CHG  6  12   1  20   1  24   1  29   1  33   1  36   1
M  END
>  <CHROM.1>
70.22226792,-161.98226981,-153.37397850,-54.13227127,105.06479517,-152.77852853
42.52556177,-174.51561161,161.66087335,60.93026931,169.35842185,-35.86812487
76.33743977,-106.52709312,33.40410073,-88.59311978,69.54440483,97.46690791
19.82450447,-59.20485596,179.11626369,-54.31608974,-3.38562104,-2.79255073
1.87567655,-2.82621136,-0.22622633,-0.56652884

>  <Name>
1NEM.B

>  <RI>
0

>  <Rbt.Current_Directory>
/home/itssahil/PROJECTS/Mol_Feturizer/New_Systems/rnas/1nem

>  <Rbt.Executable>
rbdock ($Id: //depot/dev/client3/rdock/2013.1/src/exe/rbdock.cxx#4 $)

>  <Rbt.Library>
libRbt.so (2013.1, Build901 2013/11/27)

>  <Rbt.Parameter_File>
/export/apps/rDock/src/rDock_2013.1_src/data/scripts/dock_solv.prm

>  <Rbt.Receptor>
prm/blind_docking_100.prm

>  <SCORE>
-41.7502

>  <SCORE.INTER>
-64.9687

>  <SCORE.INTER.CONST>
1

>  <SCORE.INTER.POLAR>
-9.65589

>  <SCORE.INTER.ROT>
9

>  <SCORE.INTER.SOLV>
45.4682

>  <SCORE.INTER.VDW>
-35.8822

>  <SCORE.INTER.norm>
-1.54687

>  <SCORE.INTRA>
21.6568

>  <SCORE.INTRA.DIHEDRAL>
13.5352

>  <SCORE.INTRA.DIHEDRAL.0>
22.4324

>  <SCORE.INTRA.POLAR>
-0.21552

>  <SCORE.INTRA.POLAR.0>
-1.83749

>  <SCORE.INTRA.REPUL>
0.0470883

>  <SCORE.INTRA.REPUL.0>
0

>  <SCORE.INTRA.SOLV>
3.3904

>  <SCORE.INTRA.SOLV.lig_0>
-160.638

>  <SCORE.INTRA.VDW>
13.6913

>  <SCORE.INTRA.VDW.0>
-7.61953

>  <SCORE.INTRA.norm>
0.515637

>  <SCORE.RESTR>
1.56166

>  <SCORE.RESTR.CAVITY>
1.56166

>  <SCORE.RESTR.norm>
0.0371825

>  <SCORE.SYSTEM>
0

>  <SCORE.SYSTEM.CONST>
0

>  <SCORE.SYSTEM.DIHEDRAL>
0

>  <SCORE.SYSTEM.SOLV>
0

>  <SCORE.SYSTEM.norm>
0

>  <SCORE.heavy>
42

>  <SCORE.norm>
-0.994053

>  <RMSD>
9.313

$$$$
1NEM.B
 OpenBabel11021811403D
libRbt.so/2013.1/901 2013/11/27
 42 45  0  0  0  0  0  0  0  0999 V2000
   -2.9206   -3.5860    3.9489 O   0  0  0  0  0  0  0  0  0  0  0  0
   -4.3416   -3.4515    4.0172 C   0  0  0  0  0  0  0  0  0  0  0  0
   -4.9639   -2.9991    2.6970 C   0  0  1  0  0  0  0  0  0  0  0  0
   -4.4844   -1.7087    2.3304 O   0  0  0  0  0  0  0  0  0  0  0  0
   -4.5993   -3.8579    1.4966 C   0  0  1  0  0  0  0  0  0  0  0  0
   -5.3005   -5.0962    1.6315 O   0  0  0  0  0  0  0  0  0  0  0  0
   -5.0692   -2.9315    0.3907 C   0  0  1  0  0  0  0  0  0  0  0  0
   -6.4962   -2.8289    0.3415 O   0  0  0  0  0  0  0  0  0  0  0  0
   -4.4628   -1.6207    0.9055 C   0  0  2  0  0  0  0  0  0  0  0  0
   -6.5878   -5.1407    1.0853 C   0  0  2  0  0  0  0  0  0  0  0  0
   -7.5699   -4.4599    2.0482 C   0  0  2  0  0  0  0  0  0  0  0  0
   -7.4516   -5.0570    3.4045 N   0  3  0  0  0  0  0  0  0  0  0  0
   -9.0038   -4.5454    1.5152 C   0  0  1  0  0  0  0  0  0  0  0  0
   -9.1438   -3.6978    0.3827 O   0  0  0  0  0  0  0  0  0  0  0  0
   -9.3653   -5.9829    1.1290 C   0  0  2  0  0  0  0  0  0  0  0  0
   -9.4531   -6.7991    2.2902 O   0  0  0  0  0  0  0  0  0  0  0  0
   -8.3088   -6.5404    0.1793 C   0  0  1  0  0  0  0  0  0  0  0  0
   -7.0109   -6.4678    0.8008 O   0  0  0  0  0  0  0  0  0  0  0  0
   -8.5597   -7.9854   -0.2143 C   0  0  0  0  0  0  0  0  0  0  0  0
   -9.6363   -8.1043   -1.2226 N   0  3  0  0  0  0  0  0  0  0  0  0
    3.4857    0.3614    2.3746 C   0  0  0  0  0  0  0  0  0  0  0  0
    0.9349   -1.4622    0.4010 C   0  0  2  0  0  0  0  0  0  0  0  0
    1.2029   -2.9019    0.8329 C   0  0  2  0  0  0  0  0  0  0  0  0
    0.0256   -3.7534    0.5389 N   0  3  0  0  0  0  0  0  0  0  0  0
    1.5036   -2.9549    2.3248 C   0  0  1  0  0  0  0  0  0  0  0  0
    1.8268   -4.2855    2.6983 O   0  0  0  0  0  0  0  0  0  0  0  0
    2.6692   -2.0216    2.6445 C   0  0  2  0  0  0  0  0  0  0  0  0
    2.9115   -2.0126    4.0455 O   0  0  0  0  0  0  0  0  0  0  0  0
    3.3263    1.1389    3.6248 N   0  3  0  0  0  0  0  0  0  0  0  0
    2.3349   -0.6085    2.1706 C   0  0  2  0  0  0  0  0  0  0  0  0
    2.0249   -0.6182    0.7622 O   0  0  0  0  0  0  0  0  0  0  0  0
   -2.7958    2.1496   -0.3272 C   0  0  2  0  0  0  0  0  0  0  0  0
   -3.6294    3.0062   -1.2016 N   0  3  0  0  0  0  0  0  0  0  0  0
   -1.3713    2.0845   -0.8664 C   0  0  0  0  0  0  0  0  0  0  0  0
   -0.5028    1.2049    0.0219 C   0  0  2  0  0  0  0  0  0  0  0  0
    0.8386    1.1858   -0.5442 N   0  3  0  0  0  0  0  0  0  0  0  0
   -1.0875   -0.2043    0.0847 C   0  0  1  0  0  0  0  0  0  0  0  0
   -0.2758   -1.0226    0.9495 O   0  0  0  0  0  0  0  0  0  0  0  0
   -2.5275   -0.1731    0.6153 C   0  0  2  0  0  0  0  0  0  0  0  0
   -3.0838   -1.5007    0.5634 O   0  0  0  0  0  0  0  0  0  0  0  0
   -3.4093    0.7548   -0.2166 C   0  0  1  0  0  0  0  0  0  0  0  0
   -4.6953    0.8493    0.3815 O   0  0  0  0  0  0  0  0  0  0  0  0
  1  2  1  0  0  0  0
  3  2  1  1  0  0  0
  3  5  1  0  0  0  0
  3  4  1  0  0  0  0
  4  9  1  0  0  0  0
  5  7  1  0  0  0  0
  5  6  1  1  0  0  0
  7  9  1  0  0  0  0
  7  8  1  1  0  0  0
  9 40  1  6  0  0  0
 10  6  1  1  0  0  0
 10 11  1  0  0  0  0
 10 18  1  0  0  0  0
 11 13  1  0  0  0  0
 11 12  1  1  0  0  0
 13 15  1  0  0  0  0
 13 14  1  6  0  0  0
 15 17  1  0  0  0  0
 15 16  1  1  0  0  0
 17 19  1  1  0  0  0
 17 18  1  0  0  0  0
 19 20  1  0  0  0  0
 21 29  1  0  0  0  0
 22 23  1  0  0  0  0
 22 31  1  0  0  0  0
 22 38  1  1  0  0  0
 23 25  1  0  0  0  0
 23 24  1  1  0  0  0
 25 27  1  0  0  0  0
 25 26  1  6  0  0  0
 27 30  1  0  0  0  0
 27 28  1  1  0  0  0
 30 21  1  6  0  0  0
 30 31  1  0  0  0  0
 32 34  1  0  0  0  0
 32 41  1  0  0  0  0
 32 33  1  6  0  0  0
 34 35  1  0  0  0  0
 35 37  1  0  0  0  0
 35 36  1  6  0  0  0
 37 39  1  0  0  0  0
 37 38  1  1  0  0  0
 39 41  1  0  0  0  0
 39 40  1  6  0  0  0
 41 42  1  1  0  0  0
M  CHG  6  12   1  20   1  24   1  29   1  33   1  36   1
M  END
>  <CHROM.1>
63.35109132,-62.29268328,88.27958477,-79.32309043,173.38304025,-84.17431986
172.27858725,-129.27144268,-172.33563734,76.59806709,-50.40396129,-97.12958038
-60.39925741,-140.85371026,119.59208288,66.97112875,174.46870564,-88.50273847
168.27141124,-76.35734566,-174.30021202,172.66269580,-3.22440788,-2.48489523
1.23097421,-2.69392380,-0.26253513,-0.40171509

>  <Name>
1NEM.B

>  <RI>
0

>  <Rbt.Current_Directory>
/home/itssahil/PROJECTS/Mol_Feturizer/New_Systems/rnas/1nem

>  <Rbt.Executable>
rbdock ($Id: //depot/dev/client3/rdock/2013.1/src/exe/rbdock.cxx#4 $)

>  <Rbt.Library>
libRbt.so (2013.1, Build901 2013/11/27)

>  <Rbt.Parameter_File>
/export/apps/rDock/src/rDock_2013.1_src/data/scripts/dock_solv.prm

>  <Rbt.Receptor>
prm/blind_docking_60.prm

>  <SCORE>
-1.18236

>  <SCORE.INTER>
-32.253

>  <SCORE.INTER.CONST>
1

>  <SCORE.INTER.POLAR>
-6.74879

>  <SCORE.INTER.ROT>
9

>  <SCORE.INTER.SOLV>
38.7143

>  <SCORE.INTER.VDW>
-21.5108

>  <SCORE.INTER.norm>
-0.767928

>  <SCORE.INTRA>
26.5

>  <SCORE.INTRA.DIHEDRAL>
10.6846

>  <SCORE.INTRA.DIHEDRAL.0>
22.4324

>  <SCORE.INTRA.POLAR>
0.150561

>  <SCORE.INTRA.POLAR.0>
-1.83749

>  <SCORE.INTRA.REPUL>
0

>  <SCORE.INTRA.REPUL.0>
0

>  <SCORE.INTRA.SOLV>
-1.26011

>  <SCORE.INTRA.SOLV.lig_0>
-160.638

>  <SCORE.INTRA.VDW>
21.2759

>  <SCORE.INTRA.VDW.0>
-7.61953

>  <SCORE.INTRA.norm>
0.630953

>  <SCORE.RESTR>
4.57056

>  <SCORE.RESTR.CAVITY>
4.57056

>  <SCORE.RESTR.norm>
0.108823

>  <SCORE.SYSTEM>
0

>  <SCORE.SYSTEM.CONST>
0

>  <SCORE.SYSTEM.DIHEDRAL>
0

>  <SCORE.SYSTEM.SOLV>
0

>  <SCORE.SYSTEM.norm>
0

>  <SCORE.heavy>
42

>  <SCORE.norm>
-0.0281513

>  <RMSD>
9.314

$$$$
1NEM.B
 OpenBabel11021811403D
libRbt.so/2013.1/901 2013/11/27
 42 45  0  0  0  0  0  0  0  0999 V2000
   -4.8535   -6.2872    4.6817 O   0  0  0  0  0  0  0  0  0  0  0  0
   -3.9917   -5.2169    5.0738 C   0  0  0  0  0  0  0  0  0  0  0  0
   -4.5517   -3.8390    4.7241 C   0  0  1  0  0  0  0  0  0  0  0  0
   -3.5114   -2.8663    4.6903 O   0  0  0  0  0  0  0  0  0  0  0  0
   -5.1660   -3.7372    3.3370 C   0  0  1  0  0  0  0  0  0  0  0  0
   -6.4036   -4.4518    3.3671 O   0  0  0  0  0  0  0  0  0  0  0  0
   -5.2594   -2.2267    3.2292 C   0  0  1  0  0  0  0  0  0  0  0  0
   -6.2526   -1.6829    4.1049 O   0  0  0  0  0  0  0  0  0  0  0  0
   -3.8567   -1.8656    3.7323 C   0  0  2  0  0  0  0  0  0  0  0  0
   -6.8369   -4.9896    2.1504 C   0  0  2  0  0  0  0  0  0  0  0  0
   -6.8794   -3.8786    1.0925 C   0  0  2  0  0  0  0  0  0  0  0  0
   -7.6888   -2.7337    1.5870 N   0  3  0  0  0  0  0  0  0  0  0  0
   -7.4122   -4.4146   -0.2402 C   0  0  1  0  0  0  0  0  0  0  0  0
   -6.4469   -5.2764   -0.8286 O   0  0  0  0  0  0  0  0  0  0  0  0
   -8.7278   -5.1745   -0.0443 C   0  0  2  0  0  0  0  0  0  0  0  0
   -9.7661   -4.2767    0.3273 O   0  0  0  0  0  0  0  0  0  0  0  0
   -8.5496   -6.2395    1.0341 C   0  0  1  0  0  0  0  0  0  0  0  0
   -8.1058   -5.6217    2.2578 O   0  0  0  0  0  0  0  0  0  0  0  0
   -9.8245   -7.0085    1.3330 C   0  0  0  0  0  0  0  0  0  0  0  0
   -9.6395   -7.9772    2.4363 N   0  3  0  0  0  0  0  0  0  0  0  0
    3.8277   -0.3013    1.4961 C   0  0  0  0  0  0  0  0  0  0  0  0
    0.6710   -2.1333    0.8588 C   0  0  2  0  0  0  0  0  0  0  0  0
    0.9706   -3.4752    1.5226 C   0  0  2  0  0  0  0  0  0  0  0  0
   -0.2906   -4.2027    1.8015 N   0  3  0  0  0  0  0  0  0  0  0  0
    1.7267   -3.2584    2.8266 C   0  0  1  0  0  0  0  0  0  0  0  0
    2.0669   -4.5141    3.3941 O   0  0  0  0  0  0  0  0  0  0  0  0
    2.9902   -2.4447    2.5555 C   0  0  2  0  0  0  0  0  0  0  0  0
    3.6659   -2.1788    3.7778 O   0  0  0  0  0  0  0  0  0  0  0  0
    3.7328    0.1918    0.1029 N   0  3  0  0  0  0  0  0  0  0  0  0
    2.6127   -1.1284    1.8787 C   0  0  2  0  0  0  0  0  0  0  0  0
    1.8705   -1.3874    0.6696 O   0  0  0  0  0  0  0  0  0  0  0  0
   -3.6136    0.8608    0.3452 C   0  0  2  0  0  0  0  0  0  0  0  0
   -4.8596    1.2420   -0.3588 N   0  3  0  0  0  0  0  0  0  0  0  0
   -2.5222    0.5335   -0.6676 C   0  0  0  0  0  0  0  0  0  0  0  0
   -1.2352    0.1374    0.0423 C   0  0  2  0  0  0  0  0  0  0  0  0
   -0.2375   -0.1596   -0.9758 N   0  3  0  0  0  0  0  0  0  0  0  0
   -1.4871   -1.0797    0.9293 C   0  0  1  0  0  0  0  0  0  0  0  0
   -0.2716   -1.4308    1.6190 O   0  0  0  0  0  0  0  0  0  0  0  0
   -2.5900   -0.7863    1.9559 C   0  0  2  0  0  0  0  0  0  0  0  0
   -2.8752   -1.9832    2.7047 O   0  0  0  0  0  0  0  0  0  0  0  0
   -3.8758   -0.3214    1.2768 C   0  0  1  0  0  0  0  0  0  0  0  0
   -4.8246    0.0564    2.2656 O   0  0  0  0  0  0  0  0  0  0  0  0
  1  2  1  0  0  0  0
  3  2  1  6  0  0  0
  3  5  1  0  0  0  0
  3  4  1  0  0  0  0
  4  9  1  0  0  0  0
  5  7  1  0  0  0  0
  5  6  1  1  0  0  0
  7  9  1  0  0  0  0
  7  8  1  1  0  0  0
  9 40  1  6  0  0  0
 10  6  1  1  0  0  0
 10 11  1  0  0  0  0
 10 18  1  0  0  0  0
 11 13  1  0  0  0  0
 11 12  1  1  0  0  0
 13 15  1  0  0  0  0
 13 14  1  1  0  0  0
 15 17  1  0  0  0  0
 15 16  1  1  0  0  0
 17 19  1  1  0  0  0
 17 18  1  0  0  0  0
 19 20  1  0  0  0  0
 21 29  1  0  0  0  0
 22 23  1  0  0  0  0
 22 31  1  0  0  0  0
 22 38  1  1  0  0  0
 23 25  1  0  0  0  0
 23 24  1  1  0  0  0
 25 27  1  0  0  0  0
 25 26  1  6  0  0  0
 27 30  1  0  0  0  0
 27 28  1  1  0  0  0
 30 21  1  6  0  0  0
 30 31  1  0  0  0  0
 32 34  1  0  0  0  0
 32 41  1  0  0  0  0
 32 33  1  6  0  0  0
 34 35  1  0  0  0  0
 35 37  1  0  0  0  0
 35 36  1  6  0  0  0
 37 39  1  0  0  0  0
 37 38  1  1  0  0  0
 39 41  1  0  0  0  0
 39 40  1  6  0  0  0
 41 42  1  1  0  0  0
M  CHG  6  12   1  20   1  24   1  29   1  33   1  36   1
M  END
>  <CHROM.1>
58.67834988,-159.62252231,-152.75041476,-53.96406098,136.75091320,-152.55849630
-75.86315581,-132.76974376,-97.08703007,-176.64203278,-37.14053594,132.36211855
-34.21736260,-121.39762676,-172.64206758,-60.02365270,51.81744371,55.06269397
168.76554830,-78.48847502,178.20972294,74.10425980,-3.31022330,-2.81352063
1.86447817,-2.82925015,-0.19277629,-0.60103074

>  <Name>
1NEM.B

>  <RI>
0

>  <Rbt.Current_Directory>
/home/itssahil/PROJECTS/Mol_Feturizer/New_Systems/rnas/1nem

>  <Rbt.Executable>
rbdock ($Id: //depot/dev/client3/rdock/2013.1/src/exe/rbdock.cxx#4 $)

>  <Rbt.Library>
libRbt.so (2013.1, Build901 2013/11/27)

>  <Rbt.Parameter_File>
/export/apps/rDock/src/rDock_2013.1_src/data/scripts/dock_solv.prm

>  <Rbt.Receptor>
prm/blind_docking_60.prm

>  <SCORE>
-39.1737

>  <SCORE.INTER>
-63.7

>  <SCORE.INTER.CONST>
1

>  <SCORE.INTER.POLAR>
-9.9187

>  <SCORE.INTER.ROT>
9

>  <SCORE.INTER.SOLV>
39.3182

>  <SCORE.INTER.VDW>
-32.1104

>  <SCORE.INTER.norm>
-1.51667

>  <SCORE.INTRA>
20.6259

>  <SCORE.INTRA.DIHEDRAL>
20.8853

>  <SCORE.INTRA.DIHEDRAL.0>
22.4324

>  <SCORE.INTRA.POLAR>
-0.367361

>  <SCORE.INTRA.POLAR.0>
-1.83749

>  <SCORE.INTRA.REPUL>
0

>  <SCORE.INTRA.REPUL.0>
0

>  <SCORE.INTRA.SOLV>
1.87676

>  <SCORE.INTRA.SOLV.lig_0>
-160.638

>  <SCORE.INTRA.VDW>
10.4939

>  <SCORE.INTRA.VDW.0>
-7.61953

>  <SCORE.INTRA.norm>
0.491092

>  <SCORE.RESTR>
3.90046

>  <SCORE.RESTR.CAVITY>
3.90046

>  <SCORE.RESTR.norm>
0.0928682

>  <SCORE.SYSTEM>
0

>  <SCORE.SYSTEM.CONST>
0

>  <SCORE.SYSTEM.DIHEDRAL>
0

>  <SCORE.SYSTEM.SOLV>
0

>  <SCORE.SYSTEM.norm>
0

>  <SCORE.heavy>
42

>  <SCORE.norm>
-0.932706

>  <RMSD>
9.327

$$$$
1NEM.B
 OpenBabel11021811403D
libRbt.so/2013.1/901 2013/11/27
 42 45  0  0  0  0  0  0  0  0999 V2000
   -4.4879   -6.1589    4.2506 O   0  0  0  0  0  0  0  0  0  0  0  0
   -4.1514   -5.1279    5.1811 C   0  0  0  0  0  0  0  0  0  0  0  0
   -4.6913   -3.7570    4.7763 C   0  0  1  0  0  0  0  0  0  0  0  0
   -3.6438   -2.7919    4.7468 O   0  0  0  0  0  0  0  0  0  0  0  0
   -5.2628   -3.6906    3.3690 C   0  0  1  0  0  0  0  0  0  0  0  0
   -6.5057   -4.3967    3.3816 O   0  0  0  0  0  0  0  0  0  0  0  0
   -5.3427   -2.1832    3.2163 C   0  0  1  0  0  0  0  0  0  0  0  0
   -6.3580   -1.6091    4.0460 O   0  0  0  0  0  0  0  0  0  0  0  0
   -3.9534   -1.8165    3.7512 C   0  0  2  0  0  0  0  0  0  0  0  0
   -6.9123   -4.9546    2.1648 C   0  0  2  0  0  0  0  0  0  0  0  0
   -6.9467   -3.8580    1.0916 C   0  0  2  0  0  0  0  0  0  0  0  0
   -7.7756   -2.7148    1.5566 N   0  3  0  0  0  0  0  0  0  0  0  0
   -7.4508   -4.4167   -0.2430 C   0  0  1  0  0  0  0  0  0  0  0  0
   -6.4671   -5.2766   -0.8030 O   0  0  0  0  0  0  0  0  0  0  0  0
   -8.7623   -5.1867   -0.0601 C   0  0  2  0  0  0  0  0  0  0  0  0
   -9.8155   -4.2944    0.2813 O   0  0  0  0  0  0  0  0  0  0  0  0
   -8.5931   -6.2357    1.0353 C   0  0  1  0  0  0  0  0  0  0  0  0
   -8.1768   -5.5976    2.2582 O   0  0  0  0  0  0  0  0  0  0  0  0
   -9.8656   -7.0132    1.3220 C   0  0  0  0  0  0  0  0  0  0  0  0
   -9.7165   -7.9037    2.4944 N   0  3  0  0  0  0  0  0  0  0  0  0
    3.5662    0.3119    2.2669 C   0  0  0  0  0  0  0  0  0  0  0  0
    0.8143   -1.8506    1.0511 C   0  0  2  0  0  0  0  0  0  0  0  0
    1.2693   -3.2176    1.5566 C   0  0  2  0  0  0  0  0  0  0  0  0
    0.1234   -4.1572    1.5969 N   0  3  0  0  0  0  0  0  0  0  0  0
    1.8656   -3.0892    2.9519 C   0  0  1  0  0  0  0  0  0  0  0  0
    2.3547   -4.3515    3.3785 O   0  0  0  0  0  0  0  0  0  0  0  0
    2.9992   -2.0663    2.9311 C   0  0  2  0  0  0  0  0  0  0  0  0
    3.5156   -1.8895    4.2439 O   0  0  0  0  0  0  0  0  0  0  0  0
    3.0082    1.6836    2.2580 N   0  3  0  0  0  0  0  0  0  0  0  0
    2.4730   -0.7339    2.4009 C   0  0  2  0  0  0  0  0  0  0  0  0
    1.8890   -0.9156    1.0949 O   0  0  0  0  0  0  0  0  0  0  0  0
   -3.5906    0.7683    0.2497 C   0  0  2  0  0  0  0  0  0  0  0  0
   -4.8015    1.1015   -0.5351 N   0  3  0  0  0  0  0  0  0  0  0  0
   -2.4410    0.4193   -0.6888 C   0  0  0  0  0  0  0  0  0  0  0  0
   -1.1893    0.0721    0.1048 C   0  0  2  0  0  0  0  0  0  0  0  0
   -0.1335   -0.2483   -0.8453 N   0  3  0  0  0  0  0  0  0  0  0  0
   -1.4721   -1.1132    1.0248 C   0  0  1  0  0  0  0  0  0  0  0  0
   -0.2913   -1.4173    1.7926 O   0  0  0  0  0  0  0  0  0  0  0  0
   -2.6333   -0.7977    1.9779 C   0  0  2  0  0  0  0  0  0  0  0  0
   -2.9422   -1.9688    2.7575 O   0  0  0  0  0  0  0  0  0  0  0  0
   -3.8866   -0.3805    1.2124 C   0  0  1  0  0  0  0  0  0  0  0  0
   -4.8931    0.0203    2.1326 O   0  0  0  0  0  0  0  0  0  0  0  0
  1  2  1  0  0  0  0
  3  2  1  6  0  0  0
  3  5  1  0  0  0  0
  3  4  1  0  0  0  0
  4  9  1  0  0  0  0
  5  7  1  0  0  0  0
  5  6  1  1  0  0  0
  7  9  1  0  0  0  0
  7  8  1  1  0  0  0
  9 40  1  6  0  0  0
 10  6  1  1  0  0  0
 10 11  1  0  0  0  0
 10 18  1  0  0  0  0
 11 13  1  0  0  0  0
 11 12  1  1  0  0  0
 13 15  1  0  0  0  0
 13 14  1  1  0  0  0
 15 17  1  0  0  0  0
 15 16  1  1  0  0  0
 17 19  1  1  0  0  0
 17 18  1  0  0  0  0
 19 20  1  0  0  0  0
 21 29  1  0  0  0  0
 22 23  1  0  0  0  0
 22 31  1  0  0  0  0
 22 38  1  1  0  0  0
 23 25  1  0  0  0  0
 23 24  1  1  0  0  0
 25 27  1  0  0  0  0
 25 26  1  6  0  0  0
 27 30  1  0  0  0  0
 27 28  1  1  0  0  0
 30 21  1  6  0  0  0
 30 31  1  0  0  0  0
 32 34  1  0  0  0  0
 32 41  1  0  0  0  0
 32 33  1  6  0  0  0
 34 35  1  0  0  0  0
 35 37  1  0  0  0  0
 35 36  1  6  0  0  0
 37 39  1  0  0  0  0
 37 38  1  1  0  0  0
 39 41  1  0  0  0  0
 39 40  1  6  0  0  0
 41 42  1  1  0  0  0
M  CHG  6  12   1  20   1  24   1  29   1  33   1  36   1
M  END
>  <CHROM.1>
68.03372656,-126.33703404,-153.35988916,-55.03168495,116.60463412,-152.99698478
42.09970710,-140.49189947,-77.20551276,-173.07345425,-54.02712229,-158.46376827
175.62987922,-123.13356783,70.13263303,-62.00276238,-79.01459784,-67.16295526
36.29093242,-64.34466506,176.47737871,50.24015682,-3.33392059,-2.69398423
1.97985897,-2.83448105,-0.25092151,-0.58130057

>  <Name>
1NEM.B

>  <RI>
0

>  <Rbt.Current_Directory>
/home/itssahil/PROJECTS/Mol_Feturizer/New_Systems/rnas/1nem

>  <Rbt.Executable>
rbdock ($Id: //depot/dev/client3/rdock/2013.1/src/exe/rbdock.cxx#4 $)

>  <Rbt.Library>
libRbt.so (2013.1, Build901 2013/11/27)

>  <Rbt.Parameter_File>
/export/apps/rDock/src/rDock_2013.1_src/data/scripts/dock_solv.prm

>  <Rbt.Receptor>
prm/blind_docking_60.prm

>  <SCORE>
-35.7247

>  <SCORE.INTER>
-64.3671

>  <SCORE.INTER.CONST>
1

>  <SCORE.INTER.POLAR>
-9.70443

>  <SCORE.INTER.ROT>
9

>  <SCORE.INTER.SOLV>
41.4556

>  <SCORE.INTER.VDW>
-33.9818

>  <SCORE.INTER.norm>
-1.53255

>  <SCORE.INTRA>
25.1634

>  <SCORE.INTRA.DIHEDRAL>
16.2724

>  <SCORE.INTRA.DIHEDRAL.0>
22.4324

>  <SCORE.INTRA.POLAR>
-0.202273

>  <SCORE.INTRA.POLAR.0>
-1.83749

>  <SCORE.INTRA.REPUL>
0.0112922

>  <SCORE.INTRA.REPUL.0>
0

>  <SCORE.INTRA.SOLV>
-0.483

>  <SCORE.INTRA.SOLV.lig_0>
-160.638

>  <SCORE.INTRA.VDW>
17.8999

>  <SCORE.INTRA.VDW.0>
-7.61953

>  <SCORE.INTRA.norm>
0.599127

>  <SCORE.RESTR>
3.47904

>  <SCORE.RESTR.CAVITY>
3.47904

>  <SCORE.RESTR.norm>
0.0828343

>  <SCORE.SYSTEM>
0

>  <SCORE.SYSTEM.CONST>
0

>  <SCORE.SYSTEM.DIHEDRAL>
0

>  <SCORE.SYSTEM.SOLV>
0

>  <SCORE.SYSTEM.norm>
0

>  <SCORE.heavy>
42

>  <SCORE.norm>
-0.850587

>  <RMSD>
9.330

$$$$
1NEM.B
 OpenBabel11021811403D
libRbt.so/2013.1/901 2013/11/27
 42 45  0  0  0  0  0  0  0  0999 V2000
   -4.9349    0.9421   -0.5673 O   0  0  0  0  0  0  0  0  0  0  0  0
   -3.5142    1.0947   -0.5918 C   0  0  0  0  0  0  0  0  0  0  0  0
   -2.7690   -0.1733   -0.1776 C   0  0  1  0  0  0  0  0  0  0  0  0
   -1.4752   -0.2141   -0.7725 O   0  0  0  0  0  0  0  0  0  0  0  0
   -2.4697   -0.2762    1.3094 C   0  0  1  0  0  0  0  0  0  0  0  0
   -3.7060   -0.5475    1.9737 O   0  0  0  0  0  0  0  0  0  0  0  0
   -1.4601   -1.4080    1.2704 C   0  0  1  0  0  0  0  0  0  0  0  0
   -2.0658   -2.6612    0.9363 O   0  0  0  0  0  0  0  0  0  0  0  0
   -0.5935   -0.9131    0.1064 C   0  0  2  0  0  0  0  0  0  0  0  0
   -4.4006   -1.6846    1.5473 C   0  0  2  0  0  0  0  0  0  0  0  0
   -5.9068   -1.4574    1.7347 C   0  0  2  0  0  0  0  0  0  0  0  0
   -6.1907   -1.0470    3.1351 N   0  3  0  0  0  0  0  0  0  0  0  0
   -6.7001   -2.7071    1.3392 C   0  0  1  0  0  0  0  0  0  0  0  0
   -6.6516   -2.8771   -0.0712 O   0  0  0  0  0  0  0  0  0  0  0  0
   -6.1421   -3.9569    2.0269 C   0  0  2  0  0  0  0  0  0  0  0  0
   -6.3906   -3.9033    3.4260 O   0  0  0  0  0  0  0  0  0  0  0  0
   -4.6416   -4.0584    1.7681 C   0  0  1  0  0  0  0  0  0  0  0  0
   -3.9872   -2.8609    2.2304 O   0  0  0  0  0  0  0  0  0  0  0  0
   -3.9931   -5.2441    2.4607 C   0  0  0  0  0  0  0  0  0  0  0  0
   -2.6147   -5.4802    1.9768 N   0  3  0  0  0  0  0  0  0  0  0  0
    6.3337    3.8267    0.9947 C   0  0  0  0  0  0  0  0  0  0  0  0
    2.8090    2.9708    1.7504 C   0  0  2  0  0  0  0  0  0  0  0  0
    2.0740    4.1211    1.0666 C   0  0  2  0  0  0  0  0  0  0  0  0
    0.6553    3.7583    0.8355 N   0  3  0  0  0  0  0  0  0  0  0  0
    2.7346    4.4475   -0.2661 C   0  0  1  0  0  0  0  0  0  0  0  0
    2.0911    5.5672   -0.8548 O   0  0  0  0  0  0  0  0  0  0  0  0
    4.2146    4.7498   -0.0423 C   0  0  2  0  0  0  0  0  0  0  0  0
    4.8538    4.9877   -1.2898 O   0  0  0  0  0  0  0  0  0  0  0  0
    7.1208    4.1565   -0.2155 N   0  3  0  0  0  0  0  0  0  0  0  0
    4.8763    3.5642    0.6575 C   0  0  2  0  0  0  0  0  0  0  0  0
    4.1939    3.2746    1.8945 O   0  0  0  0  0  0  0  0  0  0  0  0
    2.7021   -2.2460    2.3664 C   0  0  2  0  0  0  0  0  0  0  0  0
    2.4375   -3.4562    3.1781 N   0  3  0  0  0  0  0  0  0  0  0  0
    3.3597   -1.1742    3.2282 C   0  0  0  0  0  0  0  0  0  0  0  0
    3.6357    0.0775    2.4069 C   0  0  2  0  0  0  0  0  0  0  0  0
    4.2624    1.0568    3.2835 N   0  3  0  0  0  0  0  0  0  0  0  0
    2.3283    0.6183    1.8328 C   0  0  1  0  0  0  0  0  0  0  0  0
    2.6015    1.7860    1.0340 O   0  0  0  0  0  0  0  0  0  0  0  0
    1.6344   -0.4419    0.9663 C   0  0  2  0  0  0  0  0  0  0  0  0
    0.3584    0.0616    0.5271 O   0  0  0  0  0  0  0  0  0  0  0  0
    1.4037   -1.7352    1.7439 C   0  0  1  0  0  0  0  0  0  0  0  0
    0.8753   -2.7253    0.8716 O   0  0  0  0  0  0  0  0  0  0  0  0
  1  2  1  0  0  0  0
  3  2  1  1  0  0  0
  3  5  1  0  0  0  0
  3  4  1  0  0  0  0
  4  9  1  0  0  0  0
  5  7  1  0  0  0  0
  5  6  1  1  0  0  0
  7  9  1  0  0  0  0
  7  8  1  6  0  0  0
  9 40  1  1  0  0  0
 10  6  1  1  0  0  0
 10 11  1  0  0  0  0
 10 18  1  0  0  0  0
 11 13  1  0  0  0  0
 11 12  1  1  0  0  0
 13 15  1  0  0  0  0
 13 14  1  6  0  0  0
 15 17  1  0  0  0  0
 15 16  1  1  0  0  0
 17 19  1  1  0  0  0
 17 18  1  0  0  0  0
 19 20  1  0  0  0  0
 21 29  1  0  0  0  0
 22 23  1  0  0  0  0
 22 31  1  0  0  0  0
 22 38  1  6  0  0  0
 23 25  1  0  0  0  0
 23 24  1  6  0  0  0
 25 27  1  0  0  0  0
 25 26  1  1  0  0  0
 27 30  1  0  0  0  0
 27 28  1  6  0  0  0
 30 21  1  1  0  0  0
 30 31  1  0  0  0  0
 32 34  1  0  0  0  0
 32 41  1  0  0  0  0
 32 33  1  1  0  0  0
 34 35  1  0  0  0  0
 35 37  1  0  0  0  0
 35 36  1  1  0  0  0
 37 39  1  0  0  0  0
 37 38  1  6  0  0  0
 39 41  1  0  0  0  0
 39 40  1  1  0  0  0
 41 42  1  6  0  0  0
M  CHG  6  12   1  20   1  24   1  29   1  33   1  36   1
M  END
>  <CHROM.1>
-61.02031795,153.23955262,56.54161456,-149.76940861,163.66046373,-155.99494063
-63.21609097,-44.66631607,-98.96075339,168.27652239,162.43547995,-57.81073608
102.19922652,-137.09557766,179.89046743,-63.97610727,77.28753164,-29.33407606
53.89116853,-78.96735707,-159.75895592,-47.75310242,-0.31981167,-0.05176447
1.20598672,2.56184847,0.15885563,2.74453906

>  <Name>
1NEM.B

>  <RI>
0

>  <Rbt.Current_Directory>
/home/itssahil/PROJECTS/Mol_Feturizer/New_Systems/rnas/1nem

>  <Rbt.Executable>
rbdock ($Id: //depot/dev/client3/rdock/2013.1/src/exe/rbdock.cxx#4 $)

>  <Rbt.Library>
libRbt.so (2013.1, Build901 2013/11/27)

>  <Rbt.Parameter_File>
/export/apps/rDock/src/rDock_2013.1_src/data/scripts/dock_solv.prm

>  <Rbt.Receptor>
prm/pocket_docking_5.prm

>  <SCORE>
-21.8359

>  <SCORE.INTER>
-40.5786

>  <SCORE.INTER.CONST>
1

>  <SCORE.INTER.POLAR>
-5.51711

>  <SCORE.INTER.ROT>
9

>  <SCORE.INTER.SOLV>
35.3258

>  <SCORE.INTER.VDW>
-30.0373

>  <SCORE.INTER.norm>
-0.966158

>  <SCORE.INTRA>
18.2095

>  <SCORE.INTRA.DIHEDRAL>
11.7225

>  <SCORE.INTRA.DIHEDRAL.0>
22.4324

>  <SCORE.INTRA.POLAR>
-0.700936

>  <SCORE.INTRA.POLAR.0>
-1.83749

>  <SCORE.INTRA.REPUL>
0

>  <SCORE.INTRA.REPUL.0>
0

>  <SCORE.INTRA.SOLV>
1.30472

>  <SCORE.INTRA.SOLV.lig_0>
-160.638

>  <SCORE.INTRA.VDW>
14.0791

>  <SCORE.INTRA.VDW.0>
-7.61953

>  <SCORE.INTRA.norm>
0.43356

>  <SCORE.RESTR>
0.533184

>  <SCORE.RESTR.CAVITY>
0.533184

>  <SCORE.RESTR.norm>
0.0126949

>  <SCORE.SYSTEM>
0

>  <SCORE.SYSTEM.CONST>
0

>  <SCORE.SYSTEM.DIHEDRAL>
0

>  <SCORE.SYSTEM.SOLV>
0

>  <SCORE.SYSTEM.norm>
0

>  <SCORE.heavy>
42

>  <SCORE.norm>
-0.519903

>  <RMSD>
9.332

$$$$
1NEM.B
 OpenBabel11021811403D
libRbt.so/2013.1/901 2013/11/27
 42 45  0  0  0  0  0  0  0  0999 V2000
   -4.2818   -2.3309    6.8447 O   0  0  0  0  0  0  0  0  0  0  0  0
   -4.4736   -3.1972    5.7246 C   0  0  0  0  0  0  0  0  0  0  0  0
   -5.3977   -2.6050    4.6615 C   0  0  1  0  0  0  0  0  0  0  0  0
   -4.7900   -1.4778    4.0374 O   0  0  0  0  0  0  0  0  0  0  0  0
   -5.6942   -3.5302    3.4920 C   0  0  1  0  0  0  0  0  0  0  0  0
   -6.5723   -4.5516    3.9704 O   0  0  0  0  0  0  0  0  0  0  0  0
   -6.2930   -2.5173    2.5342 C   0  0  1  0  0  0  0  0  0  0  0  0
   -7.5781   -2.0586    2.9667 O   0  0  0  0  0  0  0  0  0  0  0  0
   -5.2538   -1.4006    2.6893 C   0  0  2  0  0  0  0  0  0  0  0  0
   -7.6943   -4.8227    3.1800 C   0  0  2  0  0  0  0  0  0  0  0  0
   -8.2451   -6.2088    3.5415 C   0  0  2  0  0  0  0  0  0  0  0  0
   -7.1646   -7.2262    3.4532 N   0  3  0  0  0  0  0  0  0  0  0  0
   -9.4379   -6.5710    2.6507 C   0  0  1  0  0  0  0  0  0  0  0  0
  -10.5558   -5.7649    2.9983 O   0  0  0  0  0  0  0  0  0  0  0  0
   -9.1020   -6.3725    1.1694 C   0  0  2  0  0  0  0  0  0  0  0  0
   -8.1410   -7.3322    0.7479 O   0  0  0  0  0  0  0  0  0  0  0  0
   -8.5607   -4.9626    0.9503 C   0  0  1  0  0  0  0  0  0  0  0  0
   -7.4089   -4.7492    1.7892 O   0  0  0  0  0  0  0  0  0  0  0  0
   -8.1496   -4.6954   -0.4870 C   0  0  0  0  0  0  0  0  0  0  0  0
   -7.1318   -3.6253   -0.5805 N   0  3  0  0  0  0  0  0  0  0  0  0
    2.7847   -2.6092    1.0532 C   0  0  0  0  0  0  0  0  0  0  0  0
   -0.7549   -2.5979   -0.0415 C   0  0  2  0  0  0  0  0  0  0  0  0
   -1.1261   -4.0666    0.1484 C   0  0  2  0  0  0  0  0  0  0  0  0
   -2.5990   -4.2188    0.2176 N   0  3  0  0  0  0  0  0  0  0  0  0
   -0.5028   -4.6040    1.4296 C   0  0  1  0  0  0  0  0  0  0  0  0
   -0.7902   -5.9883    1.5547 O   0  0  0  0  0  0  0  0  0  0  0  0
    1.0077   -4.3821    1.3953 C   0  0  2  0  0  0  0  0  0  0  0  0
    1.5887   -4.8182    2.6174 O   0  0  0  0  0  0  0  0  0  0  0  0
    3.1025   -1.2103    1.4208 N   0  3  0  0  0  0  0  0  0  0  0  0
    1.2996   -2.8972    1.1873 C   0  0  2  0  0  0  0  0  0  0  0  0
    0.6602   -2.4302   -0.0180 O   0  0  0  0  0  0  0  0  0  0  0  0
   -3.5098    1.8437    0.5566 C   0  0  2  0  0  0  0  0  0  0  0  0
   -4.4561    2.8652    0.0522 N   0  3  0  0  0  0  0  0  0  0  0  0
   -2.5369    1.4446   -0.5471 C   0  0  0  0  0  0  0  0  0  0  0  0
   -1.5588    0.3926   -0.0431 C   0  0  2  0  0  0  0  0  0  0  0  0
   -0.6606    0.0573   -1.1391 N   0  3  0  0  0  0  0  0  0  0  0  0
   -2.3242   -0.8408    0.4304 C   0  0  1  0  0  0  0  0  0  0  0  0
   -1.3935   -1.8201    0.9317 O   0  0  0  0  0  0  0  0  0  0  0  0
   -3.3215   -0.4711    1.5371 C   0  0  2  0  0  0  0  0  0  0  0  0
   -4.0981   -1.6326    1.8869 O   0  0  0  0  0  0  0  0  0  0  0  0
   -4.2755    0.6313    1.0838 C   0  0  1  0  0  0  0  0  0  0  0  0
   -5.0957    1.0272    2.1752 O   0  0  0  0  0  0  0  0  0  0  0  0
  1  2  1  0  0  0  0
  3  2  1  1  0  0  0
  3  5  1  0  0  0  0
  3  4  1  0  0  0  0
  4  9  1  0  0  0  0
  5  7  1  0  0  0  0
  5  6  1  1  0  0  0
  7  9  1  0  0  0  0
  7  8  1  1  0  0  0
  9 40  1  6  0  0  0
 10  6  1  1  0  0  0
 10 11  1  0  0  0  0
 10 18  1  0  0  0  0
 11 13  1  0  0  0  0
 11 12  1  6  0  0  0
 13 15  1  0  0  0  0
 13 14  1  1  0  0  0
 15 17  1  0  0  0  0
 15 16  1  1  0  0  0
 17 19  1  6  0  0  0
 17 18  1  0  0  0  0
 19 20  1  0  0  0  0
 21 29  1  0  0  0  0
 22 23  1  0  0  0  0
 22 31  1  0  0  0  0
 22 38  1  1  0  0  0
 23 25  1  0  0  0  0
 23 24  1  1  0  0  0
 25 27  1  0  0  0  0
 25 26  1  6  0  0  0
 27 30  1  0  0  0  0
 27 28  1  1  0  0  0
 30 21  1  6  0  0  0
 30 31  1  0  0  0  0
 32 34  1  0  0  0  0
 32 41  1  0  0  0  0
 32 33  1  6  0  0  0
 34 35  1  0  0  0  0
 35 37  1  0  0  0  0
 35 36  1  6  0  0  0
 37 39  1  0  0  0  0
 37 38  1  1  0  0  0
 39 41  1  0  0  0  0
 39 40  1  6  0  0  0
 41 42  1  1  0  0  0
M  CHG  6  12   1  20   1  24   1  29   1  33   1  36   1
M  END
>  <CHROM.1>
80.11451360,67.31462022,132.40408688,160.63465709,-77.07600377,-88.87962015
-179.15568736,-172.51257571,81.99809165,-155.20655792,-60.95934093,-155.98315900
49.01932543,-117.69036906,-172.26440259,171.04381422,52.31829562,51.00291175
-178.24293057,-80.61370040,-167.14255004,-167.35322572,-4.05896657,-2.92620398
1.77692519,2.70436467,-0.12314236,2.95079814

>  <Name>
1NEM.B

>  <RI>
0

>  <Rbt.Current_Directory>
/home/itssahil/PROJECTS/Mol_Feturizer/New_Systems/rnas/1nem

>  <Rbt.Executable>
rbdock ($Id: //depot/dev/client3/rdock/2013.1/src/exe/rbdock.cxx#4 $)

>  <Rbt.Library>
libRbt.so (2013.1, Build901 2013/11/27)

>  <Rbt.Parameter_File>
/export/apps/rDock/src/rDock_2013.1_src/data/scripts/dock_solv.prm

>  <Rbt.Receptor>
prm/blind_docking_20.prm

>  <SCORE>
7.21193

>  <SCORE.INTER>
-23.0406

>  <SCORE.INTER.CONST>
1

>  <SCORE.INTER.POLAR>
-7.94769

>  <SCORE.INTER.ROT>
9

>  <SCORE.INTER.SOLV>
48.6264

>  <SCORE.INTER.VDW>
-14.6769

>  <SCORE.INTER.norm>
-0.548585

>  <SCORE.INTRA>
25.2132

>  <SCORE.INTRA.DIHEDRAL>
10.6558

>  <SCORE.INTRA.DIHEDRAL.0>
22.4324

>  <SCORE.INTRA.POLAR>
0.0254483

>  <SCORE.INTRA.POLAR.0>
-1.83749

>  <SCORE.INTRA.REPUL>
0.00945411

>  <SCORE.INTRA.REPUL.0>
0

>  <SCORE.INTRA.SOLV>
-3.06853

>  <SCORE.INTRA.SOLV.lig_0>
-160.638

>  <SCORE.INTRA.VDW>
21.2857

>  <SCORE.INTRA.VDW.0>
-7.61953

>  <SCORE.INTRA.norm>
0.600313

>  <SCORE.RESTR>
5.03934

>  <SCORE.RESTR.CAVITY>
5.03934

>  <SCORE.RESTR.norm>
0.119984

>  <SCORE.SYSTEM>
0

>  <SCORE.SYSTEM.CONST>
0

>  <SCORE.SYSTEM.DIHEDRAL>
0

>  <SCORE.SYSTEM.SOLV>
0

>  <SCORE.SYSTEM.norm>
0

>  <SCORE.heavy>
42

>  <SCORE.norm>
0.171713

>  <RMSD>
9.333

$$$$
1NEM.B
 OpenBabel11021811403D
libRbt.so/2013.1/901 2013/11/27
 42 45  0  0  0  0  0  0  0  0999 V2000
   -4.8108   -1.0374    4.2457 O   0  0  0  0  0  0  0  0  0  0  0  0
   -5.3714   -0.3461    3.1277 C   0  0  0  0  0  0  0  0  0  0  0  0
   -4.5132   -0.4509    1.8678 C   0  0  1  0  0  0  0  0  0  0  0  0
   -3.1667   -0.0759    2.1431 O   0  0  0  0  0  0  0  0  0  0  0  0
   -4.3734   -1.8586    1.3106 C   0  0  1  0  0  0  0  0  0  0  0  0
   -5.6289   -2.2099    0.7244 O   0  0  0  0  0  0  0  0  0  0  0  0
   -3.2220   -1.6209    0.3517 C   0  0  1  0  0  0  0  0  0  0  0  0
   -3.6105   -0.8244   -0.7724 O   0  0  0  0  0  0  0  0  0  0  0  0
   -2.3039   -0.8149    1.2782 C   0  0  2  0  0  0  0  0  0  0  0  0
   -6.0202   -3.5467    0.8556 C   0  0  2  0  0  0  0  0  0  0  0  0
   -7.5386   -3.6513    0.6579 C   0  0  2  0  0  0  0  0  0  0  0  0
   -8.2381   -2.7086    1.5702 N   0  3  0  0  0  0  0  0  0  0  0  0
   -8.0167   -5.0930    0.8586 C   0  0  1  0  0  0  0  0  0  0  0  0
   -7.5724   -5.8988   -0.2249 O   0  0  0  0  0  0  0  0  0  0  0  0
   -7.4929   -5.6707    2.1771 C   0  0  2  0  0  0  0  0  0  0  0  0
   -8.1086   -5.0192    3.2810 O   0  0  0  0  0  0  0  0  0  0  0  0
   -5.9785   -5.4963    2.2482 C   0  0  1  0  0  0  0  0  0  0  0  0
   -5.6435   -4.1019    2.1090 O   0  0  0  0  0  0  0  0  0  0  0  0
   -5.3786   -5.9946    3.5512 C   0  0  0  0  0  0  0  0  0  0  0  0
   -4.1199   -5.2913    3.8844 N   0  3  0  0  0  0  0  0  0  0  0  0
    3.0144    0.2287   -1.2022 C   0  0  0  0  0  0  0  0  0  0  0  0
    2.6769   -1.2502    2.1781 C   0  0  2  0  0  0  0  0  0  0  0  0
    3.3029   -0.1572    3.0411 C   0  0  2  0  0  0  0  0  0  0  0  0
    2.8727   -0.3078    4.4517 N   0  3  0  0  0  0  0  0  0  0  0  0
    2.8876    1.2163    2.5311 C   0  0  1  0  0  0  0  0  0  0  0  0
    3.5370    2.2230    3.2923 O   0  0  0  0  0  0  0  0  0  0  0  0
    3.2623    1.3487    1.0567 C   0  0  2  0  0  0  0  0  0  0  0  0
    2.8160    2.6018    0.5547 O   0  0  0  0  0  0  0  0  0  0  0  0
    3.5115   -1.0951   -1.6418 N   0  3  0  0  0  0  0  0  0  0  0  0
    2.6146    0.2157    0.2630 C   0  0  2  0  0  0  0  0  0  0  0  0
    3.0114   -1.0601    0.8059 O   0  0  0  0  0  0  0  0  0  0  0  0
   -0.2201   -4.9336    0.8355 C   0  0  2  0  0  0  0  0  0  0  0  0
   -0.8348   -6.2799    0.7813 N   0  3  0  0  0  0  0  0  0  0  0  0
    1.0362   -4.9688    1.6984 C   0  0  0  0  0  0  0  0  0  0  0  0
    1.6779   -3.5900    1.7651 C   0  0  2  0  0  0  0  0  0  0  0  0
    2.8675   -3.6917    2.5986 N   0  3  0  0  0  0  0  0  0  0  0  0
    0.6873   -2.5860    2.3501 C   0  0  1  0  0  0  0  0  0  0  0  0
    1.2923   -1.2787    2.3836 O   0  0  0  0  0  0  0  0  0  0  0  0
   -0.5954   -2.5334    1.5087 C   0  0  2  0  0  0  0  0  0  0  0  0
   -1.5468   -1.6580    2.1438 O   0  0  0  0  0  0  0  0  0  0  0  0
   -1.2278   -3.9157    1.3673 C   0  0  1  0  0  0  0  0  0  0  0  0
   -2.3376   -3.8413    0.4822 O   0  0  0  0  0  0  0  0  0  0  0  0
  1  2  1  0  0  0  0
  3  2  1  1  0  0  0
  3  5  1  0  0  0  0
  3  4  1  0  0  0  0
  4  9  1  0  0  0  0
  5  7  1  0  0  0  0
  5  6  1  6  0  0  0
  7  9  1  0  0  0  0
  7  8  1  6  0  0  0
  9 40  1  1  0  0  0
 10  6  1  1  0  0  0
 10 11  1  0  0  0  0
 10 18  1  0  0  0  0
 11 13  1  0  0  0  0
 11 12  1  1  0  0  0
 13 15  1  0  0  0  0
 13 14  1  6  0  0  0
 15 17  1  0  0  0  0
 15 16  1  1  0  0  0
 17 19  1  1  0  0  0
 17 18  1  0  0  0  0
 19 20  1  0  0  0  0
 21 29  1  0  0  0  0
 22 23  1  0  0  0  0
 22 31  1  0  0  0  0
 22 38  1  6  0  0  0
 23 25  1  0  0  0  0
 23 24  1  1  0  0  0
 25 27  1  0  0  0  0
 25 26  1  1  0  0  0
 27 30  1  0  0  0  0
 27 28  1  6  0  0  0
 30 21  1  6  0  0  0
 30 31  1  0  0  0  0
 32 34  1  0  0  0  0
 32 41  1  0  0  0  0
 32 33  1  1  0  0  0
 34 35  1  0  0  0  0
 35 37  1  0  0  0  0
 35 36  1  1  0  0  0
 37 39  1  0  0  0  0
 37 38  1  6  0  0  0
 39 41  1  0  0  0  0
 39 40  1  1  0  0  0
 41 42  1  6  0  0  0
M  CHG  6  12   1  20   1  24   1  29   1  33   1  36   1
M  END
>  <CHROM.1>
169.02139229,-51.73771289,-144.03721549,159.41205084,-151.04252372,179.29782260
170.15178229,71.54634743,81.53209425,-153.30414857,14.69803748,128.45456647
80.48147538,-144.24754583,66.30275119,-165.09334734,74.29464906,85.85019897
-109.80108240,-13.46179422,140.20931001,71.91847595,-1.83147335,-2.30496947
1.64692158,2.74064080,-0.03820403,-3.11329712

>  <Name>
1NEM.B

>  <RI>
0

>  <Rbt.Current_Directory>
/home/itssahil/PROJECTS/Mol_Feturizer/New_Systems/rnas/1nem

>  <Rbt.Executable>
rbdock ($Id: //depot/dev/client3/rdock/2013.1/src/exe/rbdock.cxx#4 $)

>  <Rbt.Library>
libRbt.so (2013.1, Build901 2013/11/27)

>  <Rbt.Parameter_File>
/export/apps/rDock/src/rDock_2013.1_src/data/scripts/dock_solv.prm

>  <Rbt.Receptor>
prm/blind_docking_80.prm

>  <SCORE>
-12.5531

>  <SCORE.INTER>
-50.6036

>  <SCORE.INTER.CONST>
1

>  <SCORE.INTER.POLAR>
-8.99093

>  <SCORE.INTER.ROT>
9

>  <SCORE.INTER.SOLV>
57.9393

>  <SCORE.INTER.VDW>
-32.6791

>  <SCORE.INTER.norm>
-1.20485

>  <SCORE.INTRA>
31.2824

>  <SCORE.INTRA.DIHEDRAL>
26.5695

>  <SCORE.INTRA.DIHEDRAL.0>
22.4324

>  <SCORE.INTRA.POLAR>
0.747514

>  <SCORE.INTRA.POLAR.0>
-1.83749

>  <SCORE.INTRA.REPUL>
0.0366238

>  <SCORE.INTRA.REPUL.0>
0

>  <SCORE.INTRA.SOLV>
-0.202073

>  <SCORE.INTRA.SOLV.lig_0>
-160.638

>  <SCORE.INTRA.VDW>
15.374

>  <SCORE.INTRA.VDW.0>
-7.61953

>  <SCORE.INTRA.norm>
0.74482

>  <SCORE.RESTR>
6.76801

>  <SCORE.RESTR.CAVITY>
6.76801

>  <SCORE.RESTR.norm>
0.161143

>  <SCORE.SYSTEM>
0

>  <SCORE.SYSTEM.CONST>
0

>  <SCORE.SYSTEM.DIHEDRAL>
0

>  <SCORE.SYSTEM.SOLV>
0

>  <SCORE.SYSTEM.norm>
0

>  <SCORE.heavy>
42

>  <SCORE.norm>
-0.298884

>  <RMSD>
9.335

$$$$
1NEM.B
 OpenBabel11021811403D
libRbt.so/2013.1/901 2013/11/27
 42 45  0  0  0  0  0  0  0  0999 V2000
    3.2389    1.0123    4.2496 O   0  0  0  0  0  0  0  0  0  0  0  0
    3.9048   -0.1732    4.6895 C   0  0  0  0  0  0  0  0  0  0  0  0
    5.4230   -0.0995    4.5336 C   0  0  1  0  0  0  0  0  0  0  0  0
    5.7748    0.2984    3.2117 O   0  0  0  0  0  0  0  0  0  0  0  0
    6.0998    0.9487    5.4023 C   0  0  1  0  0  0  0  0  0  0  0  0
    6.0623    0.4724    6.7495 O   0  0  0  0  0  0  0  0  0  0  0  0
    7.4599    0.9713    4.7304 C   0  0  1  0  0  0  0  0  0  0  0  0
    8.2011   -0.2297    4.9699 O   0  0  0  0  0  0  0  0  0  0  0  0
    7.0016    1.0265    3.2683 C   0  0  2  0  0  0  0  0  0  0  0  0
    4.8344    0.5834    7.4108 C   0  0  2  0  0  0  0  0  0  0  0  0
    4.3011    2.0136    7.2510 C   0  0  2  0  0  0  0  0  0  0  0  0
    5.3304    2.9938    7.6871 N   0  3  0  0  0  0  0  0  0  0  0  0
    2.9868    2.1944    8.0173 C   0  0  1  0  0  0  0  0  0  0  0  0
    1.9505    1.4722    7.3652 O   0  0  0  0  0  0  0  0  0  0  0  0
    3.1192    1.7092    9.4642 C   0  0  2  0  0  0  0  0  0  0  0  0
    3.9856    2.5674   10.1956 O   0  0  0  0  0  0  0  0  0  0  0  0
    3.6636    0.2836    9.4798 C   0  0  1  0  0  0  0  0  0  0  0  0
    4.9260    0.2386    8.7869 O   0  0  0  0  0  0  0  0  0  0  0  0
    3.8785   -0.2603   10.8812 C   0  0  0  0  0  0  0  0  0  0  0  0
    4.5774   -1.5646   10.8663 N   0  3  0  0  0  0  0  0  0  0  0  0
    5.3651    2.6862   -2.4659 C   0  0  0  0  0  0  0  0  0  0  0  0
    7.2679    1.2047    0.3468 C   0  0  2  0  0  0  0  0  0  0  0  0
    7.7899   -0.0786   -0.2949 C   0  0  2  0  0  0  0  0  0  0  0  0
    8.9431   -0.6045    0.4740 N   0  3  0  0  0  0  0  0  0  0  0  0
    8.2214    0.1904   -1.7303 C   0  0  1  0  0  0  0  0  0  0  0  0
    8.6312   -1.0242   -2.3397 O   0  0  0  0  0  0  0  0  0  0  0  0
    7.0578    0.8018   -2.5076 C   0  0  2  0  0  0  0  0  0  0  0  0
    7.4732    1.1199   -3.8297 O   0  0  0  0  0  0  0  0  0  0  0  0
    4.1795    1.8054   -2.3577 N   0  3  0  0  0  0  0  0  0  0  0  0
    6.5815    2.0682   -1.7987 C   0  0  2  0  0  0  0  0  0  0  0  0
    6.2181    1.7669   -0.4360 O   0  0  0  0  0  0  0  0  0  0  0  0
    8.5315    5.6247    2.8991 C   0  0  2  0  0  0  0  0  0  0  0  0
    8.1779    6.9405    3.4797 N   0  3  0  0  0  0  0  0  0  0  0  0
    8.6922    5.7482    1.3881 C   0  0  0  0  0  0  0  0  0  0  0  0
    9.0539    4.4017    0.7770 C   0  0  2  0  0  0  0  0  0  0  0  0
    9.1938    4.5876   -0.6604 N   0  3  0  0  0  0  0  0  0  0  0  0
    7.9621    3.3814    1.0904 C   0  0  1  0  0  0  0  0  0  0  0  0
    8.3253    2.1033    0.5328 O   0  0  0  0  0  0  0  0  0  0  0  0
    7.7677    3.2402    2.6064 C   0  0  2  0  0  0  0  0  0  0  0  0
    6.6638    2.3519    2.8652 O   0  0  0  0  0  0  0  0  0  0  0  0
    7.4690    4.5875    3.2591 C   0  0  1  0  0  0  0  0  0  0  0  0
    7.4202    4.4302    4.6710 O   0  0  0  0  0  0  0  0  0  0  0  0
  1  2  1  0  0  0  0
  3  2  1  6  0  0  0
  3  5  1  0  0  0  0
  3  4  1  0  0  0  0
  4  9  1  0  0  0  0
  5  7  1  0  0  0  0
  5  6  1  1  0  0  0
  7  9  1  0  0  0  0
  7  8  1  6  0  0  0
  9 40  1  1  0  0  0
 10  6  1  1  0  0  0
 10 11  1  0  0  0  0
 10 18  1  0  0  0  0
 11 13  1  0  0  0  0
 11 12  1  1  0  0  0
 13 15  1  0  0  0  0
 13 14  1  6  0  0  0
 15 17  1  0  0  0  0
 15 16  1  1  0  0  0
 17 19  1  1  0  0  0
 17 18  1  0  0  0  0
 19 20  1  0  0  0  0
 21 29  1  0  0  0  0
 22 23  1  0  0  0  0
 22 31  1  0  0  0  0
 22 38  1  6  0  0  0
 23 25  1  0  0  0  0
 23 24  1  1  0  0  0
 25 27  1  0  0  0  0
 25 26  1  6  0  0  0
 27 30  1  0  0  0  0
 27 28  1  6  0  0  0
 30 21  1  6  0  0  0
 30 31  1  0  0  0  0
 32 34  1  0  0  0  0
 32 41  1  0  0  0  0
 32 33  1  6  0  0  0
 34 35  1  0  0  0  0
 35 37  1  0  0  0  0
 35 36  1  6  0  0  0
 37 39  1  0  0  0  0
 37 38  1  1  0  0  0
 39 41  1  0  0  0  0
 39 40  1  6  0  0  0
 41 42  1  1  0  0  0
M  CHG  6  12   1  20   1  24   1  29   1  33   1  36   1
M  END
>  <CHROM.1>
-58.32532658,-51.08683231,-76.68244053,-49.91897416,56.60007428,-169.36257557
-81.50732409,59.75267621,72.89195857,-172.13733341,161.22230608,65.94534364
172.19140169,177.89791002,-42.19504059,-67.01598664,178.18722108,-178.22809453
-42.79399840,-159.71635434,102.85275068,160.00743339,6.27257830,1.74605788
3.46259302,2.35138217,1.08978495,0.95958692

>  <Name>
1NEM.B

>  <RI>
0

>  <Rbt.Current_Directory>
/home/itssahil/PROJECTS/Mol_Feturizer/New_Systems/rnas/1nem

>  <Rbt.Executable>
rbdock ($Id: //depot/dev/client3/rdock/2013.1/src/exe/rbdock.cxx#4 $)

>  <Rbt.Library>
libRbt.so (2013.1, Build901 2013/11/27)

>  <Rbt.Parameter_File>
/export/apps/rDock/src/rDock_2013.1_src/data/scripts/dock_solv.prm

>  <Rbt.Receptor>
prm/pocket_docking_7.prm

>  <SCORE>
-23.2454

>  <SCORE.INTER>
-26.6853

>  <SCORE.INTER.CONST>
1

>  <SCORE.INTER.POLAR>
-4.14919

>  <SCORE.INTER.ROT>
9

>  <SCORE.INTER.SOLV>
17.2535

>  <SCORE.INTER.VDW>
-19.3107

>  <SCORE.INTER.norm>
-0.635363

>  <SCORE.INTRA>
3.43987

>  <SCORE.INTRA.DIHEDRAL>
-4.62213

>  <SCORE.INTRA.DIHEDRAL.0>
22.4324

>  <SCORE.INTRA.POLAR>
1.00399

>  <SCORE.INTRA.POLAR.0>
-1.83749

>  <SCORE.INTRA.REPUL>
0

>  <SCORE.INTRA.REPUL.0>
0

>  <SCORE.INTRA.SOLV>
-3.73291

>  <SCORE.INTRA.SOLV.lig_0>
-160.638

>  <SCORE.INTRA.VDW>
4.20382

>  <SCORE.INTRA.VDW.0>
-7.61953

>  <SCORE.INTRA.norm>
0.0819016

>  <SCORE.RESTR>
0

>  <SCORE.RESTR.CAVITY>
0

>  <SCORE.RESTR.norm>
0

>  <SCORE.SYSTEM>
0

>  <SCORE.SYSTEM.CONST>
0

>  <SCORE.SYSTEM.DIHEDRAL>
0

>  <SCORE.SYSTEM.SOLV>
0

>  <SCORE.SYSTEM.norm>
0

>  <SCORE.heavy>
42

>  <SCORE.norm>
-0.553462

>  <RMSD>
9.336

$$$$
1NEM.B
 OpenBabel11021811403D
libRbt.so/2013.1/901 2013/11/27
 42 45  0  0  0  0  0  0  0  0999 V2000
   -0.7507    0.2110   -1.6423 O   0  0  0  0  0  0  0  0  0  0  0  0
    0.3342    0.8159   -2.3489 C   0  0  0  0  0  0  0  0  0  0  0  0
    1.1685    1.7524   -1.4763 C   0  0  1  0  0  0  0  0  0  0  0  0
    1.6411    1.0727   -0.3169 O   0  0  0  0  0  0  0  0  0  0  0  0
    2.4469    2.2555   -2.1276 C   0  0  1  0  0  0  0  0  0  0  0  0
    2.0689    3.2029   -3.1290 O   0  0  0  0  0  0  0  0  0  0  0  0
    3.1374    2.8117   -0.8964 C   0  0  1  0  0  0  0  0  0  0  0  0
    2.4946    3.9918   -0.4031 O   0  0  0  0  0  0  0  0  0  0  0  0
    2.8959    1.6390    0.0613 C   0  0  2  0  0  0  0  0  0  0  0  0
    1.0732    4.1180   -2.7702 C   0  0  2  0  0  0  0  0  0  0  0  0
   -0.1921    3.8373   -3.5922 C   0  0  2  0  0  0  0  0  0  0  0  0
    0.1357    3.8153   -5.0422 N   0  3  0  0  0  0  0  0  0  0  0  0
   -1.2868    4.8610   -3.2748 C   0  0  1  0  0  0  0  0  0  0  0  0
   -1.7897    4.6321   -1.9652 O   0  0  0  0  0  0  0  0  0  0  0  0
   -0.7514    6.2926   -3.3767 C   0  0  2  0  0  0  0  0  0  0  0  0
   -0.4562    6.6144   -4.7300 O   0  0  0  0  0  0  0  0  0  0  0  0
    0.5052    6.4326   -2.5222 C   0  0  1  0  0  0  0  0  0  0  0  0
    1.4882    5.4667   -2.9427 O   0  0  0  0  0  0  0  0  0  0  0  0
    1.1366    7.8111   -2.6067 C   0  0  0  0  0  0  0  0  0  0  0  0
    2.0127    8.0894   -1.4471 N   0  3  0  0  0  0  0  0  0  0  0  0
    6.3328    4.8959    2.3258 C   0  0  0  0  0  0  0  0  0  0  0  0
    6.0186    1.5280    0.8140 C   0  0  2  0  0  0  0  0  0  0  0  0
    7.4136    1.3398    0.2227 C   0  0  2  0  0  0  0  0  0  0  0  0
    7.6756   -0.0979   -0.0265 N   0  3  0  0  0  0  0  0  0  0  0  0
    8.4664    1.8862    1.1776 C   0  0  1  0  0  0  0  0  0  0  0  0
    9.7508    1.7762    0.5836 O   0  0  0  0  0  0  0  0  0  0  0  0
    8.1583    3.3476    1.4960 C   0  0  2  0  0  0  0  0  0  0  0  0
    9.0969    3.8452    2.4409 O   0  0  0  0  0  0  0  0  0  0  0  0
    6.8045    5.3668    3.6482 N   0  3  0  0  0  0  0  0  0  0  0  0
    6.7456    3.4575    2.0665 C   0  0  2  0  0  0  0  0  0  0  0  0
    5.7921    2.8964    1.1414 O   0  0  0  0  0  0  0  0  0  0  0  0
    2.5129   -1.8896    2.3755 C   0  0  2  0  0  0  0  0  0  0  0  0
    1.1322   -2.3523    2.6459 N   0  3  0  0  0  0  0  0  0  0  0  0
    3.0873   -1.2119    3.6144 C   0  0  0  0  0  0  0  0  0  0  0  0
    4.5065   -0.7287    3.3501 C   0  0  2  0  0  0  0  0  0  0  0  0
    4.9958   -0.0955    4.5666 N   0  3  0  0  0  0  0  0  0  0  0  0
    4.5087    0.2572    2.1842 C   0  0  1  0  0  0  0  0  0  0  0  0
    5.8586    0.6879    1.9224 O   0  0  0  0  0  0  0  0  0  0  0  0
    3.9260   -0.3920    0.9212 C   0  0  2  0  0  0  0  0  0  0  0  0
    3.8457    0.5923   -0.1273 O   0  0  0  0  0  0  0  0  0  0  0  0
    2.5264   -0.9470    1.1733 C   0  0  1  0  0  0  0  0  0  0  0  0
    2.0779   -1.6452    0.0192 O   0  0  0  0  0  0  0  0  0  0  0  0
  1  2  1  0  0  0  0
  3  2  1  6  0  0  0
  3  5  1  0  0  0  0
  3  4  1  0  0  0  0
  4  9  1  0  0  0  0
  5  7  1  0  0  0  0
  5  6  1  6  0  0  0
  7  9  1  0  0  0  0
  7  8  1  1  0  0  0
  9 40  1  6  0  0  0
 10  6  1  6  0  0  0
 10 11  1  0  0  0  0
 10 18  1  0  0  0  0
 11 13  1  0  0  0  0
 11 12  1  6  0  0  0
 13 15  1  0  0  0  0
 13 14  1  1  0  0  0
 15 17  1  0  0  0  0
 15 16  1  6  0  0  0
 17 19  1  6  0  0  0
 17 18  1  0  0  0  0
 19 20  1  0  0  0  0
 21 29  1  0  0  0  0
 22 23  1  0  0  0  0
 22 31  1  0  0  0  0
 22 38  1  1  0  0  0
 23 25  1  0  0  0  0
 23 24  1  1  0  0  0
 25 27  1  0  0  0  0
 25 26  1  6  0  0  0
 27 30  1  0  0  0  0
 27 28  1  1  0  0  0
 30 21  1  6  0  0  0
 30 31  1  0  0  0  0
 32 34  1  0  0  0  0
 32 41  1  0  0  0  0
 32 33  1  1  0  0  0
 34 35  1  0  0  0  0
 35 37  1  0  0  0  0
 35 36  1  1  0  0  0
 37 39  1  0  0  0  0
 37 38  1  6  0  0  0
 39 41  1  0  0  0  0
 39 40  1  6  0  0  0
 41 42  1  6  0  0  0
M  CHG  6  12   1  20   1  24   1  29   1  33   1  36   1
M  END
>  <CHROM.1>
172.66993958,55.21857314,43.32100944,-112.65856738,66.06960693,-80.43389866
156.47169991,173.33200929,175.64116762,159.08482292,-142.07922572,-84.73236489
73.34688912,-151.15825609,-43.01136619,-163.13244331,165.54964875,-177.09426915
177.15958679,175.81298154,-68.29348287,172.68483285,3.30043842,2.45492016
-0.18928239,2.46315856,-0.46301294,-0.43131093

>  <Name>
1NEM.B

>  <RI>
0

>  <Rbt.Current_Directory>
/home/itssahil/PROJECTS/Mol_Feturizer/New_Systems/rnas/1nem

>  <Rbt.Executable>
rbdock ($Id: //depot/dev/client3/rdock/2013.1/src/exe/rbdock.cxx#4 $)

>  <Rbt.Library>
libRbt.so (2013.1, Build901 2013/11/27)

>  <Rbt.Parameter_File>
/export/apps/rDock/src/rDock_2013.1_src/data/scripts/dock_solv.prm

>  <Rbt.Receptor>
prm/pocket_docking_7.prm

>  <SCORE>
-23.452

>  <SCORE.INTER>
-31.3857

>  <SCORE.INTER.CONST>
1

>  <SCORE.INTER.POLAR>
-5.75103

>  <SCORE.INTER.ROT>
9

>  <SCORE.INTER.SOLV>
29.5818

>  <SCORE.INTER.VDW>
-21.2143

>  <SCORE.INTER.norm>
-0.747278

>  <SCORE.INTRA>
7.93364

>  <SCORE.INTRA.DIHEDRAL>
3.7708

>  <SCORE.INTRA.DIHEDRAL.0>
22.4324

>  <SCORE.INTRA.POLAR>
0.387632

>  <SCORE.INTRA.POLAR.0>
-1.83749

>  <SCORE.INTRA.REPUL>
0

>  <SCORE.INTRA.REPUL.0>
0

>  <SCORE.INTRA.SOLV>
-7.17331

>  <SCORE.INTRA.SOLV.lig_0>
-160.638

>  <SCORE.INTRA.VDW>
8.31695

>  <SCORE.INTRA.VDW.0>
-7.61953

>  <SCORE.INTRA.norm>
0.188896

>  <SCORE.RESTR>
0

>  <SCORE.RESTR.CAVITY>
0

>  <SCORE.RESTR.norm>
0

>  <SCORE.SYSTEM>
0

>  <SCORE.SYSTEM.CONST>
0

>  <SCORE.SYSTEM.DIHEDRAL>
0

>  <SCORE.SYSTEM.SOLV>
0

>  <SCORE.SYSTEM.norm>
0

>  <SCORE.heavy>
42

>  <SCORE.norm>
-0.558381

>  <RMSD>
9.346

$$$$
1NEM.B
 OpenBabel11021811403D
libRbt.so/2013.1/901 2013/11/27
 42 45  0  0  0  0  0  0  0  0999 V2000
    4.0141    4.8153   -2.9773 O   0  0  0  0  0  0  0  0  0  0  0  0
    4.5744    3.8512   -2.0836 C   0  0  0  0  0  0  0  0  0  0  0  0
    3.9576    2.4619   -2.2390 C   0  0  1  0  0  0  0  0  0  0  0  0
    4.6100    1.5233   -1.3886 O   0  0  0  0  0  0  0  0  0  0  0  0
    2.5019    2.3626   -1.8118 C   0  0  1  0  0  0  0  0  0  0  0  0
    1.7218    3.0370   -2.8017 O   0  0  0  0  0  0  0  0  0  0  0  0
    2.3719    0.8518   -1.7618 C   0  0  1  0  0  0  0  0  0  0  0  0
    2.4066    0.2630   -3.0661 O   0  0  0  0  0  0  0  0  0  0  0  0
    3.6631    0.5274   -1.0013 C   0  0  2  0  0  0  0  0  0  0  0  0
    0.7208    3.8901   -2.3247 C   0  0  2  0  0  0  0  0  0  0  0  0
   -0.6440    3.3991   -2.8262 C   0  0  2  0  0  0  0  0  0  0  0  0
   -0.6176    3.2405   -4.3042 N   0  3  0  0  0  0  0  0  0  0  0  0
   -1.7624    4.3457   -2.3784 C   0  0  1  0  0  0  0  0  0  0  0  0
   -1.9584    4.2235   -0.9758 O   0  0  0  0  0  0  0  0  0  0  0  0
   -1.4283    5.7996   -2.7258 C   0  0  2  0  0  0  0  0  0  0  0  0
   -1.4538    5.9891   -4.1349 O   0  0  0  0  0  0  0  0  0  0  0  0
   -0.0490    6.1545   -2.1776 C   0  0  1  0  0  0  0  0  0  0  0  0
    0.9330    5.2428   -2.7072 O   0  0  0  0  0  0  0  0  0  0  0  0
    0.3880    7.5670   -2.5239 C   0  0  0  0  0  0  0  0  0  0  0  0
    1.4664    8.0461   -1.6308 N   0  3  0  0  0  0  0  0  0  0  0  0
    9.4119    2.0307    2.8055 C   0  0  0  0  0  0  0  0  0  0  0  0
    5.8257    1.3753    3.4668 C   0  0  2  0  0  0  0  0  0  0  0  0
    5.2115    2.7312    3.1271 C   0  0  2  0  0  0  0  0  0  0  0  0
    3.7585    2.5868    2.8713 N   0  3  0  0  0  0  0  0  0  0  0  0
    5.8849    3.3182    1.8938 C   0  0  1  0  0  0  0  0  0  0  0  0
    5.3596    4.6111    1.6346 O   0  0  0  0  0  0  0  0  0  0  0  0
    7.3921    3.4001    2.1248 C   0  0  2  0  0  0  0  0  0  0  0  0
    8.0357    3.8825    0.9524 O   0  0  0  0  0  0  0  0  0  0  0  0
    9.6853    2.8118    4.0335 N   0  3  0  0  0  0  0  0  0  0  0  0
    7.9298    2.0137    2.4740 C   0  0  2  0  0  0  0  0  0  0  0  0
    7.2375    1.4888    3.6250 O   0  0  0  0  0  0  0  0  0  0  0  0
    2.3078   -2.3741    2.2389 C   0  0  2  0  0  0  0  0  0  0  0  0
    0.9575   -2.9710    2.3557 N   0  3  0  0  0  0  0  0  0  0  0  0
    2.8170   -1.9635    3.6159 C   0  0  0  0  0  0  0  0  0  0  0  0
    4.2043   -1.3458    3.5109 C   0  0  2  0  0  0  0  0  0  0  0  0
    4.6318   -0.9786    4.8535 N   0  3  0  0  0  0  0  0  0  0  0  0
    4.1577   -0.1211    2.6002 C   0  0  1  0  0  0  0  0  0  0  0  0
    5.4795    0.4408    2.4835 O   0  0  0  0  0  0  0  0  0  0  0  0
    3.6388   -0.4989    1.2058 C   0  0  2  0  0  0  0  0  0  0  0  0
    3.5083    0.6922    0.4066 O   0  0  0  0  0  0  0  0  0  0  0  0
    2.2760   -1.1824    1.2833 C   0  0  1  0  0  0  0  0  0  0  0  0
    1.8926   -1.6245   -0.0121 O   0  0  0  0  0  0  0  0  0  0  0  0
  1  2  1  0  0  0  0
  3  2  1  1  0  0  0
  3  5  1  0  0  0  0
  3  4  1  0  0  0  0
  4  9  1  0  0  0  0
  5  7  1  0  0  0  0
  5  6  1  6  0  0  0
  7  9  1  0  0  0  0
  7  8  1  6  0  0  0
  9 40  1  1  0  0  0
 10  6  1  6  0  0  0
 10 11  1  0  0  0  0
 10 18  1  0  0  0  0
 11 13  1  0  0  0  0
 11 12  1  6  0  0  0
 13 15  1  0  0  0  0
 13 14  1  1  0  0  0
 15 17  1  0  0  0  0
 15 16  1  6  0  0  0
 17 19  1  6  0  0  0
 17 18  1  0  0  0  0
 19 20  1  0  0  0  0
 21 29  1  0  0  0  0
 22 23  1  0  0  0  0
 22 31  1  0  0  0  0
 22 38  1  6  0  0  0
 23 25  1  0  0  0  0
 23 24  1  6  0  0  0
 25 27  1  0  0  0  0
 25 26  1  1  0  0  0
 27 30  1  0  0  0  0
 27 28  1  6  0  0  0
 30 21  1  1  0  0  0
 30 31  1  0  0  0  0
 32 34  1  0  0  0  0
 32 41  1  0  0  0  0
 32 33  1  1  0  0  0
 34 35  1  0  0  0  0
 35 37  1  0  0  0  0
 35 36  1  1  0  0  0
 37 39  1  0  0  0  0
 37 38  1  6  0  0  0
 39 41  1  0  0  0  0
 39 40  1  6  0  0  0
 41 42  1  6  0  0  0
M  CHG  6  12   1  20   1  24   1  29   1  33   1  36   1
M  END
>  <CHROM.1>
56.16156626,176.23409744,-135.38577013,-119.33825199,-65.14324032,-129.64424793
-48.21598487,-135.12007897,-91.05789037,160.46754492,-19.88208999,64.86817273
-57.06759670,-79.85302804,-75.78740204,-68.26807744,51.77308775,0.22286189
175.39530864,-87.68581214,151.28354214,74.58055318,3.25297177,2.31669757
0.11884324,-2.39851222,0.50578606,2.66771848

>  <Name>
1NEM.B

>  <RI>
0

>  <Rbt.Current_Directory>
/home/itssahil/PROJECTS/Mol_Feturizer/New_Systems/rnas/1nem

>  <Rbt.Executable>
rbdock ($Id: //depot/dev/client3/rdock/2013.1/src/exe/rbdock.cxx#4 $)

>  <Rbt.Library>
libRbt.so (2013.1, Build901 2013/11/27)

>  <Rbt.Parameter_File>
/export/apps/rDock/src/rDock_2013.1_src/data/scripts/dock_solv.prm

>  <Rbt.Receptor>
prm/pocket_docking_8.prm

>  <SCORE>
-16.2622

>  <SCORE.INTER>
-30.8402

>  <SCORE.INTER.CONST>
1

>  <SCORE.INTER.POLAR>
-5.11232

>  <SCORE.INTER.ROT>
9

>  <SCORE.INTER.SOLV>
25.9373

>  <SCORE.INTER.VDW>
-21.7648

>  <SCORE.INTER.norm>
-0.73429

>  <SCORE.INTRA>
14.578

>  <SCORE.INTRA.DIHEDRAL>
26.487

>  <SCORE.INTRA.DIHEDRAL.0>
22.4324

>  <SCORE.INTRA.POLAR>
-0.396785

>  <SCORE.INTRA.POLAR.0>
-1.83749

>  <SCORE.INTRA.REPUL>
0

>  <SCORE.INTRA.REPUL.0>
0

>  <SCORE.INTRA.SOLV>
-1.35769

>  <SCORE.INTRA.SOLV.lig_0>
-160.638

>  <SCORE.INTRA.VDW>
3.36239

>  <SCORE.INTRA.VDW.0>
-7.61953

>  <SCORE.INTRA.norm>
0.347095

>  <SCORE.RESTR>
0

>  <SCORE.RESTR.CAVITY>
0

>  <SCORE.RESTR.norm>
0

>  <SCORE.SYSTEM>
0

>  <SCORE.SYSTEM.CONST>
0

>  <SCORE.SYSTEM.DIHEDRAL>
0

>  <SCORE.SYSTEM.SOLV>
0

>  <SCORE.SYSTEM.norm>
0

>  <SCORE.heavy>
42

>  <SCORE.norm>
-0.387195

>  <RMSD>
9.353

$$$$
1NEM.B
 OpenBabel11021811403D
libRbt.so/2013.1/901 2013/11/27
 42 45  0  0  0  0  0  0  0  0999 V2000
   -3.1443   -4.6244    6.1833 O   0  0  0  0  0  0  0  0  0  0  0  0
   -3.8684   -4.8276    4.9681 C   0  0  0  0  0  0  0  0  0  0  0  0
   -4.6072   -3.5764    4.4955 C   0  0  1  0  0  0  0  0  0  0  0  0
   -3.7049   -2.4836    4.3501 O   0  0  0  0  0  0  0  0  0  0  0  0
   -5.2345   -3.6933    3.1155 C   0  0  1  0  0  0  0  0  0  0  0  0
   -6.3666   -4.5578    3.2354 O   0  0  0  0  0  0  0  0  0  0  0  0
   -5.5274   -2.2262    2.8630 C   0  0  1  0  0  0  0  0  0  0  0  0
   -6.5807   -1.7340    3.6981 O   0  0  0  0  0  0  0  0  0  0  0  0
   -4.1831   -1.6362    3.3053 C   0  0  2  0  0  0  0  0  0  0  0  0
   -6.8170   -5.1546    2.0529 C   0  0  2  0  0  0  0  0  0  0  0  0
   -7.0176   -4.0716    0.9841 C   0  0  2  0  0  0  0  0  0  0  0  0
   -7.8975   -2.9940    1.5084 N   0  3  0  0  0  0  0  0  0  0  0  0
   -7.5736   -4.6776   -0.3086 C   0  0  1  0  0  0  0  0  0  0  0  0
   -6.5692   -5.4611   -0.9394 O   0  0  0  0  0  0  0  0  0  0  0  0
   -8.8028   -5.5473   -0.0276 C   0  0  2  0  0  0  0  0  0  0  0  0
   -9.8951   -4.7384    0.3904 O   0  0  0  0  0  0  0  0  0  0  0  0
   -8.4702   -6.5720    1.0533 C   0  0  1  0  0  0  0  0  0  0  0  0
   -8.0162   -5.8946    2.2411 O   0  0  0  0  0  0  0  0  0  0  0  0
   -9.6525   -7.4454    1.4349 C   0  0  0  0  0  0  0  0  0  0  0  0
   -9.9989   -8.4052    0.3632 N   0  3  0  0  0  0  0  0  0  0  0  0
    3.6266   -0.4589    1.8715 C   0  0  0  0  0  0  0  0  0  0  0  0
    0.4825   -1.8695    0.5107 C   0  0  2  0  0  0  0  0  0  0  0  0
    0.6755   -3.3553    0.8041 C   0  0  2  0  0  0  0  0  0  0  0  0
   -0.6292   -4.0583    0.7731 N   0  3  0  0  0  0  0  0  0  0  0  0
    1.3160   -3.5409    2.1732 C   0  0  1  0  0  0  0  0  0  0  0  0
    1.5611   -4.9203    2.4011 O   0  0  0  0  0  0  0  0  0  0  0  0
    2.6252   -2.7574    2.2354 C   0  0  2  0  0  0  0  0  0  0  0  0
    3.1948   -2.8692    3.5333 O   0  0  0  0  0  0  0  0  0  0  0  0
    4.3067   -0.5769    0.5613 N   0  3  0  0  0  0  0  0  0  0  0  0
    2.3550   -1.2882    1.9163 C   0  0  2  0  0  0  0  0  0  0  0  0
    1.7183   -1.1695    0.6278 O   0  0  0  0  0  0  0  0  0  0  0  0
   -3.4897    1.5020    0.3528 C   0  0  2  0  0  0  0  0  0  0  0  0
   -4.6492    2.1326   -0.3189 N   0  3  0  0  0  0  0  0  0  0  0  0
   -2.4004    1.1936   -0.6682 C   0  0  0  0  0  0  0  0  0  0  0  0
   -1.2022    0.5425    0.0083 C   0  0  2  0  0  0  0  0  0  0  0  0
   -0.2021    0.2762   -1.0160 N   0  3  0  0  0  0  0  0  0  0  0  0
   -1.6354   -0.7502    0.6956 C   0  0  1  0  0  0  0  0  0  0  0  0
   -0.5019   -1.3454    1.3570 O   0  0  0  0  0  0  0  0  0  0  0  0
   -2.7406   -0.4757    1.7249 C   0  0  2  0  0  0  0  0  0  0  0  0
   -3.1983   -1.7245    2.2779 O   0  0  0  0  0  0  0  0  0  0  0  0
   -3.9309    0.2383    1.0893 C   0  0  1  0  0  0  0  0  0  0  0  0
   -4.8716    0.5822    2.0979 O   0  0  0  0  0  0  0  0  0  0  0  0
  1  2  1  0  0  0  0
  3  2  1  6  0  0  0
  3  5  1  0  0  0  0
  3  4  1  0  0  0  0
  4  9  1  0  0  0  0
  5  7  1  0  0  0  0
  5  6  1  1  0  0  0
  7  9  1  0  0  0  0
  7  8  1  1  0  0  0
  9 40  1  6  0  0  0
 10  6  1  1  0  0  0
 10 11  1  0  0  0  0
 10 18  1  0  0  0  0
 11 13  1  0  0  0  0
 11 12  1  1  0  0  0
 13 15  1  0  0  0  0
 13 14  1  1  0  0  0
 15 17  1  0  0  0  0
 15 16  1  1  0  0  0
 17 19  1  1  0  0  0
 17 18  1  0  0  0  0
 19 20  1  0  0  0  0
 21 29  1  0  0  0  0
 22 23  1  0  0  0  0
 22 31  1  0  0  0  0
 22 38  1  1  0  0  0
 23 25  1  0  0  0  0
 23 24  1  1  0  0  0
 25 27  1  0  0  0  0
 25 26  1  6  0  0  0
 27 30  1  0  0  0  0
 27 28  1  1  0  0  0
 30 21  1  6  0  0  0
 30 31  1  0  0  0  0
 32 34  1  0  0  0  0
 32 41  1  0  0  0  0
 32 33  1  6  0  0  0
 34 35  1  0  0  0  0
 35 37  1  0  0  0  0
 35 36  1  6  0  0  0
 37 39  1  0  0  0  0
 37 38  1  1  0  0  0
 39 41  1  0  0  0  0
 39 40  1  6  0  0  0
 41 42  1  1  0  0  0
M  CHG  6  12   1  20   1  24   1  29   1  33   1  36   1
M  END
>  <CHROM.1>
70.48134946,55.97392766,-159.35312800,-51.48177415,176.49443635,-131.54180971
-95.63869249,-110.93488167,70.76055023,71.12987734,-71.01989888,82.39001537
-65.79489095,-121.54113626,6.03494723,-75.00595054,171.21239961,65.43002470
43.99350573,-69.50815397,176.90235510,-50.27154634,-3.37971798,-2.75045205
1.66699018,-2.78162499,-0.16095131,-0.41557116

>  <Name>
1NEM.B

>  <RI>
0

>  <Rbt.Current_Directory>
/home/itssahil/PROJECTS/Mol_Feturizer/New_Systems/rnas/1nem

>  <Rbt.Executable>
rbdock ($Id: //depot/dev/client3/rdock/2013.1/src/exe/rbdock.cxx#4 $)

>  <Rbt.Library>
libRbt.so (2013.1, Build901 2013/11/27)

>  <Rbt.Parameter_File>
/export/apps/rDock/src/rDock_2013.1_src/data/scripts/dock_solv.prm

>  <Rbt.Receptor>
prm/blind_docking_80.prm

>  <SCORE>
-35.6427

>  <SCORE.INTER>
-52.2025

>  <SCORE.INTER.CONST>
1

>  <SCORE.INTER.POLAR>
-7.07771

>  <SCORE.INTER.ROT>
9

>  <SCORE.INTER.SOLV>
45.1029

>  <SCORE.INTER.VDW>
-35.8436

>  <SCORE.INTER.norm>
-1.24292

>  <SCORE.INTRA>
14.1839

>  <SCORE.INTRA.DIHEDRAL>
13.3907

>  <SCORE.INTRA.DIHEDRAL.0>
22.4324

>  <SCORE.INTRA.POLAR>
-0.0539637

>  <SCORE.INTRA.POLAR.0>
-1.83749

>  <SCORE.INTRA.REPUL>
0

>  <SCORE.INTRA.REPUL.0>
0

>  <SCORE.INTRA.SOLV>
-0.118027

>  <SCORE.INTRA.SOLV.lig_0>
-160.638

>  <SCORE.INTRA.VDW>
7.73102

>  <SCORE.INTRA.VDW.0>
-7.61953

>  <SCORE.INTRA.norm>
0.337711

>  <SCORE.RESTR>
2.37598

>  <SCORE.RESTR.CAVITY>
2.37598

>  <SCORE.RESTR.norm>
0.0565708

>  <SCORE.SYSTEM>
0

>  <SCORE.SYSTEM.CONST>
0

>  <SCORE.SYSTEM.DIHEDRAL>
0

>  <SCORE.SYSTEM.SOLV>
0

>  <SCORE.SYSTEM.norm>
0

>  <SCORE.heavy>
42

>  <SCORE.norm>
-0.848636

>  <RMSD>
9.354

$$$$
1NEM.B
 OpenBabel11021811403D
libRbt.so/2013.1/901 2013/11/27
 42 45  0  0  0  0  0  0  0  0999 V2000
   -6.5289   -2.6167    0.2981 O   0  0  0  0  0  0  0  0  0  0  0  0
   -5.1972   -2.9557   -0.0939 C   0  0  0  0  0  0  0  0  0  0  0  0
   -4.3837   -3.5873    1.0348 C   0  0  1  0  0  0  0  0  0  0  0  0
   -3.0049   -3.6577    0.6833 O   0  0  0  0  0  0  0  0  0  0  0  0
   -4.3706   -2.7910    2.3299 C   0  0  1  0  0  0  0  0  0  0  0  0
   -5.6650   -2.9218    2.9220 O   0  0  0  0  0  0  0  0  0  0  0  0
   -3.2297   -3.5015    3.0337 C   0  0  1  0  0  0  0  0  0  0  0  0
   -3.5836   -4.8306    3.4305 O   0  0  0  0  0  0  0  0  0  0  0  0
   -2.2266   -3.5456    1.8750 C   0  0  2  0  0  0  0  0  0  0  0  0
   -5.9101   -4.1115    3.6162 C   0  0  2  0  0  0  0  0  0  0  0  0
   -6.5345   -5.1362    2.6595 C   0  0  2  0  0  0  0  0  0  0  0  0
   -7.7274   -4.5511    1.9926 N   0  3  0  0  0  0  0  0  0  0  0  0
   -6.8785   -6.4334    3.3986 C   0  0  1  0  0  0  0  0  0  0  0  0
   -5.6817   -7.1182    3.7440 O   0  0  0  0  0  0  0  0  0  0  0  0
   -7.6917   -6.1491    4.6652 C   0  0  2  0  0  0  0  0  0  0  0  0
   -8.9876   -5.6736    4.3238 O   0  0  0  0  0  0  0  0  0  0  0  0
   -6.9656   -5.1138    5.5196 C   0  0  1  0  0  0  0  0  0  0  0  0
   -6.7464   -3.9162    4.7491 O   0  0  0  0  0  0  0  0  0  0  0  0
   -7.7299   -4.7304    6.7746 C   0  0  0  0  0  0  0  0  0  0  0  0
   -7.0065   -3.7165    7.5737 N   0  3  0  0  0  0  0  0  0  0  0  0
    1.7138    2.1008   -2.7682 C   0  0  0  0  0  0  0  0  0  0  0  0
   -0.1838    1.1308    0.2626 C   0  0  2  0  0  0  0  0  0  0  0  0
   -1.5445    1.7589   -0.0289 C   0  0  2  0  0  0  0  0  0  0  0  0
   -2.5919    1.1252    0.8072 N   0  3  0  0  0  0  0  0  0  0  0  0
   -1.8990    1.5840   -1.4996 C   0  0  1  0  0  0  0  0  0  0  0  0
   -3.1280    2.2388   -1.7741 O   0  0  0  0  0  0  0  0  0  0  0  0
   -0.7866    2.1697   -2.3664 C   0  0  2  0  0  0  0  0  0  0  0  0
   -1.0770    1.9488   -3.7406 O   0  0  0  0  0  0  0  0  0  0  0  0
    1.6568    1.7599   -4.2081 N   0  3  0  0  0  0  0  0  0  0  0  0
    0.5415    1.5059   -2.0075 C   0  0  2  0  0  0  0  0  0  0  0  0
    0.8137    1.6698   -0.6009 O   0  0  0  0  0  0  0  0  0  0  0  0
    2.1172   -3.3029    1.9109 C   0  0  2  0  0  0  0  0  0  0  0  0
    2.8669   -4.0803    2.9243 N   0  3  0  0  0  0  0  0  0  0  0  0
    2.6846   -1.8914    1.8124 C   0  0  0  0  0  0  0  0  0  0  0  0
    1.9216   -1.0794    0.7753 C   0  0  2  0  0  0  0  0  0  0  0  0
    2.5108    0.2513    0.7290 N   0  3  0  0  0  0  0  0  0  0  0  0
    0.4451   -1.0082    1.1580 C   0  0  1  0  0  0  0  0  0  0  0  0
   -0.2747   -0.2623    0.1571 O   0  0  0  0  0  0  0  0  0  0  0  0
   -0.1554   -2.4159    1.2756 C   0  0  2  0  0  0  0  0  0  0  0  0
   -1.5159   -2.3170    1.7381 O   0  0  0  0  0  0  0  0  0  0  0  0
    0.6302   -3.2778    2.2608 C   0  0  1  0  0  0  0  0  0  0  0  0
    0.1176   -4.6035    2.2448 O   0  0  0  0  0  0  0  0  0  0  0  0
  1  2  1  0  0  0  0
  3  2  1  6  0  0  0
  3  5  1  0  0  0  0
  3  4  1  0  0  0  0
  4  9  1  0  0  0  0
  5  7  1  0  0  0  0
  5  6  1  1  0  0  0
  7  9  1  0  0  0  0
  7  8  1  6  0  0  0
  9 40  1  6  0  0  0
 10  6  1  6  0  0  0
 10 11  1  0  0  0  0
 10 18  1  0  0  0  0
 11 13  1  0  0  0  0
 11 12  1  1  0  0  0
 13 15  1  0  0  0  0
 13 14  1  1  0  0  0
 15 17  1  0  0  0  0
 15 16  1  6  0  0  0
 17 19  1  1  0  0  0
 17 18  1  0  0  0  0
 19 20  1  0  0  0  0
 21 29  1  0  0  0  0
 22 23  1  0  0  0  0
 22 31  1  0  0  0  0
 22 38  1  6  0  0  0
 23 25  1  0  0  0  0
 23 24  1  1  0  0  0
 25 27  1  0  0  0  0
 25 26  1  1  0  0  0
 27 30  1  0  0  0  0
 27 28  1  6  0  0  0
 30 21  1  6  0  0  0
 30 31  1  0  0  0  0
 32 34  1  0  0  0  0
 32 41  1  0  0  0  0
 32 33  1  1  0  0  0
 34 35  1  0  0  0  0
 35 37  1  0  0  0  0
 35 36  1  1  0  0  0
 37 39  1  0  0  0  0
 37 38  1  6  0  0  0
 39 41  1  0  0  0  0
 39 40  1  1  0  0  0
 41 42  1  6  0  0  0
M  CHG  6  12   1  20   1  24   1  29   1  33   1  36   1
M  END
>  <CHROM.1>
165.04391900,-168.31850694,79.53397851,-91.72657420,-177.81017465,-98.41598006
-67.31473922,168.57319244,171.15050191,-179.44413064,-50.15200652,-69.37985177
39.69088198,-139.44813225,-46.07457751,-170.19523472,62.61098102,67.66252467
174.70327070,-80.47912184,178.79848192,64.59815719,-2.67872013,-2.18987835
1.50954954,2.32381497,0.01179798,2.38146462

>  <Name>
1NEM.B

>  <RI>
0

>  <Rbt.Current_Directory>
/home/itssahil/PROJECTS/Mol_Feturizer/New_Systems/rnas/1nem

>  <Rbt.Executable>
rbdock ($Id: //depot/dev/client3/rdock/2013.1/src/exe/rbdock.cxx#4 $)

>  <Rbt.Library>
libRbt.so (2013.1, Build901 2013/11/27)

>  <Rbt.Parameter_File>
/export/apps/rDock/src/rDock_2013.1_src/data/scripts/dock_solv.prm

>  <Rbt.Receptor>
prm/pocket_docking_7.prm

>  <SCORE>
-35.1426

>  <SCORE.INTER>
-40.2651

>  <SCORE.INTER.CONST>
1

>  <SCORE.INTER.POLAR>
-6.62733

>  <SCORE.INTER.ROT>
9

>  <SCORE.INTER.SOLV>
31.8028

>  <SCORE.INTER.VDW>
-24.9533

>  <SCORE.INTER.norm>
-0.958694

>  <SCORE.INTRA>
4.90228

>  <SCORE.INTRA.DIHEDRAL>
1.77661

>  <SCORE.INTRA.DIHEDRAL.0>
22.4324

>  <SCORE.INTRA.POLAR>
-2.0974

>  <SCORE.INTRA.POLAR.0>
-1.83749

>  <SCORE.INTRA.REPUL>
0.468962

>  <SCORE.INTRA.REPUL.0>
0

>  <SCORE.INTRA.SOLV>
1.64757

>  <SCORE.INTRA.SOLV.lig_0>
-160.638

>  <SCORE.INTRA.VDW>
7.97655

>  <SCORE.INTRA.VDW.0>
-7.61953

>  <SCORE.INTRA.norm>
0.116721

>  <SCORE.RESTR>
0.220295

>  <SCORE.RESTR.CAVITY>
0.220295

>  <SCORE.RESTR.norm>
0.00524512

>  <SCORE.SYSTEM>
0

>  <SCORE.SYSTEM.CONST>
0

>  <SCORE.SYSTEM.DIHEDRAL>
0

>  <SCORE.SYSTEM.SOLV>
0

>  <SCORE.SYSTEM.norm>
0

>  <SCORE.heavy>
42

>  <SCORE.norm>
-0.836728

>  <RMSD>
9.365

$$$$
1NEM.B
 OpenBabel11021811403D
libRbt.so/2013.1/901 2013/11/27
 42 45  0  0  0  0  0  0  0  0999 V2000
   -3.1293   -4.7232    4.8860 O   0  0  0  0  0  0  0  0  0  0  0  0
   -4.3579   -4.2960    5.4777 C   0  0  0  0  0  0  0  0  0  0  0  0
   -4.9980   -3.1187    4.7436 C   0  0  1  0  0  0  0  0  0  0  0  0
   -4.0604   -2.0591    4.5772 O   0  0  0  0  0  0  0  0  0  0  0  0
   -5.4351   -3.4212    3.3192 C   0  0  1  0  0  0  0  0  0  0  0  0
   -6.5917   -4.2573    3.3983 O   0  0  0  0  0  0  0  0  0  0  0  0
   -5.6586   -2.0014    2.8332 C   0  0  1  0  0  0  0  0  0  0  0  0
   -6.8042   -1.3960    3.4417 O   0  0  0  0  0  0  0  0  0  0  0  0
   -4.3739   -1.3610    3.3718 C   0  0  2  0  0  0  0  0  0  0  0  0
   -6.9252   -4.9630    2.2373 C   0  0  2  0  0  0  0  0  0  0  0  0
   -7.0033   -3.9862    1.0561 C   0  0  2  0  0  0  0  0  0  0  0  0
   -7.9202   -2.8625    1.3830 N   0  3  0  0  0  0  0  0  0  0  0  0
   -7.4306   -4.7114   -0.2240 C   0  0  1  0  0  0  0  0  0  0  0  0
   -6.3757   -5.5527   -0.6712 O   0  0  0  0  0  0  0  0  0  0  0  0
   -8.6918   -5.5488    0.0096 C   0  0  2  0  0  0  0  0  0  0  0  0
   -9.8120   -4.7024    0.2346 O   0  0  0  0  0  0  0  0  0  0  0  0
   -8.4831   -6.4667    1.2108 C   0  0  1  0  0  0  0  0  0  0  0  0
   -8.1456   -5.6802    2.3698 O   0  0  0  0  0  0  0  0  0  0  0  0
   -9.7079   -7.2982    1.5492 C   0  0  0  0  0  0  0  0  0  0  0  0
  -10.0177   -8.2824    0.4884 N   0  3  0  0  0  0  0  0  0  0  0  0
    3.4890   -0.4012    0.8631 C   0  0  0  0  0  0  0  0  0  0  0  0
    0.2918   -2.2673    0.7114 C   0  0  2  0  0  0  0  0  0  0  0  0
    0.6662   -3.5523    1.4459 C   0  0  2  0  0  0  0  0  0  0  0  0
   -0.5550   -4.2504    1.9138 N   0  3  0  0  0  0  0  0  0  0  0  0
    1.5542   -3.2337    2.6413 C   0  0  1  0  0  0  0  0  0  0  0  0
    1.9584   -4.4408    3.2692 O   0  0  0  0  0  0  0  0  0  0  0  0
    2.7781   -2.4492    2.1740 C   0  0  2  0  0  0  0  0  0  0  0  0
    3.5775   -2.0879    3.2930 O   0  0  0  0  0  0  0  0  0  0  0  0
    4.4831   -0.0623    1.9070 N   0  3  0  0  0  0  0  0  0  0  0  0
    2.3251   -1.1904    1.4369 C   0  0  2  0  0  0  0  0  0  0  0  0
    1.4611   -1.5434    0.3375 O   0  0  0  0  0  0  0  0  0  0  0  0
   -3.3676    1.4541    0.2949 C   0  0  2  0  0  0  0  0  0  0  0  0
   -4.4953    2.1041   -0.4115 N   0  3  0  0  0  0  0  0  0  0  0  0
   -2.3301    0.9719   -0.7126 C   0  0  0  0  0  0  0  0  0  0  0  0
   -1.1652    0.2990   -0.0002 C   0  0  2  0  0  0  0  0  0  0  0  0
   -0.2137   -0.1351   -1.0133 N   0  3  0  0  0  0  0  0  0  0  0  0
   -1.6731   -0.8884    0.8143 C   0  0  1  0  0  0  0  0  0  0  0  0
   -0.5691   -1.5023    1.5075 O   0  0  0  0  0  0  0  0  0  0  0  0
   -2.7287   -0.4379    1.8336 C   0  0  2  0  0  0  0  0  0  0  0  0
   -3.2613   -1.5922    2.5106 O   0  0  0  0  0  0  0  0  0  0  0  0
   -3.8801    0.3006    1.1558 C   0  0  1  0  0  0  0  0  0  0  0  0
   -4.7672    0.8059    2.1448 O   0  0  0  0  0  0  0  0  0  0  0  0
  1  2  1  0  0  0  0
  3  2  1  6  0  0  0
  3  5  1  0  0  0  0
  3  4  1  0  0  0  0
  4  9  1  0  0  0  0
  5  7  1  0  0  0  0
  5  6  1  1  0  0  0
  7  9  1  0  0  0  0
  7  8  1  1  0  0  0
  9 40  1  6  0  0  0
 10  6  1  1  0  0  0
 10 11  1  0  0  0  0
 10 18  1  0  0  0  0
 11 13  1  0  0  0  0
 11 12  1  1  0  0  0
 13 15  1  0  0  0  0
 13 14  1  1  0  0  0
 15 17  1  0  0  0  0
 15 16  1  1  0  0  0
 17 19  1  1  0  0  0
 17 18  1  0  0  0  0
 19 20  1  0  0  0  0
 21 29  1  0  0  0  0
 22 23  1  0  0  0  0
 22 31  1  0  0  0  0
 22 38  1  1  0  0  0
 23 25  1  0  0  0  0
 23 24  1  1  0  0  0
 25 27  1  0  0  0  0
 25 26  1  6  0  0  0
 27 30  1  0  0  0  0
 27 28  1  1  0  0  0
 30 21  1  6  0  0  0
 30 31  1  0  0  0  0
 32 34  1  0  0  0  0
 32 41  1  0  0  0  0
 32 33  1  6  0  0  0
 34 35  1  0  0  0  0
 35 37  1  0  0  0  0
 35 36  1  6  0  0  0
 37 39  1  0  0  0  0
 37 38  1  1  0  0  0
 39 41  1  0  0  0  0
 39 40  1  6  0  0  0
 41 42  1  1  0  0  0
M  CHG  6  12   1  20   1  24   1  29   1  33   1  36   1
M  END
>  <CHROM.1>
51.53911073,-51.97135421,-162.10838993,-52.15666185,59.66769826,-133.19448641
-92.87525711,68.48110729,62.89316955,66.48883921,169.69416854,-55.11406000
-40.39038363,-138.13204539,179.36167939,-50.86441491,120.39861884,57.94827055
44.83854817,-74.58071126,-172.40081057,72.13723408,-3.39401046,-2.65081776
1.76408796,-2.79575038,-0.15598962,-0.39117739

>  <Name>
1NEM.B

>  <RI>
0

>  <Rbt.Current_Directory>
/home/itssahil/PROJECTS/Mol_Feturizer/New_Systems/rnas/1nem

>  <Rbt.Executable>
rbdock ($Id: //depot/dev/client3/rdock/2013.1/src/exe/rbdock.cxx#4 $)

>  <Rbt.Library>
libRbt.so (2013.1, Build901 2013/11/27)

>  <Rbt.Parameter_File>
/export/apps/rDock/src/rDock_2013.1_src/data/scripts/dock_solv.prm

>  <Rbt.Receptor>
prm/blind_docking_60.prm

>  <SCORE>
-42.2095

>  <SCORE.INTER>
-59.4119

>  <SCORE.INTER.CONST>
1

>  <SCORE.INTER.POLAR>
-8.8213

>  <SCORE.INTER.ROT>
9

>  <SCORE.INTER.SOLV>
43.1667

>  <SCORE.INTER.VDW>
-34.1925

>  <SCORE.INTER.norm>
-1.41457

>  <SCORE.INTRA>
14.0399

>  <SCORE.INTRA.DIHEDRAL>
6.56459

>  <SCORE.INTRA.DIHEDRAL.0>
22.4324

>  <SCORE.INTRA.POLAR>
-0.0460728

>  <SCORE.INTRA.POLAR.0>
-1.83749

>  <SCORE.INTRA.REPUL>
0.000317666

>  <SCORE.INTRA.REPUL.0>
0

>  <SCORE.INTRA.SOLV>
3.00654

>  <SCORE.INTRA.SOLV.lig_0>
-160.638

>  <SCORE.INTRA.VDW>
9.40935

>  <SCORE.INTRA.VDW.0>
-7.61953

>  <SCORE.INTRA.norm>
0.334282

>  <SCORE.RESTR>
3.16253

>  <SCORE.RESTR.CAVITY>
3.16253

>  <SCORE.RESTR.norm>
0.0752984

>  <SCORE.SYSTEM>
0

>  <SCORE.SYSTEM.CONST>
0

>  <SCORE.SYSTEM.DIHEDRAL>
0

>  <SCORE.SYSTEM.SOLV>
0

>  <SCORE.SYSTEM.norm>
0

>  <SCORE.heavy>
42

>  <SCORE.norm>
-1.00499

>  <RMSD>
9.372

$$$$
1NEM.B
 OpenBabel11021811403D
libRbt.so/2013.1/901 2013/11/27
 42 45  0  0  0  0  0  0  0  0999 V2000
   -4.7178   -6.4003    4.4215 O   0  0  0  0  0  0  0  0  0  0  0  0
   -4.0800   -5.3222    5.1092 C   0  0  0  0  0  0  0  0  0  0  0  0
   -4.6443   -3.9537    4.7305 C   0  0  1  0  0  0  0  0  0  0  0  0
   -3.6159   -2.9678    4.7291 O   0  0  0  0  0  0  0  0  0  0  0  0
   -5.2080   -3.8679    3.3211 C   0  0  1  0  0  0  0  0  0  0  0  0
   -6.4367   -4.5983    3.3099 O   0  0  0  0  0  0  0  0  0  0  0  0
   -5.3167   -2.3594    3.2006 C   0  0  1  0  0  0  0  0  0  0  0  0
   -6.3485   -1.8234    4.0356 O   0  0  0  0  0  0  0  0  0  0  0  0
   -3.9383   -1.9772    3.7528 C   0  0  2  0  0  0  0  0  0  0  0  0
   -6.8417   -5.1083    2.0717 C   0  0  2  0  0  0  0  0  0  0  0  0
   -6.9937   -3.9525    1.0735 C   0  0  2  0  0  0  0  0  0  0  0  0
   -7.8890   -2.9072    1.6357 N   0  3  0  0  0  0  0  0  0  0  0  0
   -7.4998   -4.4633   -0.2794 C   0  0  1  0  0  0  0  0  0  0  0  0
   -6.4744   -5.2090   -0.9223 O   0  0  0  0  0  0  0  0  0  0  0  0
   -8.7435   -5.3411   -0.1089 C   0  0  2  0  0  0  0  0  0  0  0  0
   -9.8479   -4.5548    0.3201 O   0  0  0  0  0  0  0  0  0  0  0  0
   -8.4599   -6.4406    0.9106 C   0  0  1  0  0  0  0  0  0  0  0  0
   -8.0511   -5.8504    2.1598 O   0  0  0  0  0  0  0  0  0  0  0  0
   -9.6608   -7.3293    1.1830 C   0  0  0  0  0  0  0  0  0  0  0  0
   -9.3674   -8.3556    2.2079 N   0  3  0  0  0  0  0  0  0  0  0  0
    3.1583    0.9797    2.1785 C   0  0  0  0  0  0  0  0  0  0  0  0
    0.8773   -1.7035    1.0276 C   0  0  2  0  0  0  0  0  0  0  0  0
    1.6108   -2.9466    1.5254 C   0  0  2  0  0  0  0  0  0  0  0  0
    0.6806   -4.0988    1.5927 N   0  3  0  0  0  0  0  0  0  0  0  0
    2.1982   -2.6913    2.9070 C   0  0  1  0  0  0  0  0  0  0  0  0
    2.9422   -3.8254    3.3250 O   0  0  0  0  0  0  0  0  0  0  0  0
    3.0999   -1.4598    2.8593 C   0  0  2  0  0  0  0  0  0  0  0  0
    3.5974   -1.1738    4.1601 O   0  0  0  0  0  0  0  0  0  0  0  0
    3.2712    1.7289    3.4509 N   0  3  0  0  0  0  0  0  0  0  0  0
    2.3031   -0.2652    2.3385 C   0  0  2  0  0  0  0  0  0  0  0  0
    1.7406   -0.5697    1.0460 O   0  0  0  0  0  0  0  0  0  0  0  0
   -3.5949    0.7289    0.3529 C   0  0  2  0  0  0  0  0  0  0  0  0
   -4.8137    1.0851   -0.4094 N   0  3  0  0  0  0  0  0  0  0  0  0
   -2.4534    0.4137   -0.6071 C   0  0  0  0  0  0  0  0  0  0  0  0
   -1.1937    0.0434    0.1631 C   0  0  2  0  0  0  0  0  0  0  0  0
   -0.1461   -0.2432   -0.8067 N   0  3  0  0  0  0  0  0  0  0  0  0
   -1.4657   -1.1722    1.0460 C   0  0  1  0  0  0  0  0  0  0  0  0
   -0.2772   -1.4989    1.7925 O   0  0  0  0  0  0  0  0  0  0  0  0
   -2.6187   -0.8910    2.0196 C   0  0  2  0  0  0  0  0  0  0  0  0
   -2.9180   -2.0879    2.7629 O   0  0  0  0  0  0  0  0  0  0  0  0
   -3.8798   -0.4517    1.2798 C   0  0  1  0  0  0  0  0  0  0  0  0
   -4.8785   -0.0837    2.2220 O   0  0  0  0  0  0  0  0  0  0  0  0
  1  2  1  0  0  0  0
  3  2  1  6  0  0  0
  3  5  1  0  0  0  0
  3  4  1  0  0  0  0
  4  9  1  0  0  0  0
  5  7  1  0  0  0  0
  5  6  1  1  0  0  0
  7  9  1  0  0  0  0
  7  8  1  1  0  0  0
  9 40  1  6  0  0  0
 10  6  1  1  0  0  0
 10 11  1  0  0  0  0
 10 18  1  0  0  0  0
 11 13  1  0  0  0  0
 11 12  1  1  0  0  0
 13 15  1  0  0  0  0
 13 14  1  1  0  0  0
 15 17  1  0  0  0  0
 15 16  1  1  0  0  0
 17 19  1  1  0  0  0
 17 18  1  0  0  0  0
 19 20  1  0  0  0  0
 21 29  1  0  0  0  0
 22 23  1  0  0  0  0
 22 31  1  0  0  0  0
 22 38  1  1  0  0  0
 23 25  1  0  0  0  0
 23 24  1  1  0  0  0
 25 27  1  0  0  0  0
 25 26  1  6  0  0  0
 27 30  1  0  0  0  0
 27 28  1  1  0  0  0
 30 21  1  6  0  0  0
 30 31  1  0  0  0  0
 32 34  1  0  0  0  0
 32 41  1  0  0  0  0
 32 33  1  6  0  0  0
 34 35  1  0  0  0  0
 35 37  1  0  0  0  0
 35 36  1  6  0  0  0
 37 39  1  0  0  0  0
 37 38  1  1  0  0  0
 39 41  1  0  0  0  0
 39 40  1  6  0  0  0
 41 42  1  1  0  0  0
M  CHG  6  12   1  20   1  24   1  29   1  33   1  36   1
M  END
>  <CHROM.1>
166.71861989,-145.03582719,-154.93617975,-58.66899355,-38.39301075,-152.43569861
-121.63529738,-143.14214501,-70.93681356,-178.08133604,-55.86114915,-84.80714747
100.55271179,-135.35472707,-139.30776943,79.49688833,169.67602733,57.41443684
151.00097053,-54.86779765,177.64258994,-49.85524746,-3.26880968,-2.70242783
1.99513031,-2.80789805,-0.28637766,-0.56706630

>  <Name>
1NEM.B

>  <RI>
0

>  <Rbt.Current_Directory>
/home/itssahil/PROJECTS/Mol_Feturizer/New_Systems/rnas/1nem

>  <Rbt.Executable>
rbdock ($Id: //depot/dev/client3/rdock/2013.1/src/exe/rbdock.cxx#4 $)

>  <Rbt.Library>
libRbt.so (2013.1, Build901 2013/11/27)

>  <Rbt.Parameter_File>
/export/apps/rDock/src/rDock_2013.1_src/data/scripts/dock_solv.prm

>  <Rbt.Receptor>
prm/blind_docking_80.prm

>  <SCORE>
-33.9089

>  <SCORE.INTER>
-63.9025

>  <SCORE.INTER.CONST>
1

>  <SCORE.INTER.POLAR>
-9.21368

>  <SCORE.INTER.ROT>
9

>  <SCORE.INTER.SOLV>
40.8264

>  <SCORE.INTER.VDW>
-35.0981

>  <SCORE.INTER.norm>
-1.52149

>  <SCORE.INTRA>
25.6014

>  <SCORE.INTRA.DIHEDRAL>
17.1408

>  <SCORE.INTRA.DIHEDRAL.0>
22.4324

>  <SCORE.INTRA.POLAR>
0.872871

>  <SCORE.INTRA.POLAR.0>
-1.83749

>  <SCORE.INTRA.REPUL>
0

>  <SCORE.INTRA.REPUL.0>
0

>  <SCORE.INTRA.SOLV>
0.678917

>  <SCORE.INTRA.SOLV.lig_0>
-160.638

>  <SCORE.INTRA.VDW>
13.7238

>  <SCORE.INTRA.VDW.0>
-7.61953

>  <SCORE.INTRA.norm>
0.609558

>  <SCORE.RESTR>
4.39211

>  <SCORE.RESTR.CAVITY>
4.39211

>  <SCORE.RESTR.norm>
0.104574

>  <SCORE.SYSTEM>
0

>  <SCORE.SYSTEM.CONST>
0

>  <SCORE.SYSTEM.DIHEDRAL>
0

>  <SCORE.SYSTEM.SOLV>
0

>  <SCORE.SYSTEM.norm>
0

>  <SCORE.heavy>
42

>  <SCORE.norm>
-0.807355

>  <RMSD>
9.398

$$$$
1NEM.B
 OpenBabel11021811403D
libRbt.so/2013.1/901 2013/11/27
 42 45  0  0  0  0  0  0  0  0999 V2000
   -4.6872   -6.9926    4.0140 O   0  0  0  0  0  0  0  0  0  0  0  0
   -4.0517   -5.9427    3.2819 C   0  0  0  0  0  0  0  0  0  0  0  0
   -4.3662   -4.5530    3.8338 C   0  0  1  0  0  0  0  0  0  0  0  0
   -3.3487   -3.6246    3.4701 O   0  0  0  0  0  0  0  0  0  0  0  0
   -5.6295   -3.9190    3.2740 C   0  0  1  0  0  0  0  0  0  0  0  0
   -6.7416   -4.6139    3.8429 O   0  0  0  0  0  0  0  0  0  0  0  0
   -5.4090   -2.4940    3.7460 C   0  0  1  0  0  0  0  0  0  0  0  0
   -5.5405   -2.3686    5.1659 O   0  0  0  0  0  0  0  0  0  0  0  0
   -3.9407   -2.3324    3.3352 C   0  0  2  0  0  0  0  0  0  0  0  0
   -7.8365   -4.8256    2.9981 C   0  0  2  0  0  0  0  0  0  0  0  0
   -8.3927   -6.2363    3.2344 C   0  0  2  0  0  0  0  0  0  0  0  0
   -7.3057   -7.2420    3.1035 N   0  3  0  0  0  0  0  0  0  0  0  0
   -9.5547   -6.5312    2.2803 C   0  0  1  0  0  0  0  0  0  0  0  0
  -10.6867   -5.7561    2.6522 O   0  0  0  0  0  0  0  0  0  0  0  0
   -9.1722   -6.2192    0.8302 C   0  0  2  0  0  0  0  0  0  0  0  0
   -8.1941   -7.1420    0.3678 O   0  0  0  0  0  0  0  0  0  0  0  0
   -8.6301   -4.7957    0.7373 C   0  0  1  0  0  0  0  0  0  0  0  0
   -7.5068   -4.6452    1.6270 O   0  0  0  0  0  0  0  0  0  0  0  0
   -8.1741   -4.4183   -0.6611 C   0  0  0  0  0  0  0  0  0  0  0  0
   -6.9533   -3.5823   -0.6373 N   0  3  0  0  0  0  0  0  0  0  0  0
    3.0367   -0.8531    0.5231 C   0  0  0  0  0  0  0  0  0  0  0  0
   -0.1631   -2.7166    0.6488 C   0  0  2  0  0  0  0  0  0  0  0  0
    0.2530   -3.9635    1.4255 C   0  0  2  0  0  0  0  0  0  0  0  0
   -0.9393   -4.6338    1.9969 N   0  3  0  0  0  0  0  0  0  0  0  0
    1.2074   -3.5866    2.5507 C   0  0  1  0  0  0  0  0  0  0  0  0
    1.6472   -4.7611    3.2153 O   0  0  0  0  0  0  0  0  0  0  0  0
    2.4025   -2.8299    1.9751 C   0  0  2  0  0  0  0  0  0  0  0  0
    3.2639   -2.4141    3.0270 O   0  0  0  0  0  0  0  0  0  0  0  0
    4.0284   -0.3600    1.5061 N   0  3  0  0  0  0  0  0  0  0  0  0
    1.9077   -1.6092    1.2016 C   0  0  2  0  0  0  0  0  0  0  0  0
    0.9827   -2.0156    0.1726 O   0  0  0  0  0  0  0  0  0  0  0  0
   -3.4008    1.4459    0.4989 C   0  0  2  0  0  0  0  0  0  0  0  0
   -4.3596    2.3185   -0.2171 N   0  3  0  0  0  0  0  0  0  0  0  0
   -2.2206    1.1145   -0.4074 C   0  0  0  0  0  0  0  0  0  0  0  0
   -1.2272    0.2155    0.3152 C   0  0  2  0  0  0  0  0  0  0  0  0
   -0.1288   -0.0612   -0.5997 N   0  3  0  0  0  0  0  0  0  0  0  0
   -1.9169   -1.0772    0.7448 C   0  0  1  0  0  0  0  0  0  0  0  0
   -0.9776   -1.9100    1.4524 O   0  0  0  0  0  0  0  0  0  0  0  0
   -3.1181   -0.7779    1.6523 C   0  0  2  0  0  0  0  0  0  0  0  0
   -3.8064   -2.0068    1.9534 O   0  0  0  0  0  0  0  0  0  0  0  0
   -4.1019    0.1765    0.9800 C   0  0  1  0  0  0  0  0  0  0  0  0
   -5.1300    0.5226    1.8985 O   0  0  0  0  0  0  0  0  0  0  0  0
  1  2  1  0  0  0  0
  3  2  1  6  0  0  0
  3  5  1  0  0  0  0
  3  4  1  0  0  0  0
  4  9  1  0  0  0  0
  5  7  1  0  0  0  0
  5  6  1  1  0  0  0
  7  9  1  0  0  0  0
  7  8  1  1  0  0  0
  9 40  1  6  0  0  0
 10  6  1  1  0  0  0
 10 11  1  0  0  0  0
 10 18  1  0  0  0  0
 11 13  1  0  0  0  0
 11 12  1  6  0  0  0
 13 15  1  0  0  0  0
 13 14  1  1  0  0  0
 15 17  1  0  0  0  0
 15 16  1  1  0  0  0
 17 19  1  6  0  0  0
 17 18  1  0  0  0  0
 19 20  1  0  0  0  0
 21 29  1  0  0  0  0
 22 23  1  0  0  0  0
 22 31  1  0  0  0  0
 22 38  1  1  0  0  0
 23 25  1  0  0  0  0
 23 24  1  1  0  0  0
 25 27  1  0  0  0  0
 25 26  1  6  0  0  0
 27 30  1  0  0  0  0
 27 28  1  1  0  0  0
 30 21  1  6  0  0  0
 30 31  1  0  0  0  0
 32 34  1  0  0  0  0
 32 41  1  0  0  0  0
 32 33  1  6  0  0  0
 34 35  1  0  0  0  0
 35 37  1  0  0  0  0
 35 36  1  6  0  0  0
 37 39  1  0  0  0  0
 37 38  1  1  0  0  0
 39 41  1  0  0  0  0
 39 40  1  6  0  0  0
 41 42  1  1  0  0  0
M  CHG  6  12   1  20   1  24   1  29   1  33   1  36   1
M  END
>  <CHROM.1>
-164.59509637,156.40417065,-142.36121731,139.54709520,68.60309666,-123.58771929
-156.55466816,-46.64553454,-78.98730704,-142.00752287,165.98754786,-60.15291154
-52.23625343,-152.58184307,179.20143940,51.94749300,-69.03083652,-172.72238732
123.57476590,-84.61981094,122.56808279,69.75199969,-3.52946039,-3.06600739
1.84506333,-2.72494606,-0.09430281,-0.42971879

>  <Name>
1NEM.B

>  <RI>
0

>  <Rbt.Current_Directory>
/home/itssahil/PROJECTS/Mol_Feturizer/New_Systems/rnas/1nem

>  <Rbt.Executable>
rbdock ($Id: //depot/dev/client3/rdock/2013.1/src/exe/rbdock.cxx#4 $)

>  <Rbt.Library>
libRbt.so (2013.1, Build901 2013/11/27)

>  <Rbt.Parameter_File>
/export/apps/rDock/src/rDock_2013.1_src/data/scripts/dock_solv.prm

>  <Rbt.Receptor>
prm/blind_docking_60.prm

>  <SCORE>
-21.3622

>  <SCORE.INTER>
-45.8247

>  <SCORE.INTER.CONST>
1

>  <SCORE.INTER.POLAR>
-8.14425

>  <SCORE.INTER.ROT>
9

>  <SCORE.INTER.SOLV>
41.2617

>  <SCORE.INTER.VDW>
-26.7561

>  <SCORE.INTER.norm>
-1.09106

>  <SCORE.INTRA>
21.492

>  <SCORE.INTRA.DIHEDRAL>
24.3009

>  <SCORE.INTRA.DIHEDRAL.0>
22.4324

>  <SCORE.INTRA.POLAR>
-0.224972

>  <SCORE.INTRA.POLAR.0>
-1.83749

>  <SCORE.INTRA.REPUL>
0.0114057

>  <SCORE.INTRA.REPUL.0>
0

>  <SCORE.INTRA.SOLV>
6.13992

>  <SCORE.INTRA.SOLV.lig_0>
-160.638

>  <SCORE.INTRA.VDW>
6.97945

>  <SCORE.INTRA.VDW.0>
-7.61953

>  <SCORE.INTRA.norm>
0.511714

>  <SCORE.RESTR>
2.97051

>  <SCORE.RESTR.CAVITY>
2.97051

>  <SCORE.RESTR.norm>
0.0707265

>  <SCORE.SYSTEM>
0

>  <SCORE.SYSTEM.CONST>
0

>  <SCORE.SYSTEM.DIHEDRAL>
0

>  <SCORE.SYSTEM.SOLV>
0

>  <SCORE.SYSTEM.norm>
0

>  <SCORE.heavy>
42

>  <SCORE.norm>
-0.508623

>  <RMSD>
9.404

$$$$
1NEM.B
 OpenBabel11021811403D
libRbt.so/2013.1/901 2013/11/27
 42 45  0  0  0  0  0  0  0  0999 V2000
   -3.8235   -4.4435    6.7246 O   0  0  0  0  0  0  0  0  0  0  0  0
   -4.2804   -4.5752    5.3770 C   0  0  0  0  0  0  0  0  0  0  0  0
   -4.8627   -3.2798    4.8134 C   0  0  1  0  0  0  0  0  0  0  0  0
   -3.8459   -2.2929    4.6660 O   0  0  0  0  0  0  0  0  0  0  0  0
   -5.4351   -3.3993    3.4100 C   0  0  1  0  0  0  0  0  0  0  0  0
   -6.6553   -4.1372    3.5105 O   0  0  0  0  0  0  0  0  0  0  0  0
   -5.5620   -1.9241    3.0792 C   0  0  1  0  0  0  0  0  0  0  0  0
   -6.5953   -1.2871    3.8378 O   0  0  0  0  0  0  0  0  0  0  0  0
   -4.1852   -1.4531    3.5623 C   0  0  2  0  0  0  0  0  0  0  0  0
   -7.0264   -4.8753    2.3814 C   0  0  2  0  0  0  0  0  0  0  0  0
   -7.0581   -3.9483    1.1588 C   0  0  2  0  0  0  0  0  0  0  0  0
   -7.9169   -2.7668    1.4363 N   0  3  0  0  0  0  0  0  0  0  0  0
   -7.5242   -4.7063   -0.0884 C   0  0  1  0  0  0  0  0  0  0  0  0
   -6.5138   -5.6181   -0.4986 O   0  0  0  0  0  0  0  0  0  0  0  0
   -8.8251   -5.4685    0.1818 C   0  0  2  0  0  0  0  0  0  0  0  0
   -9.9011   -4.5580    0.3697 O   0  0  0  0  0  0  0  0  0  0  0  0
   -8.6599   -6.3424    1.4218 C   0  0  1  0  0  0  0  0  0  0  0  0
   -8.2808   -5.5239    2.5454 O   0  0  0  0  0  0  0  0  0  0  0  0
   -9.9240   -7.0960    1.7964 C   0  0  0  0  0  0  0  0  0  0  0  0
  -10.3217   -8.0627    0.7490 N   0  3  0  0  0  0  0  0  0  0  0  0
    3.4758    0.0462    1.4448 C   0  0  0  0  0  0  0  0  0  0  0  0
    0.5344   -2.1223    0.8340 C   0  0  2  0  0  0  0  0  0  0  0  0
    1.0011   -3.4342    1.4602 C   0  0  2  0  0  0  0  0  0  0  0  0
   -0.1617   -4.3070    1.7495 N   0  3  0  0  0  0  0  0  0  0  0  0
    1.7587   -3.1587    2.7522 C   0  0  1  0  0  0  0  0  0  0  0  0
    2.2535   -4.3784    3.2832 O   0  0  0  0  0  0  0  0  0  0  0  0
    2.9142   -2.2002    2.4726 C   0  0  2  0  0  0  0  0  0  0  0  0
    3.5844   -1.8835    3.6858 O   0  0  0  0  0  0  0  0  0  0  0  0
    4.3256    0.3977    2.6055 N   0  3  0  0  0  0  0  0  0  0  0  0
    2.3728   -0.9224    1.8345 C   0  0  2  0  0  0  0  0  0  0  0  0
    1.6361   -1.2401    0.6361 O   0  0  0  0  0  0  0  0  0  0  0  0
   -3.3089    1.3326    0.3461 C   0  0  2  0  0  0  0  0  0  0  0  0
   -4.4395    1.9504   -0.3843 N   0  3  0  0  0  0  0  0  0  0  0  0
   -2.2443    0.8657   -0.6402 C   0  0  0  0  0  0  0  0  0  0  0  0
   -1.0761    0.2260    0.0969 C   0  0  2  0  0  0  0  0  0  0  0  0
   -0.0985   -0.1949   -0.8968 N   0  3  0  0  0  0  0  0  0  0  0  0
   -1.5700   -0.9657    0.9138 C   0  0  1  0  0  0  0  0  0  0  0  0
   -0.4637   -1.5480    1.6303 O   0  0  0  0  0  0  0  0  0  0  0  0
   -2.6521   -0.5308    1.9118 C   0  0  2  0  0  0  0  0  0  0  0  0
   -3.1691   -1.6912    2.5906 O   0  0  0  0  0  0  0  0  0  0  0  0
   -3.8089    0.1752    1.2089 C   0  0  1  0  0  0  0  0  0  0  0  0
   -4.7233    0.6685    2.1790 O   0  0  0  0  0  0  0  0  0  0  0  0
  1  2  1  0  0  0  0
  3  2  1  6  0  0  0
  3  5  1  0  0  0  0
  3  4  1  0  0  0  0
  4  9  1  0  0  0  0
  5  7  1  0  0  0  0
  5  6  1  1  0  0  0
  7  9  1  0  0  0  0
  7  8  1  1  0  0  0
  9 40  1  6  0  0  0
 10  6  1  1  0  0  0
 10 11  1  0  0  0  0
 10 18  1  0  0  0  0
 11 13  1  0  0  0  0
 11 12  1  1  0  0  0
 13 15  1  0  0  0  0
 13 14  1  1  0  0  0
 15 17  1  0  0  0  0
 15 16  1  1  0  0  0
 17 19  1  1  0  0  0
 17 18  1  0  0  0  0
 19 20  1  0  0  0  0
 21 29  1  0  0  0  0
 22 23  1  0  0  0  0
 22 31  1  0  0  0  0
 22 38  1  1  0  0  0
 23 25  1  0  0  0  0
 23 24  1  1  0  0  0
 25 27  1  0  0  0  0
 25 26  1  6  0  0  0
 27 30  1  0  0  0  0
 27 28  1  1  0  0  0
 30 21  1  6  0  0  0
 30 31  1  0  0  0  0
 32 34  1  0  0  0  0
 32 41  1  0  0  0  0
 32 33  1  6  0  0  0
 34 35  1  0  0  0  0
 35 37  1  0  0  0  0
 35 36  1  6  0  0  0
 37 39  1  0  0  0  0
 37 38  1  1  0  0  0
 39 41  1  0  0  0  0
 39 40  1  6  0  0  0
 41 42  1  1  0  0  0
M  CHG  6  12   1  20   1  24   1  29   1  33   1  36   1
M  END
>  <CHROM.1>
-50.25806428,67.25573796,-151.81936633,-54.15536895,83.94781777,-137.45758270
25.88992300,57.19304487,-88.41836108,63.72236295,-69.41821269,-56.60103289
172.90817212,-138.94124942,-173.08022775,-60.49436808,41.29257067,-179.97753844
157.88503528,-65.12012434,179.70069221,64.43921561,-3.36749156,-2.59856319
1.97411819,-2.83230887,-0.21735587,-0.55729797

>  <Name>
1NEM.B

>  <RI>
0

>  <Rbt.Current_Directory>
/home/itssahil/PROJECTS/Mol_Feturizer/New_Systems/rnas/1nem

>  <Rbt.Executable>
rbdock ($Id: //depot/dev/client3/rdock/2013.1/src/exe/rbdock.cxx#4 $)

>  <Rbt.Library>
libRbt.so (2013.1, Build901 2013/11/27)

>  <Rbt.Parameter_File>
/export/apps/rDock/src/rDock_2013.1_src/data/scripts/dock_solv.prm

>  <Rbt.Receptor>
prm/blind_docking_40.prm

>  <SCORE>
-47.9034

>  <SCORE.INTER>
-66.4537

>  <SCORE.INTER.CONST>
1

>  <SCORE.INTER.POLAR>
-9.96523

>  <SCORE.INTER.ROT>
9

>  <SCORE.INTER.SOLV>
41.916

>  <SCORE.INTER.VDW>
-34.657

>  <SCORE.INTER.norm>
-1.58223

>  <SCORE.INTRA>
13.7789

>  <SCORE.INTRA.DIHEDRAL>
4.6714

>  <SCORE.INTRA.DIHEDRAL.0>
22.4324

>  <SCORE.INTRA.POLAR>
-0.106436

>  <SCORE.INTRA.POLAR.0>
-1.83749

>  <SCORE.INTRA.REPUL>
0

>  <SCORE.INTRA.REPUL.0>
0

>  <SCORE.INTRA.SOLV>
0.882327

>  <SCORE.INTRA.SOLV.lig_0>
-160.638

>  <SCORE.INTRA.VDW>
11.3639

>  <SCORE.INTRA.VDW.0>
-7.61953

>  <SCORE.INTRA.norm>
0.328069

>  <SCORE.RESTR>
4.77146

>  <SCORE.RESTR.CAVITY>
4.77146

>  <SCORE.RESTR.norm>
0.113606

>  <SCORE.SYSTEM>
0

>  <SCORE.SYSTEM.CONST>
0

>  <SCORE.SYSTEM.DIHEDRAL>
0

>  <SCORE.SYSTEM.SOLV>
0

>  <SCORE.SYSTEM.norm>
0

>  <SCORE.heavy>
42

>  <SCORE.norm>
-1.14056

>  <RMSD>
9.415

$$$$
1NEM.B
 OpenBabel11021811403D
libRbt.so/2013.1/901 2013/11/27
 42 45  0  0  0  0  0  0  0  0999 V2000
   -5.7473   -2.1140   -0.1004 O   0  0  0  0  0  0  0  0  0  0  0  0
   -5.0260   -2.9411   -1.0157 C   0  0  0  0  0  0  0  0  0  0  0  0
   -3.9022   -3.7328   -0.3487 C   0  0  1  0  0  0  0  0  0  0  0  0
   -2.8183   -2.8752   -0.0035 O   0  0  0  0  0  0  0  0  0  0  0  0
   -4.2768   -4.3693    0.9803 C   0  0  1  0  0  0  0  0  0  0  0  0
   -5.1487   -5.4656    0.6953 O   0  0  0  0  0  0  0  0  0  0  0  0
   -2.8864   -4.7217    1.4748 C   0  0  1  0  0  0  0  0  0  0  0  0
   -2.2971   -5.7846    0.7185 O   0  0  0  0  0  0  0  0  0  0  0  0
   -2.1805   -3.3969    1.1626 C   0  0  2  0  0  0  0  0  0  0  0  0
   -6.4794   -5.1398    0.4116 C   0  0  2  0  0  0  0  0  0  0  0  0
   -7.2252   -4.8688    1.7252 C   0  0  2  0  0  0  0  0  0  0  0  0
   -7.0530   -6.0154    2.6558 N   0  3  0  0  0  0  0  0  0  0  0  0
   -8.7048   -4.5715    1.4610 C   0  0  1  0  0  0  0  0  0  0  0  0
   -8.8329   -3.2995    0.8396 O   0  0  0  0  0  0  0  0  0  0  0  0
   -9.3335   -5.6453    0.5677 C   0  0  2  0  0  0  0  0  0  0  0  0
   -9.4206   -6.8805    1.2668 O   0  0  0  0  0  0  0  0  0  0  0  0
   -8.4935   -5.8194   -0.6944 C   0  0  1  0  0  0  0  0  0  0  0  0
   -7.1394   -6.1547   -0.3337 O   0  0  0  0  0  0  0  0  0  0  0  0
   -9.0159   -6.9071   -1.6164 C   0  0  0  0  0  0  0  0  0  0  0  0
   -8.8017   -8.2587   -1.0531 N   0  3  0  0  0  0  0  0  0  0  0  0
    3.5153    1.3114    2.3811 C   0  0  0  0  0  0  0  0  0  0  0  0
    1.3090   -1.2920    0.9382 C   0  0  2  0  0  0  0  0  0  0  0  0
    2.0347   -2.5643    1.3690 C   0  0  2  0  0  0  0  0  0  0  0  0
    1.1142   -3.7248    1.3108 N   0  3  0  0  0  0  0  0  0  0  0  0
    2.5642   -2.4113    2.7886 C   0  0  1  0  0  0  0  0  0  0  0  0
    3.3025   -3.5688    3.1486 O   0  0  0  0  0  0  0  0  0  0  0  0
    3.4546   -1.1734    2.8712 C   0  0  2  0  0  0  0  0  0  0  0  0
    3.8973   -0.9843    4.2090 O   0  0  0  0  0  0  0  0  0  0  0  0
    4.6728    1.1655    1.4689 N   0  3  0  0  0  0  0  0  0  0  0  0
    2.6671    0.0519    2.4112 C   0  0  2  0  0  0  0  0  0  0  0  0
    2.1593   -0.1568    1.0777 O   0  0  0  0  0  0  0  0  0  0  0  0
   -3.4673    0.7441    0.4254 C   0  0  2  0  0  0  0  0  0  0  0  0
   -4.6798    1.0594   -0.3644 N   0  3  0  0  0  0  0  0  0  0  0  0
   -2.2257    0.8829   -0.4483 C   0  0  0  0  0  0  0  0  0  0  0  0
   -0.9709    0.5593    0.3504 C   0  0  2  0  0  0  0  0  0  0  0  0
    0.1738    0.7113   -0.5366 N   0  3  0  0  0  0  0  0  0  0  0  0
   -1.0551   -0.8660    0.8914 C   0  0  1  0  0  0  0  0  0  0  0  0
    0.1230   -1.1546    1.6693 O   0  0  0  0  0  0  0  0  0  0  0  0
   -2.3021   -1.0425    1.7689 C   0  0  2  0  0  0  0  0  0  0  0  0
   -2.4076   -2.4201    2.1763 O   0  0  0  0  0  0  0  0  0  0  0  0
   -3.5739   -0.6611    1.0155 C   0  0  1  0  0  0  0  0  0  0  0  0
   -4.6850   -0.7201    1.9000 O   0  0  0  0  0  0  0  0  0  0  0  0
  1  2  1  0  0  0  0
  3  2  1  1  0  0  0
  3  5  1  0  0  0  0
  3  4  1  0  0  0  0
  4  9  1  0  0  0  0
  5  7  1  0  0  0  0
  5  6  1  6  0  0  0
  7  9  1  0  0  0  0
  7  8  1  6  0  0  0
  9 40  1  1  0  0  0
 10  6  1  1  0  0  0
 10 11  1  0  0  0  0
 10 18  1  0  0  0  0
 11 13  1  0  0  0  0
 11 12  1  1  0  0  0
 13 15  1  0  0  0  0
 13 14  1  6  0  0  0
 15 17  1  0  0  0  0
 15 16  1  1  0  0  0
 17 19  1  6  0  0  0
 17 18  1  0  0  0  0
 19 20  1  0  0  0  0
 21 29  1  0  0  0  0
 22 23  1  0  0  0  0
 22 31  1  0  0  0  0
 22 38  1  1  0  0  0
 23 25  1  0  0  0  0
 23 24  1  1  0  0  0
 25 27  1  0  0  0  0
 25 26  1  6  0  0  0
 27 30  1  0  0  0  0
 27 28  1  1  0  0  0
 30 21  1  6  0  0  0
 30 31  1  0  0  0  0
 32 34  1  0  0  0  0
 32 41  1  0  0  0  0
 32 33  1  6  0  0  0
 34 35  1  0  0  0  0
 35 37  1  0  0  0  0
 35 36  1  6  0  0  0
 37 39  1  0  0  0  0
 37 38  1  1  0  0  0
 39 41  1  0  0  0  0
 39 40  1  6  0  0  0
 41 42  1  1  0  0  0
M  CHG  6  12   1  20   1  24   1  29   1  33   1  36   1
M  END
>  <CHROM.1>
-172.69553333,-72.56155036,-78.43123814,-79.42542030,101.78121406,-40.11889655
-99.95704272,-163.72699996,66.89783942,-70.95287142,-68.91941760,59.41313317
61.06413833,-131.46672871,86.09296317,65.77058947,-165.97483810,-166.18164221
-74.87461572,-70.54595418,-44.50341577,83.61600114,-2.84176566,-2.76473787
0.99326559,2.73201327,0.24676588,2.93849458

>  <Name>
1NEM.B

>  <RI>
0

>  <Rbt.Current_Directory>
/home/itssahil/PROJECTS/Mol_Feturizer/New_Systems/rnas/1nem

>  <Rbt.Executable>
rbdock ($Id: //depot/dev/client3/rdock/2013.1/src/exe/rbdock.cxx#4 $)

>  <Rbt.Library>
libRbt.so (2013.1, Build901 2013/11/27)

>  <Rbt.Parameter_File>
/export/apps/rDock/src/rDock_2013.1_src/data/scripts/dock_solv.prm

>  <Rbt.Receptor>
prm/blind_docking_80.prm

>  <SCORE>
-38.7257

>  <SCORE.INTER>
-54.5002

>  <SCORE.INTER.CONST>
1

>  <SCORE.INTER.POLAR>
-9.96267

>  <SCORE.INTER.ROT>
9

>  <SCORE.INTER.SOLV>
37.9787

>  <SCORE.INTER.VDW>
-25.3841

>  <SCORE.INTER.norm>
-1.29762

>  <SCORE.INTRA>
11.5587

>  <SCORE.INTRA.DIHEDRAL>
8.08889

>  <SCORE.INTRA.DIHEDRAL.0>
22.4324

>  <SCORE.INTRA.POLAR>
-1.09127

>  <SCORE.INTRA.POLAR.0>
-1.83749

>  <SCORE.INTRA.REPUL>
0

>  <SCORE.INTRA.REPUL.0>
0

>  <SCORE.INTRA.SOLV>
5.94038

>  <SCORE.INTRA.SOLV.lig_0>
-160.638

>  <SCORE.INTRA.VDW>
8.2544

>  <SCORE.INTRA.VDW.0>
-7.61953

>  <SCORE.INTRA.norm>
0.275207

>  <SCORE.RESTR>
4.21575

>  <SCORE.RESTR.CAVITY>
4.21575

>  <SCORE.RESTR.norm>
0.100375

>  <SCORE.SYSTEM>
0

>  <SCORE.SYSTEM.CONST>
0

>  <SCORE.SYSTEM.DIHEDRAL>
0

>  <SCORE.SYSTEM.SOLV>
0

>  <SCORE.SYSTEM.norm>
0

>  <SCORE.heavy>
42

>  <SCORE.norm>
-0.922042

>  <RMSD>
9.434

$$$$
1NEM.B
 OpenBabel11021811403D
libRbt.so/2013.1/901 2013/11/27
 42 45  0  0  0  0  0  0  0  0999 V2000
   -4.3018   -5.0335    2.3202 O   0  0  0  0  0  0  0  0  0  0  0  0
   -5.3571   -4.5343    3.1443 C   0  0  0  0  0  0  0  0  0  0  0  0
   -5.6387   -3.0491    2.9215 C   0  0  1  0  0  0  0  0  0  0  0  0
   -4.4655   -2.2741    3.1507 O   0  0  0  0  0  0  0  0  0  0  0  0
   -6.0226   -2.6829    1.4967 C   0  0  1  0  0  0  0  0  0  0  0  0
   -7.3477   -3.1709    1.2751 O   0  0  0  0  0  0  0  0  0  0  0  0
   -5.8625   -1.1769    1.5875 C   0  0  1  0  0  0  0  0  0  0  0  0
   -6.8747   -0.5740    2.4005 O   0  0  0  0  0  0  0  0  0  0  0  0
   -4.5083   -1.1249    2.3046 C   0  0  2  0  0  0  0  0  0  0  0  0
   -7.4816   -4.5567    1.1376 C   0  0  2  0  0  0  0  0  0  0  0  0
   -8.4181   -4.8603   -0.0398 C   0  0  2  0  0  0  0  0  0  0  0  0
   -9.7009   -4.1275    0.1264 N   0  3  0  0  0  0  0  0  0  0  0  0
   -8.6425   -6.3691   -0.1830 C   0  0  1  0  0  0  0  0  0  0  0  0
   -7.4513   -6.9869   -0.6519 O   0  0  0  0  0  0  0  0  0  0  0  0
   -9.0551   -6.9959    1.1524 C   0  0  2  0  0  0  0  0  0  0  0  0
  -10.3559   -6.5571    1.5231 O   0  0  0  0  0  0  0  0  0  0  0  0
   -8.0482   -6.6112    2.2328 C   0  0  1  0  0  0  0  0  0  0  0  0
   -7.9596   -5.1761    2.3246 O   0  0  0  0  0  0  0  0  0  0  0  0
   -8.4098   -7.1473    3.6068 C   0  0  0  0  0  0  0  0  0  0  0  0
   -8.6581   -6.0578    4.5770 N   0  3  0  0  0  0  0  0  0  0  0  0
    3.5162   -0.3499    1.7923 C   0  0  0  0  0  0  0  0  0  0  0  0
    0.4701   -1.8637    0.3238 C   0  0  2  0  0  0  0  0  0  0  0  0
    0.5985   -3.3074    0.8038 C   0  0  2  0  0  0  0  0  0  0  0  0
   -0.7159   -3.9896    0.7359 N   0  3  0  0  0  0  0  0  0  0  0  0
    1.1102   -3.3401    2.2377 C   0  0  1  0  0  0  0  0  0  0  0  0
    1.2989   -4.6865    2.6452 O   0  0  0  0  0  0  0  0  0  0  0  0
    2.4283   -2.5743    2.3275 C   0  0  2  0  0  0  0  0  0  0  0  0
    2.8776   -2.5411    3.6760 O   0  0  0  0  0  0  0  0  0  0  0  0
    3.3674    0.9453    2.4947 N   0  3  0  0  0  0  0  0  0  0  0  0
    2.2249   -1.1491    1.8171 C   0  0  2  0  0  0  0  0  0  0  0  0
    1.7081   -1.1733    0.4710 O   0  0  0  0  0  0  0  0  0  0  0  0
   -2.9534    2.0173   -0.3431 C   0  0  2  0  0  0  0  0  0  0  0  0
   -3.8814    2.8178   -1.1745 N   0  3  0  0  0  0  0  0  0  0  0  0
   -1.7362    1.6100   -1.1657 C   0  0  0  0  0  0  0  0  0  0  0  0
   -0.7738    0.7840   -0.3238 C   0  0  2  0  0  0  0  0  0  0  0  0
    0.3621    0.4301   -1.1632 N   0  3  0  0  0  0  0  0  0  0  0  0
   -1.4806   -0.4673    0.1919 C   0  0  1  0  0  0  0  0  0  0  0  0
   -0.5718   -1.2290    1.0106 O   0  0  0  0  0  0  0  0  0  0  0  0
   -2.7190   -0.0920    1.0176 C   0  0  2  0  0  0  0  0  0  0  0  0
   -3.4191   -1.2914    1.3996 O   0  0  0  0  0  0  0  0  0  0  0  0
   -3.6738    0.7938    0.2211 C   0  0  1  0  0  0  0  0  0  0  0  0
   -4.7397    1.2175    1.0608 O   0  0  0  0  0  0  0  0  0  0  0  0
  1  2  1  0  0  0  0
  3  2  1  6  0  0  0
  3  5  1  0  0  0  0
  3  4  1  0  0  0  0
  4  9  1  0  0  0  0
  5  7  1  0  0  0  0
  5  6  1  1  0  0  0
  7  9  1  0  0  0  0
  7  8  1  1  0  0  0
  9 40  1  6  0  0  0
 10  6  1  1  0  0  0
 10 11  1  0  0  0  0
 10 18  1  0  0  0  0
 11 13  1  0  0  0  0
 11 12  1  1  0  0  0
 13 15  1  0  0  0  0
 13 14  1  1  0  0  0
 15 17  1  0  0  0  0
 15 16  1  1  0  0  0
 17 19  1  1  0  0  0
 17 18  1  0  0  0  0
 19 20  1  0  0  0  0
 21 29  1  0  0  0  0
 22 23  1  0  0  0  0
 22 31  1  0  0  0  0
 22 38  1  1  0  0  0
 23 25  1  0  0  0  0
 23 24  1  1  0  0  0
 25 27  1  0  0  0  0
 25 26  1  6  0  0  0
 27 30  1  0  0  0  0
 27 28  1  1  0  0  0
 30 21  1  6  0  0  0
 30 31  1  0  0  0  0
 32 34  1  0  0  0  0
 32 41  1  0  0  0  0
 32 33  1  6  0  0  0
 34 35  1  0  0  0  0
 35 37  1  0  0  0  0
 35 36  1  6  0  0  0
 37 39  1  0  0  0  0
 37 38  1  1  0  0  0
 39 41  1  0  0  0  0
 39 40  1  6  0  0  0
 41 42  1  1  0  0  0
M  CHG  6  12   1  20   1  24   1  29   1  33   1  36   1
M  END
>  <CHROM.1>
173.71788851,-57.40001823,-72.77334009,-135.73160314,-60.21182061,-143.71835138
108.90104530,-166.03732181,-68.45011988,-117.35595993,154.40589918,-128.11456702
-51.40750048,-133.63054823,-141.93602340,174.97999639,61.96033761,-102.75016355
-74.00325993,-70.65680508,172.90403948,-56.93484056,-3.61512362,-2.54486684
1.36488912,-2.69298883,-0.13015725,-0.36701426

>  <Name>
1NEM.B

>  <RI>
0

>  <Rbt.Current_Directory>
/home/itssahil/PROJECTS/Mol_Feturizer/New_Systems/rnas/1nem

>  <Rbt.Executable>
rbdock ($Id: //depot/dev/client3/rdock/2013.1/src/exe/rbdock.cxx#4 $)

>  <Rbt.Library>
libRbt.so (2013.1, Build901 2013/11/27)

>  <Rbt.Parameter_File>
/export/apps/rDock/src/rDock_2013.1_src/data/scripts/dock_solv.prm

>  <Rbt.Receptor>
prm/blind_docking_80.prm

>  <SCORE>
-20.7673

>  <SCORE.INTER>
-48.2512

>  <SCORE.INTER.CONST>
1

>  <SCORE.INTER.POLAR>
-6.23969

>  <SCORE.INTER.ROT>
9

>  <SCORE.INTER.SOLV>
44.7233

>  <SCORE.INTER.VDW>
-35.8763

>  <SCORE.INTER.norm>
-1.14884

>  <SCORE.INTRA>
20.8189

>  <SCORE.INTRA.DIHEDRAL>
19.6469

>  <SCORE.INTRA.DIHEDRAL.0>
22.4324

>  <SCORE.INTRA.POLAR>
0.607169

>  <SCORE.INTRA.POLAR.0>
-1.83749

>  <SCORE.INTRA.REPUL>
0.0500257

>  <SCORE.INTRA.REPUL.0>
0

>  <SCORE.INTRA.SOLV>
-2.02811

>  <SCORE.INTRA.SOLV.lig_0>
-160.638

>  <SCORE.INTRA.VDW>
9.69499

>  <SCORE.INTRA.VDW.0>
-7.61953

>  <SCORE.INTRA.norm>
0.495688

>  <SCORE.RESTR>
6.665

>  <SCORE.RESTR.CAVITY>
6.665

>  <SCORE.RESTR.norm>
0.15869

>  <SCORE.SYSTEM>
0

>  <SCORE.SYSTEM.CONST>
0

>  <SCORE.SYSTEM.DIHEDRAL>
0

>  <SCORE.SYSTEM.SOLV>
0

>  <SCORE.SYSTEM.norm>
0

>  <SCORE.heavy>
42

>  <SCORE.norm>
-0.49446

>  <RMSD>
9.440

$$$$
1NEM.B
 OpenBabel11021811403D
libRbt.so/2013.1/901 2013/11/27
 42 45  0  0  0  0  0  0  0  0999 V2000
   -5.0146   -6.2095    4.9474 O   0  0  0  0  0  0  0  0  0  0  0  0
   -4.1434   -5.0870    5.0998 C   0  0  0  0  0  0  0  0  0  0  0  0
   -4.7707   -3.7748    4.6315 C   0  0  1  0  0  0  0  0  0  0  0  0
   -3.8136   -2.7200    4.6623 O   0  0  0  0  0  0  0  0  0  0  0  0
   -5.2382   -3.7758    3.1848 C   0  0  1  0  0  0  0  0  0  0  0  0
   -6.4109   -4.5904    3.1180 O   0  0  0  0  0  0  0  0  0  0  0  0
   -5.4396   -2.2835    2.9995 C   0  0  1  0  0  0  0  0  0  0  0  0
   -6.5615   -1.7935    3.7414 O   0  0  0  0  0  0  0  0  0  0  0  0
   -4.1326   -1.7875    3.6292 C   0  0  2  0  0  0  0  0  0  0  0  0
   -6.7641   -5.0631    1.8495 C   0  0  2  0  0  0  0  0  0  0  0  0
   -6.9644   -3.8716    0.9032 C   0  0  2  0  0  0  0  0  0  0  0  0
   -7.9277   -2.9062    1.4949 N   0  3  0  0  0  0  0  0  0  0  0  0
   -7.4164   -4.3453   -0.4820 C   0  0  1  0  0  0  0  0  0  0  0  0
   -6.3390   -5.0006   -1.1379 O   0  0  0  0  0  0  0  0  0  0  0  0
   -8.6107   -5.2987   -0.3777 C   0  0  2  0  0  0  0  0  0  0  0  0
   -9.7657   -4.5971    0.0648 O   0  0  0  0  0  0  0  0  0  0  0  0
   -8.2828   -6.4277    0.5952 C   0  0  1  0  0  0  0  0  0  0  0  0
   -7.9304   -5.8755    1.8785 O   0  0  0  0  0  0  0  0  0  0  0  0
   -9.4355   -7.3945    0.8016 C   0  0  0  0  0  0  0  0  0  0  0  0
   -8.9884   -8.8045    0.7580 N   0  3  0  0  0  0  0  0  0  0  0  0
    3.3118    0.0295    0.1483 C   0  0  0  0  0  0  0  0  0  0  0  0
    0.3785   -2.1395    0.7950 C   0  0  2  0  0  0  0  0  0  0  0  0
    0.9818   -3.1759    1.7399 C   0  0  2  0  0  0  0  0  0  0  0  0
   -0.0904   -3.8694    2.4930 N   0  3  0  0  0  0  0  0  0  0  0  0
    1.9320   -2.5018    2.7206 C   0  0  1  0  0  0  0  0  0  0  0  0
    2.5446   -3.4843    3.5416 O   0  0  0  0  0  0  0  0  0  0  0  0
    2.9958   -1.7243    1.9489 C   0  0  2  0  0  0  0  0  0  0  0  0
    3.8457   -1.0355    2.8571 O   0  0  0  0  0  0  0  0  0  0  0  0
    4.3026   -0.8868   -0.4613 N   0  3  0  0  0  0  0  0  0  0  0  0
    2.3179   -0.7219    1.0168 C   0  0  2  0  0  0  0  0  0  0  0  0
    1.4050   -1.4048    0.1336 O   0  0  0  0  0  0  0  0  0  0  0  0
   -3.9312    0.8580    0.2623 C   0  0  2  0  0  0  0  0  0  0  0  0
   -5.2115    1.1814   -0.4083 N   0  3  0  0  0  0  0  0  0  0  0  0
   -2.8726    0.5072   -0.7770 C   0  0  0  0  0  0  0  0  0  0  0  0
   -1.5508    0.1701   -0.1014 C   0  0  2  0  0  0  0  0  0  0  0  0
   -0.5867   -0.1527   -1.1437 N   0  3  0  0  0  0  0  0  0  0  0  0
   -1.7415   -1.0101    0.8485 C   0  0  1  0  0  0  0  0  0  0  0  0
   -0.4929   -1.3045    1.5047 O   0  0  0  0  0  0  0  0  0  0  0  0
   -2.8102   -0.6927    1.9036 C   0  0  2  0  0  0  0  0  0  0  0  0
   -3.0398   -1.8597    2.7160 O   0  0  0  0  0  0  0  0  0  0  0  0
   -4.1312   -0.2854    1.2556 C   0  0  1  0  0  0  0  0  0  0  0  0
   -5.0493    0.1177    2.2631 O   0  0  0  0  0  0  0  0  0  0  0  0
  1  2  1  0  0  0  0
  3  2  1  6  0  0  0
  3  5  1  0  0  0  0
  3  4  1  0  0  0  0
  4  9  1  0  0  0  0
  5  7  1  0  0  0  0
  5  6  1  1  0  0  0
  7  9  1  0  0  0  0
  7  8  1  1  0  0  0
  9 40  1  6  0  0  0
 10  6  1  1  0  0  0
 10 11  1  0  0  0  0
 10 18  1  0  0  0  0
 11 13  1  0  0  0  0
 11 12  1  1  0  0  0
 13 15  1  0  0  0  0
 13 14  1  1  0  0  0
 15 17  1  0  0  0  0
 15 16  1  1  0  0  0
 17 19  1  1  0  0  0
 17 18  1  0  0  0  0
 19 20  1  0  0  0  0
 21 29  1  0  0  0  0
 22 23  1  0  0  0  0
 22 31  1  0  0  0  0
 22 38  1  1  0  0  0
 23 25  1  0  0  0  0
 23 24  1  1  0  0  0
 25 27  1  0  0  0  0
 25 26  1  6  0  0  0
 27 30  1  0  0  0  0
 27 28  1  1  0  0  0
 30 21  1  6  0  0  0
 30 31  1  0  0  0  0
 32 34  1  0  0  0  0
 32 41  1  0  0  0  0
 32 33  1  6  0  0  0
 34 35  1  0  0  0  0
 35 37  1  0  0  0  0
 35 36  1  6  0  0  0
 37 39  1  0  0  0  0
 37 38  1  1  0  0  0
 39 41  1  0  0  0  0
 39 40  1  6  0  0  0
 41 42  1  1  0  0  0
M  CHG  6  12   1  20   1  24   1  29   1  33   1  36   1
M  END
>  <CHROM.1>
51.63954015,-173.39586457,-160.89295952,-57.71530144,60.43491782,-155.30809701
-86.43063373,-60.29312630,-96.80463129,135.09547760,46.02863868,46.39859445
-175.42000945,-136.64546691,-96.85790637,-176.90797744,-179.81871463,-148.71487523
118.59931282,-84.91472262,-171.88526644,41.70737658,-3.37372070,-2.75721193
1.61628800,-2.80942191,-0.22196084,-0.61562213

>  <Name>
1NEM.B

>  <RI>
0

>  <Rbt.Current_Directory>
/home/itssahil/PROJECTS/Mol_Feturizer/New_Systems/rnas/1nem

>  <Rbt.Executable>
rbdock ($Id: //depot/dev/client3/rdock/2013.1/src/exe/rbdock.cxx#4 $)

>  <Rbt.Library>
libRbt.so (2013.1, Build901 2013/11/27)

>  <Rbt.Parameter_File>
/export/apps/rDock/src/rDock_2013.1_src/data/scripts/dock_solv.prm

>  <Rbt.Receptor>
prm/blind_docking_80.prm

>  <SCORE>
-30.3673

>  <SCORE.INTER>
-57.4594

>  <SCORE.INTER.CONST>
1

>  <SCORE.INTER.POLAR>
-9.33607

>  <SCORE.INTER.ROT>
9

>  <SCORE.INTER.SOLV>
46.8929

>  <SCORE.INTER.VDW>
-32.417

>  <SCORE.INTER.norm>
-1.36808

>  <SCORE.INTRA>
22.9444

>  <SCORE.INTRA.DIHEDRAL>
13.4217

>  <SCORE.INTRA.DIHEDRAL.0>
22.4324

>  <SCORE.INTRA.POLAR>
0.427176

>  <SCORE.INTRA.POLAR.0>
-1.83749

>  <SCORE.INTRA.REPUL>
0

>  <SCORE.INTRA.REPUL.0>
0

>  <SCORE.INTRA.SOLV>
1.02804

>  <SCORE.INTRA.SOLV.lig_0>
-160.638

>  <SCORE.INTRA.VDW>
14.2671

>  <SCORE.INTRA.VDW.0>
-7.61953

>  <SCORE.INTRA.norm>
0.546295

>  <SCORE.RESTR>
4.14776

>  <SCORE.RESTR.CAVITY>
4.14776

>  <SCORE.RESTR.norm>
0.0987562

>  <SCORE.SYSTEM>
0

>  <SCORE.SYSTEM.CONST>
0

>  <SCORE.SYSTEM.DIHEDRAL>
0

>  <SCORE.SYSTEM.SOLV>
0

>  <SCORE.SYSTEM.norm>
0

>  <SCORE.heavy>
42

>  <SCORE.norm>
-0.72303

>  <RMSD>
9.449

$$$$
1NEM.B
 OpenBabel11021811403D
libRbt.so/2013.1/901 2013/11/27
 42 45  0  0  0  0  0  0  0  0999 V2000
   -6.3063   -0.7059    3.3236 O   0  0  0  0  0  0  0  0  0  0  0  0
   -6.9695   -1.7582    2.6201 C   0  0  0  0  0  0  0  0  0  0  0  0
   -6.0959   -2.4023    1.5446 C   0  0  1  0  0  0  0  0  0  0  0  0
   -5.2669   -1.4273    0.9187 O   0  0  0  0  0  0  0  0  0  0  0  0
   -5.0969   -3.4229    2.0659 C   0  0  1  0  0  0  0  0  0  0  0  0
   -5.8364   -4.5867    2.4431 O   0  0  0  0  0  0  0  0  0  0  0  0
   -4.2207   -3.5481    0.8336 C   0  0  1  0  0  0  0  0  0  0  0  0
   -4.8914   -4.2151   -0.2408 O   0  0  0  0  0  0  0  0  0  0  0  0
   -4.0538   -2.0590    0.5087 C   0  0  2  0  0  0  0  0  0  0  0  0
   -7.0178   -4.8257    1.7329 C   0  0  2  0  0  0  0  0  0  0  0  0
   -8.0008   -5.5914    2.6290 C   0  0  2  0  0  0  0  0  0  0  0  0
   -7.3492   -6.8106    3.1760 N   0  3  0  0  0  0  0  0  0  0  0  0
   -9.2849   -5.9301    1.8650 C   0  0  1  0  0  0  0  0  0  0  0  0
  -10.0333   -4.7430    1.6388 O   0  0  0  0  0  0  0  0  0  0  0  0
   -8.9701   -6.6022    0.5251 C   0  0  2  0  0  0  0  0  0  0  0  0
   -8.4256   -7.8984    0.7386 O   0  0  0  0  0  0  0  0  0  0  0  0
   -7.9810   -5.7448   -0.2594 C   0  0  1  0  0  0  0  0  0  0  0  0
   -6.7896   -5.5384    0.5242 O   0  0  0  0  0  0  0  0  0  0  0  0
   -7.5697   -6.3643   -1.5834 C   0  0  0  0  0  0  0  0  0  0  0  0
   -8.1329   -7.7218   -1.7567 N   0  3  0  0  0  0  0  0  0  0  0  0
    0.8558   -4.6150    1.7192 C   0  0  0  0  0  0  0  0  0  0  0  0
   -0.1378   -1.0947    1.1298 C   0  0  2  0  0  0  0  0  0  0  0  0
    1.2162   -0.3923    1.1938 C   0  0  2  0  0  0  0  0  0  0  0  0
    1.1376    0.9346    0.5375 N   0  3  0  0  0  0  0  0  0  0  0  0
    2.2781   -1.2355    0.5007 C   0  0  1  0  0  0  0  0  0  0  0  0
    3.5450   -0.6098    0.6345 O   0  0  0  0  0  0  0  0  0  0  0  0
    2.3118   -2.6289    1.1246 C   0  0  2  0  0  0  0  0  0  0  0  0
    3.2523   -3.4441    0.4374 O   0  0  0  0  0  0  0  0  0  0  0  0
    1.6509   -4.6355    2.9684 N   0  3  0  0  0  0  0  0  0  0  0  0
    0.9232   -3.2594    1.0377 C   0  0  2  0  0  0  0  0  0  0  0  0
   -0.0491   -2.4076    1.6770 O   0  0  0  0  0  0  0  0  0  0  0  0
   -3.3863    2.0926    0.0687 C   0  0  2  0  0  0  0  0  0  0  0  0
   -4.5882    2.9220   -0.1778 N   0  3  0  0  0  0  0  0  0  0  0  0
   -2.6089    1.9030   -1.2289 C   0  0  0  0  0  0  0  0  0  0  0  0
   -1.3709    1.0497   -0.9909 C   0  0  2  0  0  0  0  0  0  0  0  0
   -0.6755    0.9085   -2.2624 N   0  3  0  0  0  0  0  0  0  0  0  0
   -1.7807   -0.3140   -0.4399 C   0  0  1  0  0  0  0  0  0  0  0  0
   -0.6022   -1.1049   -0.1910 O   0  0  0  0  0  0  0  0  0  0  0  0
   -2.5755   -0.1580    0.8639 C   0  0  2  0  0  0  0  0  0  0  0  0
   -3.0350   -1.4516    1.3001 O   0  0  0  0  0  0  0  0  0  0  0  0
   -3.7889    0.7485    0.6734 C   0  0  1  0  0  0  0  0  0  0  0  0
   -4.4216    0.9643    1.9278 O   0  0  0  0  0  0  0  0  0  0  0  0
  1  2  1  0  0  0  0
  3  2  1  1  0  0  0
  3  5  1  0  0  0  0
  3  4  1  0  0  0  0
  4  9  1  0  0  0  0
  5  7  1  0  0  0  0
  5  6  1  6  0  0  0
  7  9  1  0  0  0  0
  7  8  1  6  0  0  0
  9 40  1  1  0  0  0
 10  6  1  1  0  0  0
 10 11  1  0  0  0  0
 10 18  1  0  0  0  0
 11 13  1  0  0  0  0
 11 12  1  6  0  0  0
 13 15  1  0  0  0  0
 13 14  1  6  0  0  0
 15 17  1  0  0  0  0
 15 16  1  1  0  0  0
 17 19  1  6  0  0  0
 17 18  1  0  0  0  0
 19 20  1  0  0  0  0
 21 29  1  0  0  0  0
 22 23  1  0  0  0  0
 22 31  1  0  0  0  0
 22 38  1  6  0  0  0
 23 25  1  0  0  0  0
 23 24  1  6  0  0  0
 25 27  1  0  0  0  0
 25 26  1  1  0  0  0
 27 30  1  0  0  0  0
 27 28  1  6  0  0  0
 30 21  1  1  0  0  0
 30 31  1  0  0  0  0
 32 34  1  0  0  0  0
 32 41  1  0  0  0  0
 32 33  1  6  0  0  0
 34 35  1  0  0  0  0
 35 37  1  0  0  0  0
 35 36  1  6  0  0  0
 37 39  1  0  0  0  0
 37 38  1  1  0  0  0
 39 41  1  0  0  0  0
 39 40  1  6  0  0  0
 41 42  1  1  0  0  0
M  CHG  6  12   1  20   1  24   1  29   1  33   1  36   1
M  END
>  <CHROM.1>
47.93973511,-36.02481970,29.48532729,-151.71895923,72.08516726,-79.75985992
-163.15618659,172.77284087,84.57345245,-5.08165269,79.85570622,38.64489289
176.10122928,-113.21885238,51.55606649,155.91720790,73.75837445,-72.58761812
59.89503483,96.85382427,-69.86420202,-62.31126178,-3.56948543,-2.58221660
0.85303141,2.62012071,0.00938381,3.01686393

>  <Name>
1NEM.B

>  <RI>
0

>  <Rbt.Current_Directory>
/home/itssahil/PROJECTS/Mol_Feturizer/New_Systems/rnas/1nem

>  <Rbt.Executable>
rbdock ($Id: //depot/dev/client3/rdock/2013.1/src/exe/rbdock.cxx#4 $)

>  <Rbt.Library>
libRbt.so (2013.1, Build901 2013/11/27)

>  <Rbt.Parameter_File>
/export/apps/rDock/src/rDock_2013.1_src/data/scripts/dock_solv.prm

>  <Rbt.Receptor>
prm/blind_docking_80.prm

>  <SCORE>
-11.6229

>  <SCORE.INTER>
-44.1044

>  <SCORE.INTER.CONST>
1

>  <SCORE.INTER.POLAR>
-8.77404

>  <SCORE.INTER.ROT>
9

>  <SCORE.INTER.SOLV>
51.3182

>  <SCORE.INTER.VDW>
-26.8622

>  <SCORE.INTER.norm>
-1.05011

>  <SCORE.INTRA>
24.8084

>  <SCORE.INTRA.DIHEDRAL>
17.2916

>  <SCORE.INTRA.DIHEDRAL.0>
22.4324

>  <SCORE.INTRA.POLAR>
0.270873

>  <SCORE.INTRA.POLAR.0>
-1.83749

>  <SCORE.INTRA.REPUL>
0

>  <SCORE.INTRA.REPUL.0>
0

>  <SCORE.INTRA.SOLV>
3.27797

>  <SCORE.INTRA.SOLV.lig_0>
-160.638

>  <SCORE.INTRA.VDW>
13.6027

>  <SCORE.INTRA.VDW.0>
-7.61953

>  <SCORE.INTRA.norm>
0.590676

>  <SCORE.RESTR>
7.67315

>  <SCORE.RESTR.CAVITY>
7.67315

>  <SCORE.RESTR.norm>
0.182694

>  <SCORE.SYSTEM>
0

>  <SCORE.SYSTEM.CONST>
0

>  <SCORE.SYSTEM.DIHEDRAL>
0

>  <SCORE.SYSTEM.SOLV>
0

>  <SCORE.SYSTEM.norm>
0

>  <SCORE.heavy>
42

>  <SCORE.norm>
-0.276736

>  <RMSD>
9.455

$$$$
1NEM.B
 OpenBabel11021811403D
libRbt.so/2013.1/901 2013/11/27
 42 45  0  0  0  0  0  0  0  0999 V2000
   -5.1864   -6.5571    5.1991 O   0  0  0  0  0  0  0  0  0  0  0  0
   -4.1583   -5.5656    5.2452 C   0  0  0  0  0  0  0  0  0  0  0  0
   -4.6765   -4.1535    4.9764 C   0  0  1  0  0  0  0  0  0  0  0  0
   -3.6113   -3.2087    5.0239 O   0  0  0  0  0  0  0  0  0  0  0  0
   -5.2618   -3.9459    3.5887 C   0  0  1  0  0  0  0  0  0  0  0  0
   -6.5175   -4.6277    3.5509 O   0  0  0  0  0  0  0  0  0  0  0  0
   -5.3147   -2.4296    3.5780 C   0  0  1  0  0  0  0  0  0  0  0  0
   -6.3101   -1.9174    4.4702 O   0  0  0  0  0  0  0  0  0  0  0  0
   -3.9131   -2.1392    4.1274 C   0  0  2  0  0  0  0  0  0  0  0  0
   -6.9038   -5.1440    2.3094 C   0  0  2  0  0  0  0  0  0  0  0  0
   -6.9576   -4.0050    1.2822 C   0  0  2  0  0  0  0  0  0  0  0  0
   -7.8156   -2.9014    1.7883 N   0  3  0  0  0  0  0  0  0  0  0  0
   -7.4406   -4.5194   -0.0778 C   0  0  1  0  0  0  0  0  0  0  0  0
   -6.4338   -5.3324   -0.6660 O   0  0  0  0  0  0  0  0  0  0  0  0
   -8.7347   -5.3264    0.0642 C   0  0  2  0  0  0  0  0  0  0  0  0
   -9.8105   -4.4736    0.4349 O   0  0  0  0  0  0  0  0  0  0  0  0
   -8.5475   -6.4157    1.1165 C   0  0  1  0  0  0  0  0  0  0  0  0
   -8.1535   -5.8194    2.3675 O   0  0  0  0  0  0  0  0  0  0  0  0
   -9.8032   -7.2336    1.3621 C   0  0  0  0  0  0  0  0  0  0  0  0
  -10.0296   -8.2324    0.2939 N   0  3  0  0  0  0  0  0  0  0  0  0
    3.4611    0.2423    1.9639 C   0  0  0  0  0  0  0  0  0  0  0  0
    0.6313   -1.9743    1.0658 C   0  0  2  0  0  0  0  0  0  0  0  0
    1.1411   -3.3216    1.5717 C   0  0  2  0  0  0  0  0  0  0  0  0
    0.0115   -4.2662    1.7432 N   0  3  0  0  0  0  0  0  0  0  0  0
    1.8575   -3.1450    2.9039 C   0  0  1  0  0  0  0  0  0  0  0  0
    2.3935   -4.3901    3.3248 O   0  0  0  0  0  0  0  0  0  0  0  0
    2.9758   -2.1166    2.7503 C   0  0  2  0  0  0  0  0  0  0  0  0
    3.6049   -1.8948    4.0059 O   0  0  0  0  0  0  0  0  0  0  0  0
    3.6408    1.1400    3.1278 N   0  3  0  0  0  0  0  0  0  0  0  0
    2.3931   -0.8051    2.2273 C   0  0  2  0  0  0  0  0  0  0  0  0
    1.6974   -1.0320    0.9847 O   0  0  0  0  0  0  0  0  0  0  0  0
   -3.9719    0.4112    0.6249 C   0  0  2  0  0  0  0  0  0  0  0  0
   -5.2700    0.6481   -0.0476 N   0  3  0  0  0  0  0  0  0  0  0  0
   -2.8951    0.1115   -0.4118 C   0  0  0  0  0  0  0  0  0  0  0  0
   -1.5547   -0.1365    0.2657 C   0  0  2  0  0  0  0  0  0  0  0  0
   -0.5739   -0.4139   -0.7742 N   0  3  0  0  0  0  0  0  0  0  0  0
   -1.6728   -1.3137    1.2308 C   0  0  1  0  0  0  0  0  0  0  0  0
   -0.4081   -1.5239    1.8886 O   0  0  0  0  0  0  0  0  0  0  0  0
   -2.7577   -1.0479    2.2837 C   0  0  2  0  0  0  0  0  0  0  0  0
   -2.9157   -2.2161    3.1113 O   0  0  0  0  0  0  0  0  0  0  0  0
   -4.1015   -0.7294    1.6330 C   0  0  1  0  0  0  0  0  0  0  0  0
   -5.0412   -0.3695    2.6369 O   0  0  0  0  0  0  0  0  0  0  0  0
  1  2  1  0  0  0  0
  3  2  1  6  0  0  0
  3  5  1  0  0  0  0
  3  4  1  0  0  0  0
  4  9  1  0  0  0  0
  5  7  1  0  0  0  0
  5  6  1  1  0  0  0
  7  9  1  0  0  0  0
  7  8  1  1  0  0  0
  9 40  1  6  0  0  0
 10  6  1  1  0  0  0
 10 11  1  0  0  0  0
 10 18  1  0  0  0  0
 11 13  1  0  0  0  0
 11 12  1  1  0  0  0
 13 15  1  0  0  0  0
 13 14  1  1  0  0  0
 15 17  1  0  0  0  0
 15 16  1  1  0  0  0
 17 19  1  1  0  0  0
 17 18  1  0  0  0  0
 19 20  1  0  0  0  0
 21 29  1  0  0  0  0
 22 23  1  0  0  0  0
 22 31  1  0  0  0  0
 22 38  1  1  0  0  0
 23 25  1  0  0  0  0
 23 24  1  1  0  0  0
 25 27  1  0  0  0  0
 25 26  1  6  0  0  0
 27 30  1  0  0  0  0
 27 28  1  1  0  0  0
 30 21  1  6  0  0  0
 30 31  1  0  0  0  0
 32 34  1  0  0  0  0
 32 41  1  0  0  0  0
 32 33  1  6  0  0  0
 34 35  1  0  0  0  0
 35 37  1  0  0  0  0
 35 36  1  6  0  0  0
 37 39  1  0  0  0  0
 37 38  1  1  0  0  0
 39 41  1  0  0  0  0
 39 40  1  1  0  0  0
 41 42  1  1  0  0  0
M  CHG  6  12   1  20   1  24   1  29   1  33   1  36   1
M  END
>  <CHROM.1>
42.90439713,-179.54648852,-149.05796436,-57.79127685,164.53983508,-163.49016704
-27.07423707,-150.51094705,-32.42610352,77.67379694,48.22911324,-94.30060462
-172.94822984,-120.23845261,-39.16358150,-64.76112026,-66.82721030,-2.59069911
159.61036734,-67.61171597,-178.72018829,-49.30611622,-3.42163579,-2.91619700
2.10678724,-2.85812493,-0.28064449,-0.61648517

>  <Name>
1NEM.B

>  <RI>
0

>  <Rbt.Current_Directory>
/home/itssahil/PROJECTS/Mol_Feturizer/New_Systems/rnas/1nem

>  <Rbt.Executable>
rbdock ($Id: //depot/dev/client3/rdock/2013.1/src/exe/rbdock.cxx#4 $)

>  <Rbt.Library>
libRbt.so (2013.1, Build901 2013/11/27)

>  <Rbt.Parameter_File>
/export/apps/rDock/src/rDock_2013.1_src/data/scripts/dock_solv.prm

>  <Rbt.Receptor>
prm/blind_docking_40.prm

>  <SCORE>
-25.3958

>  <SCORE.INTER>
-58.1437

>  <SCORE.INTER.CONST>
1

>  <SCORE.INTER.POLAR>
-8.71463

>  <SCORE.INTER.ROT>
9

>  <SCORE.INTER.SOLV>
43.006

>  <SCORE.INTER.VDW>
-33.6491

>  <SCORE.INTER.norm>
-1.38437

>  <SCORE.INTRA>
30.1496

>  <SCORE.INTRA.DIHEDRAL>
12.7555

>  <SCORE.INTRA.DIHEDRAL.0>
22.4324

>  <SCORE.INTRA.POLAR>
0.460157

>  <SCORE.INTRA.POLAR.0>
-1.83749

>  <SCORE.INTRA.REPUL>
0

>  <SCORE.INTRA.REPUL.0>
0

>  <SCORE.INTRA.SOLV>
0.447796

>  <SCORE.INTRA.SOLV.lig_0>
-160.638

>  <SCORE.INTRA.VDW>
21.9834

>  <SCORE.INTRA.VDW.0>
-7.61953

>  <SCORE.INTRA.norm>
0.717847

>  <SCORE.RESTR>
2.59832

>  <SCORE.RESTR.CAVITY>
2.59832

>  <SCORE.RESTR.norm>
0.0618649

>  <SCORE.SYSTEM>
0

>  <SCORE.SYSTEM.CONST>
0

>  <SCORE.SYSTEM.DIHEDRAL>
0

>  <SCORE.SYSTEM.SOLV>
0

>  <SCORE.SYSTEM.norm>
0

>  <SCORE.heavy>
42

>  <SCORE.norm>
-0.604663

>  <RMSD>
9.457

$$$$
1NEM.B
 OpenBabel11021811403D
libRbt.so/2013.1/901 2013/11/27
 42 45  0  0  0  0  0  0  0  0999 V2000
    0.2536    1.2220   -5.8315 O   0  0  0  0  0  0  0  0  0  0  0  0
   -0.0764    2.4120   -5.1124 C   0  0  0  0  0  0  0  0  0  0  0  0
   -0.9339    2.1457   -3.8761 C   0  0  1  0  0  0  0  0  0  0  0  0
   -0.4114    1.0525   -3.1268 O   0  0  0  0  0  0  0  0  0  0  0  0
   -0.9570    3.2797   -2.8637 C   0  0  1  0  0  0  0  0  0  0  0  0
   -1.7417    4.3344   -3.4251 O   0  0  0  0  0  0  0  0  0  0  0  0
   -1.5643    2.5364   -1.6888 C   0  0  1  0  0  0  0  0  0  0  0  0
   -2.9429    2.2174   -1.9054 O   0  0  0  0  0  0  0  0  0  0  0  0
   -0.7120    1.2632   -1.7471 C   0  0  2  0  0  0  0  0  0  0  0  0
   -1.4516    5.6273   -2.9763 C   0  0  2  0  0  0  0  0  0  0  0  0
   -2.2077    6.6449   -3.8414 C   0  0  2  0  0  0  0  0  0  0  0  0
   -1.9158    6.4084   -5.2799 N   0  3  0  0  0  0  0  0  0  0  0  0
   -1.8650    8.0782   -3.4224 C   0  0  1  0  0  0  0  0  0  0  0  0
   -2.4441    8.3566   -2.1544 O   0  0  0  0  0  0  0  0  0  0  0  0
   -0.3491    8.2862   -3.3518 C   0  0  2  0  0  0  0  0  0  0  0  0
    0.2175    8.2364   -4.6551 O   0  0  0  0  0  0  0  0  0  0  0  0
    0.2764    7.2085   -2.4707 C   0  0  1  0  0  0  0  0  0  0  0  0
   -0.0575    5.9054   -2.9869 O   0  0  0  0  0  0  0  0  0  0  0  0
    1.7895    7.3061   -2.3878 C   0  0  0  0  0  0  0  0  0  0  0  0
    2.2365    8.6728   -2.0379 N   0  3  0  0  0  0  0  0  0  0  0  0
    4.5860    4.4983    0.4230 C   0  0  0  0  0  0  0  0  0  0  0  0
    2.9153    2.4353   -2.1615 C   0  0  2  0  0  0  0  0  0  0  0  0
    3.6351    2.9050   -3.4233 C   0  0  2  0  0  0  0  0  0  0  0  0
    3.4700    1.9093   -4.5091 N   0  3  0  0  0  0  0  0  0  0  0  0
    5.1185    3.1002   -3.1394 C   0  0  1  0  0  0  0  0  0  0  0  0
    5.7617    3.6105   -4.2971 O   0  0  0  0  0  0  0  0  0  0  0  0
    5.2920    4.0690   -1.9718 C   0  0  2  0  0  0  0  0  0  0  0  0
    6.6717    4.2032   -1.6555 O   0  0  0  0  0  0  0  0  0  0  0  0
    3.8444    3.9658    1.5890 N   0  3  0  0  0  0  0  0  0  0  0  0
    4.5336    3.5416   -0.7554 C   0  0  2  0  0  0  0  0  0  0  0  0
    3.1442    3.3415   -1.0857 O   0  0  0  0  0  0  0  0  0  0  0  0
    1.5345   -1.6184    0.8558 C   0  0  2  0  0  0  0  0  0  0  0  0
    0.9798   -2.1898    2.1044 N   0  3  0  0  0  0  0  0  0  0  0  0
    2.9939   -1.2300    1.0638 C   0  0  0  0  0  0  0  0  0  0  0  0
    3.5771   -0.6386   -0.2120 C   0  0  2  0  0  0  0  0  0  0  0  0
    4.9664   -0.2917    0.0518 N   0  3  0  0  0  0  0  0  0  0  0  0
    2.7765    0.5947   -0.6235 C   0  0  1  0  0  0  0  0  0  0  0  0
    3.3170    1.1317   -1.8465 O   0  0  0  0  0  0  0  0  0  0  0  0
    1.2978    0.2395   -0.8317 C   0  0  2  0  0  0  0  0  0  0  0  0
    0.5542    1.4400   -1.1157 O   0  0  0  0  0  0  0  0  0  0  0  0
    0.7010   -0.4179    0.4102 C   0  0  1  0  0  0  0  0  0  0  0  0
   -0.6270   -0.8410    0.1313 O   0  0  0  0  0  0  0  0  0  0  0  0
  1  2  1  0  0  0  0
  3  2  1  6  0  0  0
  3  5  1  0  0  0  0
  3  4  1  0  0  0  0
  4  9  1  0  0  0  0
  5  7  1  0  0  0  0
  5  6  1  6  0  0  0
  7  9  1  0  0  0  0
  7  8  1  6  0  0  0
  9 40  1  1  0  0  0
 10  6  1  6  0  0  0
 10 11  1  0  0  0  0
 10 18  1  0  0  0  0
 11 13  1  0  0  0  0
 11 12  1  6  0  0  0
 13 15  1  0  0  0  0
 13 14  1  1  0  0  0
 15 17  1  0  0  0  0
 15 16  1  6  0  0  0
 17 19  1  6  0  0  0
 17 18  1  0  0  0  0
 19 20  1  0  0  0  0
 21 29  1  0  0  0  0
 22 23  1  0  0  0  0
 22 31  1  0  0  0  0
 22 38  1  1  0  0  0
 23 25  1  0  0  0  0
 23 24  1  6  0  0  0
 25 27  1  0  0  0  0
 25 26  1  6  0  0  0
 27 30  1  0  0  0  0
 27 28  1  1  0  0  0
 30 21  1  1  0  0  0
 30 31  1  0  0  0  0
 32 34  1  0  0  0  0
 32 41  1  0  0  0  0
 32 33  1  1  0  0  0
 34 35  1  0  0  0  0
 35 37  1  0  0  0  0
 35 36  1  1  0  0  0
 37 39  1  0  0  0  0
 37 38  1  6  0  0  0
 39 41  1  0  0  0  0
 39 40  1  1  0  0  0
 41 42  1  6  0  0  0
M  CHG  6  12   1  20   1  24   1  29   1  33   1  36   1
M  END
>  <CHROM.1>
-61.06995383,46.04113935,-153.79876433,170.51332820,177.18486177,-79.63603610
165.94314930,-65.36762650,67.29325855,50.77146713,165.16869079,179.99172819
-165.99027838,176.15760102,-62.65218933,54.96010929,60.64607557,-173.16173130
41.45797677,-164.43009454,160.50755855,-62.49232502,1.34776846,3.22681560
-2.06602415,2.01596209,-0.17940155,-0.36894722

>  <Name>
1NEM.B

>  <RI>
0

>  <Rbt.Current_Directory>
/home/itssahil/PROJECTS/Mol_Feturizer/New_Systems/rnas/1nem

>  <Rbt.Executable>
rbdock ($Id: //depot/dev/client3/rdock/2013.1/src/exe/rbdock.cxx#4 $)

>  <Rbt.Library>
libRbt.so (2013.1, Build901 2013/11/27)

>  <Rbt.Parameter_File>
/export/apps/rDock/src/rDock_2013.1_src/data/scripts/dock_solv.prm

>  <Rbt.Receptor>
prm/pocket_docking_7.prm

>  <SCORE>
-34.5694

>  <SCORE.INTER>
-33.1523

>  <SCORE.INTER.CONST>
1

>  <SCORE.INTER.POLAR>
-6.07857

>  <SCORE.INTER.ROT>
9

>  <SCORE.INTER.SOLV>
29.4643

>  <SCORE.INTER.VDW>
-21.2611

>  <SCORE.INTER.norm>
-0.789339

>  <SCORE.INTRA>
-2.29586

>  <SCORE.INTRA.DIHEDRAL>
-9.84949

>  <SCORE.INTRA.DIHEDRAL.0>
22.4324

>  <SCORE.INTRA.POLAR>
1.23846

>  <SCORE.INTRA.POLAR.0>
-1.83749

>  <SCORE.INTRA.REPUL>
0

>  <SCORE.INTRA.REPUL.0>
0

>  <SCORE.INTRA.SOLV>
-5.92702

>  <SCORE.INTRA.SOLV.lig_0>
-160.638

>  <SCORE.INTRA.VDW>
1.38163

>  <SCORE.INTRA.VDW.0>
-7.61953

>  <SCORE.INTRA.norm>
-0.0546633

>  <SCORE.RESTR>
0.878745

>  <SCORE.RESTR.CAVITY>
0.878745

>  <SCORE.RESTR.norm>
0.0209225

>  <SCORE.SYSTEM>
0

>  <SCORE.SYSTEM.CONST>
0

>  <SCORE.SYSTEM.DIHEDRAL>
0

>  <SCORE.SYSTEM.SOLV>
0

>  <SCORE.SYSTEM.norm>
0

>  <SCORE.heavy>
42

>  <SCORE.norm>
-0.82308

>  <RMSD>
9.462

$$$$
1NEM.B
 OpenBabel11021811403D
libRbt.so/2013.1/901 2013/11/27
 42 45  0  0  0  0  0  0  0  0999 V2000
   -5.8649   -3.7542    7.5067 O   0  0  0  0  0  0  0  0  0  0  0  0
   -5.4689   -4.0558    6.1672 C   0  0  0  0  0  0  0  0  0  0  0  0
   -5.8927   -2.9853    5.1626 C   0  0  1  0  0  0  0  0  0  0  0  0
   -4.9789   -1.8924    5.1757 O   0  0  0  0  0  0  0  0  0  0  0  0
   -5.8737   -3.4350    3.7104 C   0  0  1  0  0  0  0  0  0  0  0  0
   -6.9766   -4.3257    3.5272 O   0  0  0  0  0  0  0  0  0  0  0  0
   -5.9816   -2.0780    3.0405 C   0  0  1  0  0  0  0  0  0  0  0  0
   -7.2737   -1.4883    3.2192 O   0  0  0  0  0  0  0  0  0  0  0  0
   -4.9364   -1.3208    3.8681 C   0  0  2  0  0  0  0  0  0  0  0  0
   -6.9949   -5.0492    2.3299 C   0  0  2  0  0  0  0  0  0  0  0  0
   -6.9977   -4.0709    1.1474 C   0  0  2  0  0  0  0  0  0  0  0  0
   -8.1072   -3.0926    1.2971 N   0  3  0  0  0  0  0  0  0  0  0  0
   -7.0833   -4.8245   -0.1838 C   0  0  1  0  0  0  0  0  0  0  0  0
   -5.8578   -5.5017   -0.4290 O   0  0  0  0  0  0  0  0  0  0  0  0
   -8.2353   -5.8342   -0.1744 C   0  0  2  0  0  0  0  0  0  0  0  0
   -9.4855   -5.1569   -0.1595 O   0  0  0  0  0  0  0  0  0  0  0  0
   -8.1171   -6.7363    1.0508 C   0  0  1  0  0  0  0  0  0  0  0  0
   -8.1059   -5.9322    2.2463 O   0  0  0  0  0  0  0  0  0  0  0  0
   -9.2531   -7.7370    1.1697 C   0  0  0  0  0  0  0  0  0  0  0  0
   -9.8663   -8.0353   -0.1436 N   0  3  0  0  0  0  0  0  0  0  0  0
    2.3392   -0.2866    0.9093 C   0  0  0  0  0  0  0  0  0  0  0  0
   -0.3833   -2.7996    0.9254 C   0  0  2  0  0  0  0  0  0  0  0  0
    0.3258   -3.9974    1.5527 C   0  0  2  0  0  0  0  0  0  0  0  0
   -0.6674   -4.9619    2.0827 N   0  3  0  0  0  0  0  0  0  0  0  0
    1.2342   -3.5358    2.6844 C   0  0  1  0  0  0  0  0  0  0  0  0
    1.9454   -4.6472    3.2074 O   0  0  0  0  0  0  0  0  0  0  0  0
    2.2115   -2.4864    2.1595 C   0  0  2  0  0  0  0  0  0  0  0  0
    3.0172   -1.9998    3.2251 O   0  0  0  0  0  0  0  0  0  0  0  0
    3.4444   -0.9126    0.1480 N   0  3  0  0  0  0  0  0  0  0  0  0
    1.4313   -1.3313    1.5348 C   0  0  2  0  0  0  0  0  0  0  0  0
    0.5627   -1.8247    0.4947 O   0  0  0  0  0  0  0  0  0  0  0  0
   -4.0469    0.6263    0.3656 C   0  0  2  0  0  0  0  0  0  0  0  0
   -5.2614    1.2209   -0.2385 N   0  3  0  0  0  0  0  0  0  0  0  0
   -3.3811   -0.3200   -0.6271 C   0  0  0  0  0  0  0  0  0  0  0  0
   -2.1315   -0.9408   -0.0185 C   0  0  2  0  0  0  0  0  0  0  0  0
   -1.5449   -1.8282   -1.0128 N   0  3  0  0  0  0  0  0  0  0  0  0
   -2.5002   -1.7099    1.2479 C   0  0  1  0  0  0  0  0  0  0  0  0
   -1.3087   -2.2705    1.8331 O   0  0  0  0  0  0  0  0  0  0  0  0
   -3.1830   -0.7864    2.2664 C   0  0  2  0  0  0  0  0  0  0  0  0
   -3.6105   -1.5623    3.4021 O   0  0  0  0  0  0  0  0  0  0  0  0
   -4.4040   -0.0961    1.6636 C   0  0  1  0  0  0  0  0  0  0  0  0
   -4.9291    0.8389    2.5967 O   0  0  0  0  0  0  0  0  0  0  0  0
  1  2  1  0  0  0  0
  3  2  1  1  0  0  0
  3  5  1  0  0  0  0
  3  4  1  0  0  0  0
  4  9  1  0  0  0  0
  5  7  1  0  0  0  0
  5  6  1  1  0  0  0
  7  9  1  0  0  0  0
  7  8  1  1  0  0  0
  9 40  1  6  0  0  0
 10  6  1  1  0  0  0
 10 11  1  0  0  0  0
 10 18  1  0  0  0  0
 11 13  1  0  0  0  0
 11 12  1  1  0  0  0
 13 15  1  0  0  0  0
 13 14  1  1  0  0  0
 15 17  1  0  0  0  0
 15 16  1  1  0  0  0
 17 19  1  1  0  0  0
 17 18  1  0  0  0  0
 19 20  1  0  0  0  0
 21 29  1  0  0  0  0
 22 23  1  0  0  0  0
 22 31  1  0  0  0  0
 22 38  1  1  0  0  0
 23 25  1  0  0  0  0
 23 24  1  1  0  0  0
 25 27  1  0  0  0  0
 25 26  1  6  0  0  0
 27 30  1  0  0  0  0
 27 28  1  1  0  0  0
 30 21  1  6  0  0  0
 30 31  1  0  0  0  0
 32 34  1  0  0  0  0
 32 41  1  0  0  0  0
 32 33  1  6  0  0  0
 34 35  1  0  0  0  0
 35 37  1  0  0  0  0
 35 36  1  6  0  0  0
 37 39  1  0  0  0  0
 37 38  1  1  0  0  0
 39 41  1  0  0  0  0
 39 40  1  1  0  0  0
 41 42  1  1  0  0  0
M  CHG  6  12   1  20   1  24   1  29   1  33   1  36   1
M  END
>  <CHROM.1>
-58.19771215,81.23519028,-168.36701872,-58.47376946,55.30181663,-163.85866731
-87.05056298,50.62636061,60.14042525,24.98041045,56.59634564,42.71252575
-178.38408568,-146.79021456,54.06996673,57.59516250,-40.77668221,-167.09308750
142.45178097,-40.17743054,-133.80856672,-33.35416910,-3.87104181,-2.93603613
1.90448783,2.89747423,-0.24524617,-2.41508531

>  <Name>
1NEM.B

>  <RI>
0

>  <Rbt.Current_Directory>
/home/itssahil/PROJECTS/Mol_Feturizer/New_Systems/rnas/1nem

>  <Rbt.Executable>
rbdock ($Id: //depot/dev/client3/rdock/2013.1/src/exe/rbdock.cxx#4 $)

>  <Rbt.Library>
libRbt.so (2013.1, Build901 2013/11/27)

>  <Rbt.Parameter_File>
/export/apps/rDock/src/rDock_2013.1_src/data/scripts/dock_solv.prm

>  <Rbt.Receptor>
prm/blind_docking_20.prm

>  <SCORE>
27.1606

>  <SCORE.INTER>
-2.8606

>  <SCORE.INTER.CONST>
1

>  <SCORE.INTER.POLAR>
-7.13797

>  <SCORE.INTER.ROT>
9

>  <SCORE.INTER.SOLV>
52.0761

>  <SCORE.INTER.VDW>
-5.07251

>  <SCORE.INTER.norm>
-0.0681095

>  <SCORE.INTRA>
27.1795

>  <SCORE.INTRA.DIHEDRAL>
8.07909

>  <SCORE.INTRA.DIHEDRAL.0>
22.4324

>  <SCORE.INTRA.POLAR>
0.140129

>  <SCORE.INTRA.POLAR.0>
-1.83749

>  <SCORE.INTRA.REPUL>
0

>  <SCORE.INTRA.REPUL.0>
0

>  <SCORE.INTRA.SOLV>
2.24502

>  <SCORE.INTRA.SOLV.lig_0>
-160.638

>  <SCORE.INTRA.VDW>
21.541

>  <SCORE.INTRA.VDW.0>
-7.61953

>  <SCORE.INTRA.norm>
0.64713

>  <SCORE.RESTR>
2.84171

>  <SCORE.RESTR.CAVITY>
2.84171

>  <SCORE.RESTR.norm>
0.0676597

>  <SCORE.SYSTEM>
0

>  <SCORE.SYSTEM.CONST>
0

>  <SCORE.SYSTEM.DIHEDRAL>
0

>  <SCORE.SYSTEM.SOLV>
0

>  <SCORE.SYSTEM.norm>
0

>  <SCORE.heavy>
42

>  <SCORE.norm>
0.646681

>  <RMSD>
9.486

$$$$
1NEM.B
 OpenBabel11021811403D
libRbt.so/2013.1/901 2013/11/27
 42 45  0  0  0  0  0  0  0  0999 V2000
   -3.9728   -6.0695    3.0695 O   0  0  0  0  0  0  0  0  0  0  0  0
   -4.2218   -5.5966    4.3948 C   0  0  0  0  0  0  0  0  0  0  0  0
   -4.5140   -4.0978    4.4503 C   0  0  1  0  0  0  0  0  0  0  0  0
   -3.3077   -3.3458    4.3560 O   0  0  0  0  0  0  0  0  0  0  0  0
   -5.3428   -3.5696    3.2902 C   0  0  1  0  0  0  0  0  0  0  0  0
   -6.6803   -4.0388    3.4755 O   0  0  0  0  0  0  0  0  0  0  0  0
   -5.1131   -2.0836    3.4919 C   0  0  1  0  0  0  0  0  0  0  0  0
   -5.7728   -1.5887    4.6620 O   0  0  0  0  0  0  0  0  0  0  0  0
   -3.5956   -2.1053    3.7104 C   0  0  2  0  0  0  0  0  0  0  0  0
   -7.1974   -4.8500    2.4597 C   0  0  2  0  0  0  0  0  0  0  0  0
   -7.3256   -4.0270    1.1707 C   0  0  2  0  0  0  0  0  0  0  0  0
   -8.1052   -2.7883    1.4316 N   0  3  0  0  0  0  0  0  0  0  0  0
   -7.9504   -4.8635    0.0495 C   0  0  1  0  0  0  0  0  0  0  0  0
   -7.0243   -5.8518   -0.3820 O   0  0  0  0  0  0  0  0  0  0  0  0
   -9.2423   -5.5398    0.5185 C   0  0  2  0  0  0  0  0  0  0  0  0
  -10.2574   -4.5682    0.7367 O   0  0  0  0  0  0  0  0  0  0  0  0
   -8.9777   -6.3147    1.8063 C   0  0  1  0  0  0  0  0  0  0  0  0
   -8.4502   -5.4242    2.8087 O   0  0  0  0  0  0  0  0  0  0  0  0
  -10.2214   -6.9755    2.3742 C   0  0  0  0  0  0  0  0  0  0  0  0
  -10.7703   -7.9995    1.4576 N   0  3  0  0  0  0  0  0  0  0  0  0
    3.5506    0.4415    2.3955 C   0  0  0  0  0  0  0  0  0  0  0  0
    0.8869   -1.6750    0.9283 C   0  0  2  0  0  0  0  0  0  0  0  0
    1.3606   -3.0681    1.3354 C   0  0  2  0  0  0  0  0  0  0  0  0
    0.2372   -4.0328    1.2659 N   0  3  0  0  0  0  0  0  0  0  0  0
    1.9145   -3.0404    2.7537 C   0  0  1  0  0  0  0  0  0  0  0  0
    2.4220   -4.3221    3.0917 O   0  0  0  0  0  0  0  0  0  0  0  0
    3.0231   -1.9945    2.8490 C   0  0  2  0  0  0  0  0  0  0  0  0
    3.4982   -1.9136    4.1866 O   0  0  0  0  0  0  0  0  0  0  0  0
    4.6482    0.1020    1.4612 N   0  3  0  0  0  0  0  0  0  0  0  0
    2.4797   -0.6353    2.4124 C   0  0  2  0  0  0  0  0  0  0  0  0
    1.9369   -0.7232    1.0792 O   0  0  0  0  0  0  0  0  0  0  0  0
   -3.6509    0.7760    0.2387 C   0  0  2  0  0  0  0  0  0  0  0  0
   -4.8596    1.1054   -0.5510 N   0  3  0  0  0  0  0  0  0  0  0  0
   -2.4530    0.6052   -0.6887 C   0  0  0  0  0  0  0  0  0  0  0  0
   -1.2028    0.2639    0.1098 C   0  0  2  0  0  0  0  0  0  0  0  0
   -0.1002    0.1162   -0.8296 N   0  3  0  0  0  0  0  0  0  0  0  0
   -1.4263   -1.0268    0.8944 C   0  0  1  0  0  0  0  0  0  0  0  0
   -0.2491   -1.3276    1.6690 O   0  0  0  0  0  0  0  0  0  0  0  0
   -2.6338   -0.8915    1.8324 C   0  0  2  0  0  0  0  0  0  0  0  0
   -2.8802   -2.1553    2.4779 O   0  0  0  0  0  0  0  0  0  0  0  0
   -3.8913   -0.4838    1.0689 C   0  0  1  0  0  0  0  0  0  0  0  0
   -4.9497   -0.2499    1.9886 O   0  0  0  0  0  0  0  0  0  0  0  0
  1  2  1  0  0  0  0
  3  2  1  6  0  0  0
  3  5  1  0  0  0  0
  3  4  1  0  0  0  0
  4  9  1  0  0  0  0
  5  7  1  0  0  0  0
  5  6  1  1  0  0  0
  7  9  1  0  0  0  0
  7  8  1  1  0  0  0
  9 40  1  6  0  0  0
 10  6  1  1  0  0  0
 10 11  1  0  0  0  0
 10 18  1  0  0  0  0
 11 13  1  0  0  0  0
 11 12  1  1  0  0  0
 13 15  1  0  0  0  0
 13 14  1  1  0  0  0
 15 17  1  0  0  0  0
 15 16  1  1  0  0  0
 17 19  1  1  0  0  0
 17 18  1  0  0  0  0
 19 20  1  0  0  0  0
 21 29  1  0  0  0  0
 22 23  1  0  0  0  0
 22 31  1  0  0  0  0
 22 38  1  1  0  0  0
 23 25  1  0  0  0  0
 23 24  1  1  0  0  0
 25 27  1  0  0  0  0
 25 26  1  6  0  0  0
 27 30  1  0  0  0  0
 27 28  1  1  0  0  0
 30 21  1  6  0  0  0
 30 31  1  0  0  0  0
 32 34  1  0  0  0  0
 32 41  1  0  0  0  0
 32 33  1  6  0  0  0
 34 35  1  0  0  0  0
 35 37  1  0  0  0  0
 35 36  1  6  0  0  0
 37 39  1  0  0  0  0
 37 38  1  1  0  0  0
 39 41  1  0  0  0  0
 39 40  1  6  0  0  0
 41 42  1  1  0  0  0
M  CHG  6  12   1  20   1  24   1  29   1  33   1  36   1
M  END
>  <CHROM.1>
69.77093674,-78.43037743,-119.57108723,-65.40513633,-177.41245516,-160.36728573
-96.27123463,-58.19030900,172.56003469,63.31009192,-60.62684561,60.12032886
-45.78978745,-121.35856842,-129.87076074,59.09686057,178.67771843,-58.47823036
-79.59243695,-67.60562567,157.08761272,65.69789036,-3.34938419,-2.77298897
1.92802297,-2.82171663,-0.19880242,-0.52452157

>  <Name>
1NEM.B

>  <RI>
0

>  <Rbt.Current_Directory>
/home/itssahil/PROJECTS/Mol_Feturizer/New_Systems/rnas/1nem

>  <Rbt.Executable>
rbdock ($Id: //depot/dev/client3/rdock/2013.1/src/exe/rbdock.cxx#4 $)

>  <Rbt.Library>
libRbt.so (2013.1, Build901 2013/11/27)

>  <Rbt.Parameter_File>
/export/apps/rDock/src/rDock_2013.1_src/data/scripts/dock_solv.prm

>  <Rbt.Receptor>
prm/blind_docking_80.prm

>  <SCORE>
-39.8764

>  <SCORE.INTER>
-56.5932

>  <SCORE.INTER.CONST>
1

>  <SCORE.INTER.POLAR>
-9.41577

>  <SCORE.INTER.ROT>
9

>  <SCORE.INTER.SOLV>
45.9359

>  <SCORE.INTER.VDW>
-31.2549

>  <SCORE.INTER.norm>
-1.34746

>  <SCORE.INTRA>
12.2873

>  <SCORE.INTRA.DIHEDRAL>
5.78074

>  <SCORE.INTRA.DIHEDRAL.0>
22.4324

>  <SCORE.INTRA.POLAR>
-0.0353668

>  <SCORE.INTRA.POLAR.0>
-1.83749

>  <SCORE.INTRA.REPUL>
0

>  <SCORE.INTRA.REPUL.0>
0

>  <SCORE.INTRA.SOLV>
-1.11159

>  <SCORE.INTRA.SOLV.lig_0>
-160.638

>  <SCORE.INTRA.VDW>
10.0729

>  <SCORE.INTRA.VDW.0>
-7.61953

>  <SCORE.INTRA.norm>
0.292554

>  <SCORE.RESTR>
4.4295

>  <SCORE.RESTR.CAVITY>
4.4295

>  <SCORE.RESTR.norm>
0.105464

>  <SCORE.SYSTEM>
0

>  <SCORE.SYSTEM.CONST>
0

>  <SCORE.SYSTEM.DIHEDRAL>
0

>  <SCORE.SYSTEM.SOLV>
0

>  <SCORE.SYSTEM.norm>
0

>  <SCORE.heavy>
42

>  <SCORE.norm>
-0.949439

>  <RMSD>
9.490

$$$$
1NEM.B
 OpenBabel11021811403D
libRbt.so/2013.1/901 2013/11/27
 42 45  0  0  0  0  0  0  0  0999 V2000
   -4.5830   -2.3472    5.6716 O   0  0  0  0  0  0  0  0  0  0  0  0
   -4.6552   -3.0124    4.4089 C   0  0  0  0  0  0  0  0  0  0  0  0
   -5.7024   -2.4091    3.4739 C   0  0  1  0  0  0  0  0  0  0  0  0
   -5.1956   -1.2392    2.8382 O   0  0  0  0  0  0  0  0  0  0  0  0
   -6.0944   -3.2968    2.3034 C   0  0  1  0  0  0  0  0  0  0  0  0
   -6.8883   -4.3640    2.8270 O   0  0  0  0  0  0  0  0  0  0  0  0
   -6.8189   -2.2670    1.4570 C   0  0  1  0  0  0  0  0  0  0  0  0
   -8.0637   -1.8674    2.0401 O   0  0  0  0  0  0  0  0  0  0  0  0
   -5.8009   -1.1243    1.5502 C   0  0  2  0  0  0  0  0  0  0  0  0
   -7.0655   -5.4711    1.9901 C   0  0  2  0  0  0  0  0  0  0  0  0
   -8.1931   -5.1755    0.9919 C   0  0  2  0  0  0  0  0  0  0  0  0
   -9.4172   -4.7452    1.7175 N   0  3  0  0  0  0  0  0  0  0  0  0
   -8.4625   -6.3904    0.0981 C   0  0  1  0  0  0  0  0  0  0  0  0
   -7.3782   -6.5700   -0.8033 O   0  0  0  0  0  0  0  0  0  0  0  0
   -8.6520   -7.6602    0.9335 C   0  0  2  0  0  0  0  0  0  0  0  0
   -9.8638   -7.5880    1.6741 O   0  0  0  0  0  0  0  0  0  0  0  0
   -7.4703   -7.8304    1.8840 C   0  0  1  0  0  0  0  0  0  0  0  0
   -7.3445   -6.6610    2.7162 O   0  0  0  0  0  0  0  0  0  0  0  0
   -7.6015   -9.0402    2.7924 C   0  0  0  0  0  0  0  0  0  0  0  0
   -7.4931  -10.3101    2.0403 N   0  3  0  0  0  0  0  0  0  0  0  0
    2.2218   -2.2131    1.6094 C   0  0  0  0  0  0  0  0  0  0  0  0
   -1.0554   -2.6292   -0.0681 C   0  0  2  0  0  0  0  0  0  0  0  0
   -1.3894   -4.0744    0.2934 C   0  0  2  0  0  0  0  0  0  0  0  0
   -2.8420   -4.3216    0.1308 N   0  3  0  0  0  0  0  0  0  0  0  0
   -0.9872   -4.3615    1.7339 C   0  0  1  0  0  0  0  0  0  0  0  0
   -1.2308   -5.7274    2.0330 O   0  0  0  0  0  0  0  0  0  0  0  0
    0.4928   -4.0375    1.9254 C   0  0  2  0  0  0  0  0  0  0  0  0
    0.8598   -4.2370    3.2844 O   0  0  0  0  0  0  0  0  0  0  0  0
    2.9934   -2.8051    0.4926 N   0  3  0  0  0  0  0  0  0  0  0  0
    0.7514   -2.5850    1.5299 C   0  0  2  0  0  0  0  0  0  0  0  0
    0.3227   -2.3568    0.1721 O   0  0  0  0  0  0  0  0  0  0  0  0
   -3.3838    2.0783   -0.4074 C   0  0  2  0  0  0  0  0  0  0  0  0
   -3.9973    3.1716   -1.1958 N   0  3  0  0  0  0  0  0  0  0  0  0
   -2.1403    1.5571   -1.1189 C   0  0  0  0  0  0  0  0  0  0  0  0
   -1.4999    0.4305   -0.3203 C   0  0  2  0  0  0  0  0  0  0  0  0
   -0.3227   -0.0197   -1.0494 N   0  3  0  0  0  0  0  0  0  0  0  0
   -2.4991   -0.7101   -0.1419 C   0  0  1  0  0  0  0  0  0  0  0  0
   -1.8950   -1.7599    0.6387 O   0  0  0  0  0  0  0  0  0  0  0  0
   -3.7694   -0.2157    0.5640 C   0  0  2  0  0  0  0  0  0  0  0  0
   -4.7302   -1.2872    0.6228 O   0  0  0  0  0  0  0  0  0  0  0  0
   -4.3993    0.9601   -0.1784 C   0  0  1  0  0  0  0  0  0  0  0  0
   -5.4959    1.4631    0.5732 O   0  0  0  0  0  0  0  0  0  0  0  0
  1  2  1  0  0  0  0
  3  2  1  6  0  0  0
  3  5  1  0  0  0  0
  3  4  1  0  0  0  0
  4  9  1  0  0  0  0
  5  7  1  0  0  0  0
  5  6  1  1  0  0  0
  7  9  1  0  0  0  0
  7  8  1  1  0  0  0
  9 40  1  6  0  0  0
 10  6  1  1  0  0  0
 10 11  1  0  0  0  0
 10 18  1  0  0  0  0
 11 13  1  0  0  0  0
 11 12  1  1  0  0  0
 13 15  1  0  0  0  0
 13 14  1  6  0  0  0
 15 17  1  0  0  0  0
 15 16  1  1  0  0  0
 17 19  1  1  0  0  0
 17 18  1  0  0  0  0
 19 20  1  0  0  0  0
 21 29  1  0  0  0  0
 22 23  1  0  0  0  0
 22 31  1  0  0  0  0
 22 38  1  1  0  0  0
 23 25  1  0  0  0  0
 23 24  1  1  0  0  0
 25 27  1  0  0  0  0
 25 26  1  6  0  0  0
 27 30  1  0  0  0  0
 27 28  1  1  0  0  0
 30 21  1  6  0  0  0
 30 31  1  0  0  0  0
 32 34  1  0  0  0  0
 32 41  1  0  0  0  0
 32 33  1  6  0  0  0
 34 35  1  0  0  0  0
 35 37  1  0  0  0  0
 35 36  1  6  0  0  0
 37 39  1  0  0  0  0
 37 38  1  1  0  0  0
 39 41  1  0  0  0  0
 39 40  1  6  0  0  0
 41 42  1  1  0  0  0
M  CHG  6  12   1  20   1  24   1  29   1  33   1  36   1
M  END
>  <CHROM.1>
60.37758746,80.34433328,-164.12000931,-81.87112480,-9.76814272,-69.67700873
18.94056454,-49.18848904,179.57217720,68.57633221,-179.87450876,73.95985450
-162.93417685,-133.13962001,60.21173773,46.26192992,79.34857825,24.45329513
-61.43911987,-81.15136942,163.36887568,-49.33598898,-4.21798313,-3.19562834
1.29265637,2.44568797,-0.01701117,2.91902394

>  <Name>
1NEM.B

>  <RI>
0

>  <Rbt.Current_Directory>
/home/itssahil/PROJECTS/Mol_Feturizer/New_Systems/rnas/1nem

>  <Rbt.Executable>
rbdock ($Id: //depot/dev/client3/rdock/2013.1/src/exe/rbdock.cxx#4 $)

>  <Rbt.Library>
libRbt.so (2013.1, Build901 2013/11/27)

>  <Rbt.Parameter_File>
/export/apps/rDock/src/rDock_2013.1_src/data/scripts/dock_solv.prm

>  <Rbt.Receptor>
prm/blind_docking_100.prm

>  <SCORE>
30.5682

>  <SCORE.INTER>
19.5103

>  <SCORE.INTER.CONST>
1

>  <SCORE.INTER.POLAR>
-7.84629

>  <SCORE.INTER.ROT>
9

>  <SCORE.INTER.SOLV>
55.3771

>  <SCORE.INTER.VDW>
11.1021

>  <SCORE.INTER.norm>
0.46453

>  <SCORE.INTRA>
7.65358

>  <SCORE.INTRA.DIHEDRAL>
9.5161

>  <SCORE.INTRA.DIHEDRAL.0>
22.4324

>  <SCORE.INTRA.POLAR>
-0.281993

>  <SCORE.INTRA.POLAR.0>
-1.83749

>  <SCORE.INTRA.REPUL>
0

>  <SCORE.INTRA.REPUL.0>
0

>  <SCORE.INTRA.SOLV>
-1.11953

>  <SCORE.INTRA.SOLV.lig_0>
-160.638

>  <SCORE.INTRA.VDW>
4.41407

>  <SCORE.INTRA.VDW.0>
-7.61953

>  <SCORE.INTRA.norm>
0.182228

>  <SCORE.RESTR>
3.40439

>  <SCORE.RESTR.CAVITY>
3.40439

>  <SCORE.RESTR.norm>
0.0810568

>  <SCORE.SYSTEM>
0

>  <SCORE.SYSTEM.CONST>
0

>  <SCORE.SYSTEM.DIHEDRAL>
0

>  <SCORE.SYSTEM.SOLV>
0

>  <SCORE.SYSTEM.norm>
0

>  <SCORE.heavy>
42

>  <SCORE.norm>
0.727815

>  <RMSD>
9.503

$$$$
1NEM.B
 OpenBabel11021811403D
libRbt.so/2013.1/901 2013/11/27
 42 45  0  0  0  0  0  0  0  0999 V2000
   -5.5257   -3.3104    6.4790 O   0  0  0  0  0  0  0  0  0  0  0  0
   -5.6165   -3.7672    5.1280 C   0  0  0  0  0  0  0  0  0  0  0  0
   -6.1232   -2.6935    4.1661 C   0  0  1  0  0  0  0  0  0  0  0  0
   -5.1790   -1.6328    4.0530 O   0  0  0  0  0  0  0  0  0  0  0  0
   -6.2947   -3.1590    2.7290 C   0  0  1  0  0  0  0  0  0  0  0  0
   -7.4404   -4.0131    2.6931 O   0  0  0  0  0  0  0  0  0  0  0  0
   -6.4380   -1.8064    2.0570 C   0  0  1  0  0  0  0  0  0  0  0  0
   -7.6788   -1.1705    2.3813 O   0  0  0  0  0  0  0  0  0  0  0  0
   -5.2759   -1.0770    2.7414 C   0  0  2  0  0  0  0  0  0  0  0  0
   -7.3440   -5.1430    1.8738 C   0  0  2  0  0  0  0  0  0  0  0  0
   -8.0598   -4.8669    0.5446 C   0  0  2  0  0  0  0  0  0  0  0  0
   -9.4492   -4.4035    0.7999 N   0  3  0  0  0  0  0  0  0  0  0  0
   -8.0329   -6.1054   -0.3569 C   0  0  1  0  0  0  0  0  0  0  0  0
   -6.7105   -6.3223   -0.8312 O   0  0  0  0  0  0  0  0  0  0  0  0
   -8.5190   -7.3478    0.3958 C   0  0  2  0  0  0  0  0  0  0  0  0
   -9.9086   -7.2419    0.6783 O   0  0  0  0  0  0  0  0  0  0  0  0
   -7.7336   -7.5006    1.6954 C   0  0  1  0  0  0  0  0  0  0  0  0
   -7.8757   -6.3080    2.4913 O   0  0  0  0  0  0  0  0  0  0  0  0
   -8.1886   -8.6813    2.5350 C   0  0  0  0  0  0  0  0  0  0  0  0
   -7.4881   -8.7355    3.8374 N   0  3  0  0  0  0  0  0  0  0  0  0
    2.7003   -2.8443    1.0405 C   0  0  0  0  0  0  0  0  0  0  0  0
   -0.8826   -2.5787    0.1355 C   0  0  2  0  0  0  0  0  0  0  0  0
   -1.3875   -3.9664    0.5232 C   0  0  2  0  0  0  0  0  0  0  0  0
   -2.8609   -3.9494    0.6860 N   0  3  0  0  0  0  0  0  0  0  0  0
   -0.7412   -4.4146    1.8272 C   0  0  1  0  0  0  0  0  0  0  0  0
   -1.1586   -5.7355    2.1360 O   0  0  0  0  0  0  0  0  0  0  0  0
    0.7787   -4.3627    1.6885 C   0  0  2  0  0  0  0  0  0  0  0  0
    1.3894   -4.7132    2.9236 O   0  0  0  0  0  0  0  0  0  0  0  0
    3.1366   -1.4316    0.9569 N   0  3  0  0  0  0  0  0  0  0  0  0
    1.2053   -2.9526    1.2849 C   0  0  2  0  0  0  0  0  0  0  0  0
    0.5408   -2.5633    0.0657 O   0  0  0  0  0  0  0  0  0  0  0  0
   -3.5546    1.9687    0.4377 C   0  0  2  0  0  0  0  0  0  0  0  0
   -4.5401    2.9309   -0.1066 N   0  3  0  0  0  0  0  0  0  0  0  0
   -2.6403    1.4728   -0.6769 C   0  0  0  0  0  0  0  0  0  0  0  0
   -1.6227    0.4804   -0.1320 C   0  0  2  0  0  0  0  0  0  0  0  0
   -0.7833    0.0484   -1.2406 N   0  3  0  0  0  0  0  0  0  0  0  0
   -2.3452   -0.7075    0.4991 C   0  0  1  0  0  0  0  0  0  0  0  0
   -1.3759   -1.6281    1.0372 O   0  0  0  0  0  0  0  0  0  0  0  0
   -3.2834   -0.2408    1.6208 C   0  0  2  0  0  0  0  0  0  0  0  0
   -4.0248   -1.3690    2.1228 O   0  0  0  0  0  0  0  0  0  0  0  0
   -4.2746    0.8068    1.1202 C   0  0  1  0  0  0  0  0  0  0  0  0
   -5.0372    1.2993    2.2140 O   0  0  0  0  0  0  0  0  0  0  0  0
  1  2  1  0  0  0  0
  3  2  1  1  0  0  0
  3  5  1  0  0  0  0
  3  4  1  0  0  0  0
  4  9  1  0  0  0  0
  5  7  1  0  0  0  0
  5  6  1  1  0  0  0
  7  9  1  0  0  0  0
  7  8  1  1  0  0  0
  9 40  1  6  0  0  0
 10  6  1  1  0  0  0
 10 11  1  0  0  0  0
 10 18  1  0  0  0  0
 11 13  1  0  0  0  0
 11 12  1  1  0  0  0
 13 15  1  0  0  0  0
 13 14  1  1  0  0  0
 15 17  1  0  0  0  0
 15 16  1  1  0  0  0
 17 19  1  1  0  0  0
 17 18  1  0  0  0  0
 19 20  1  0  0  0  0
 21 29  1  0  0  0  0
 22 23  1  0  0  0  0
 22 31  1  0  0  0  0
 22 38  1  1  0  0  0
 23 25  1  0  0  0  0
 23 24  1  1  0  0  0
 25 27  1  0  0  0  0
 25 26  1  6  0  0  0
 27 30  1  0  0  0  0
 27 28  1  1  0  0  0
 30 21  1  6  0  0  0
 30 31  1  0  0  0  0
 32 34  1  0  0  0  0
 32 41  1  0  0  0  0
 32 33  1  6  0  0  0
 34 35  1  0  0  0  0
 35 37  1  0  0  0  0
 35 36  1  6  0  0  0
 37 39  1  0  0  0  0
 37 38  1  1  0  0  0
 39 41  1  0  0  0  0
 39 40  1  6  0  0  0
 41 42  1  1  0  0  0
M  CHG  6  12   1  20   1  24   1  29   1  33   1  36   1
M  END
>  <CHROM.1>
-174.70964046,66.48197165,-140.59111258,-99.67531270,-41.13764579,-123.29268250
-104.38226407,49.33683611,-86.63823946,-175.18632428,-83.25319015,-167.00010249
-65.46640210,-111.24930515,73.56582942,-67.38146828,-179.15527842,168.06398435
-166.76209237,-86.76571172,-155.34532546,41.27415932,-4.19517609,-3.10022623
1.60030226,2.57530173,-0.07772085,3.01903706

>  <Name>
1NEM.B

>  <RI>
0

>  <Rbt.Current_Directory>
/home/itssahil/PROJECTS/Mol_Feturizer/New_Systems/rnas/1nem

>  <Rbt.Executable>
rbdock ($Id: //depot/dev/client3/rdock/2013.1/src/exe/rbdock.cxx#4 $)

>  <Rbt.Library>
libRbt.so (2013.1, Build901 2013/11/27)

>  <Rbt.Parameter_File>
/export/apps/rDock/src/rDock_2013.1_src/data/scripts/dock_solv.prm

>  <Rbt.Receptor>
prm/blind_docking_100.prm

>  <SCORE>
18.8027

>  <SCORE.INTER>
-3.12475

>  <SCORE.INTER.CONST>
1

>  <SCORE.INTER.POLAR>
-7.44102

>  <SCORE.INTER.ROT>
9

>  <SCORE.INTER.SOLV>
49.2583

>  <SCORE.INTER.VDW>
-3.29918

>  <SCORE.INTER.norm>
-0.0743987

>  <SCORE.INTRA>
20.0626

>  <SCORE.INTRA.DIHEDRAL>
21.2178

>  <SCORE.INTRA.DIHEDRAL.0>
22.4324

>  <SCORE.INTRA.POLAR>
-0.331287

>  <SCORE.INTRA.POLAR.0>
-1.83749

>  <SCORE.INTRA.REPUL>
0.0383907

>  <SCORE.INTRA.REPUL.0>
0

>  <SCORE.INTRA.SOLV>
-4.33993

>  <SCORE.INTRA.SOLV.lig_0>
-160.638

>  <SCORE.INTRA.VDW>
12.5581

>  <SCORE.INTRA.VDW.0>
-7.61953

>  <SCORE.INTRA.norm>
0.477681

>  <SCORE.RESTR>
1.86484

>  <SCORE.RESTR.CAVITY>
1.86484

>  <SCORE.RESTR.norm>
0.044401

>  <SCORE.SYSTEM>
0

>  <SCORE.SYSTEM.CONST>
0

>  <SCORE.SYSTEM.DIHEDRAL>
0

>  <SCORE.SYSTEM.SOLV>
0

>  <SCORE.SYSTEM.norm>
0

>  <SCORE.heavy>
42

>  <SCORE.norm>
0.447683

>  <RMSD>
9.522

$$$$
1NEM.B
 OpenBabel11021811403D
libRbt.so/2013.1/901 2013/11/27
 42 45  0  0  0  0  0  0  0  0999 V2000
   -3.6836   -5.7838    2.3103 O   0  0  0  0  0  0  0  0  0  0  0  0
   -4.4590   -5.5146    3.4801 C   0  0  0  0  0  0  0  0  0  0  0  0
   -4.7456   -4.0269    3.6787 C   0  0  1  0  0  0  0  0  0  0  0  0
   -3.5332   -3.2791    3.7010 O   0  0  0  0  0  0  0  0  0  0  0  0
   -5.5328   -3.3766    2.5523 C   0  0  1  0  0  0  0  0  0  0  0  0
   -6.8780   -3.8512    2.6451 O   0  0  0  0  0  0  0  0  0  0  0  0
   -5.3028   -1.9207    2.9119 C   0  0  1  0  0  0  0  0  0  0  0  0
   -5.9985   -1.5421    4.1042 O   0  0  0  0  0  0  0  0  0  0  0  0
   -3.7935   -1.9770    3.1763 C   0  0  2  0  0  0  0  0  0  0  0  0
   -7.1621   -5.0411    1.9664 C   0  0  2  0  0  0  0  0  0  0  0  0
   -8.0538   -4.7328    0.7559 C   0  0  2  0  0  0  0  0  0  0  0  0
   -9.2512   -3.9641    1.1867 N   0  3  0  0  0  0  0  0  0  0  0  0
   -8.4416   -6.0206    0.0221 C   0  0  1  0  0  0  0  0  0  0  0  0
   -7.3032   -6.5535   -0.6416 O   0  0  0  0  0  0  0  0  0  0  0  0
   -9.0044   -7.0625    0.9938 C   0  0  2  0  0  0  0  0  0  0  0  0
  -10.2661   -6.6395    1.4951 O   0  0  0  0  0  0  0  0  0  0  0  0
   -8.0278   -7.2681    2.1482 C   0  0  1  0  0  0  0  0  0  0  0  0
   -7.7799   -6.0094    2.8042 O   0  0  0  0  0  0  0  0  0  0  0  0
   -8.5319   -8.2491    3.1920 C   0  0  0  0  0  0  0  0  0  0  0  0
   -7.9650   -9.6022    2.9976 N   0  3  0  0  0  0  0  0  0  0  0  0
    3.2617    0.9295    2.0797 C   0  0  0  0  0  0  0  0  0  0  0  0
    0.8720   -1.4980    0.6223 C   0  0  2  0  0  0  0  0  0  0  0  0
    1.5097   -2.8223    1.0351 C   0  0  2  0  0  0  0  0  0  0  0  0
    0.5104   -3.9153    0.9701 N   0  3  0  0  0  0  0  0  0  0  0  0
    2.0560   -2.7223    2.4530 C   0  0  1  0  0  0  0  0  0  0  0  0
    2.7139   -3.9322    2.7962 O   0  0  0  0  0  0  0  0  0  0  0  0
    3.0308   -1.5503    2.5435 C   0  0  2  0  0  0  0  0  0  0  0  0
    3.4926   -1.4073    3.8806 O   0  0  0  0  0  0  0  0  0  0  0  0
    3.6897    1.3100    3.4453 N   0  3  0  0  0  0  0  0  0  0  0  0
    2.3281   -0.2682    2.1014 C   0  0  2  0  0  0  0  0  0  0  0  0
    1.8000   -0.4263    0.7688 O   0  0  0  0  0  0  0  0  0  0  0  0
   -3.3675    1.4321    0.2540 C   0  0  2  0  0  0  0  0  0  0  0  0
   -4.4970    2.0368   -0.4889 N   0  3  0  0  0  0  0  0  0  0  0  0
   -2.1633    1.2734   -0.6673 C   0  0  0  0  0  0  0  0  0  0  0  0
   -0.9944    0.6504    0.0829 C   0  0  2  0  0  0  0  0  0  0  0  0
    0.1185    0.5280   -0.8480 N   0  3  0  0  0  0  0  0  0  0  0  0
   -1.3999   -0.7163    0.6296 C   0  0  1  0  0  0  0  0  0  0  0  0
   -0.2977   -1.2865    1.3620 O   0  0  0  0  0  0  0  0  0  0  0  0
   -2.6182   -0.5929    1.5551 C   0  0  2  0  0  0  0  0  0  0  0  0
   -3.0379   -1.9071    1.9691 O   0  0  0  0  0  0  0  0  0  0  0  0
   -3.7879    0.0900    0.8507 C   0  0  1  0  0  0  0  0  0  0  0  0
   -4.8459    0.2945    1.7777 O   0  0  0  0  0  0  0  0  0  0  0  0
  1  2  1  0  0  0  0
  3  2  1  6  0  0  0
  3  5  1  0  0  0  0
  3  4  1  0  0  0  0
  4  9  1  0  0  0  0
  5  7  1  0  0  0  0
  5  6  1  1  0  0  0
  7  9  1  0  0  0  0
  7  8  1  1  0  0  0
  9 40  1  6  0  0  0
 10  6  1  1  0  0  0
 10 11  1  0  0  0  0
 10 18  1  0  0  0  0
 11 13  1  0  0  0  0
 11 12  1  1  0  0  0
 13 15  1  0  0  0  0
 13 14  1  1  0  0  0
 15 17  1  0  0  0  0
 15 16  1  1  0  0  0
 17 19  1  1  0  0  0
 17 18  1  0  0  0  0
 19 20  1  0  0  0  0
 21 29  1  0  0  0  0
 22 23  1  0  0  0  0
 22 31  1  0  0  0  0
 22 38  1  1  0  0  0
 23 25  1  0  0  0  0
 23 24  1  1  0  0  0
 25 27  1  0  0  0  0
 25 26  1  6  0  0  0
 27 30  1  0  0  0  0
 27 28  1  1  0  0  0
 30 21  1  6  0  0  0
 30 31  1  0  0  0  0
 32 34  1  0  0  0  0
 32 41  1  0  0  0  0
 32 33  1  6  0  0  0
 34 35  1  0  0  0  0
 35 37  1  0  0  0  0
 35 36  1  6  0  0  0
 37 39  1  0  0  0  0
 37 38  1  1  0  0  0
 39 41  1  0  0  0  0
 39 40  1  6  0  0  0
 41 42  1  1  0  0  0
M  CHG  6  12   1  20   1  24   1  29   1  33   1  36   1
M  END
>  <CHROM.1>
-49.88658772,-55.42678230,-87.95448933,-109.52696825,-53.51119813,-152.73741520
-74.81118694,-56.66898366,-173.91486684,98.21160373,-157.24170926,-67.78024650
-58.23215550,-140.43011507,127.97554723,86.54838928,-54.90322013,-38.04521760
34.97614803,-60.49230776,157.29866609,55.36971499,-3.27778783,-2.80322742
1.78891243,-2.63188893,-0.16373219,-0.31941135

>  <Name>
1NEM.B

>  <RI>
0

>  <Rbt.Current_Directory>
/home/itssahil/PROJECTS/Mol_Feturizer/New_Systems/rnas/1nem

>  <Rbt.Executable>
rbdock ($Id: //depot/dev/client3/rdock/2013.1/src/exe/rbdock.cxx#4 $)

>  <Rbt.Library>
libRbt.so (2013.1, Build901 2013/11/27)

>  <Rbt.Parameter_File>
/export/apps/rDock/src/rDock_2013.1_src/data/scripts/dock_solv.prm

>  <Rbt.Receptor>
prm/blind_docking_80.prm

>  <SCORE>
-22.4065

>  <SCORE.INTER>
-41.6919

>  <SCORE.INTER.CONST>
1

>  <SCORE.INTER.POLAR>
-6.01272

>  <SCORE.INTER.ROT>
9

>  <SCORE.INTER.SOLV>
42.9419

>  <SCORE.INTER.VDW>
-31.6661

>  <SCORE.INTER.norm>
-0.992663

>  <SCORE.INTRA>
14.0456

>  <SCORE.INTRA.DIHEDRAL>
14.2378

>  <SCORE.INTRA.DIHEDRAL.0>
22.4324

>  <SCORE.INTRA.POLAR>
-0.307842

>  <SCORE.INTRA.POLAR.0>
-1.83749

>  <SCORE.INTRA.REPUL>
0

>  <SCORE.INTRA.REPUL.0>
0

>  <SCORE.INTRA.SOLV>
-3.58164

>  <SCORE.INTRA.SOLV.lig_0>
-160.638

>  <SCORE.INTRA.VDW>
9.76416

>  <SCORE.INTRA.VDW.0>
-7.61953

>  <SCORE.INTRA.norm>
0.334418

>  <SCORE.RESTR>
5.23984

>  <SCORE.RESTR.CAVITY>
5.23984

>  <SCORE.RESTR.norm>
0.124758

>  <SCORE.SYSTEM>
0

>  <SCORE.SYSTEM.CONST>
0

>  <SCORE.SYSTEM.DIHEDRAL>
0

>  <SCORE.SYSTEM.SOLV>
0

>  <SCORE.SYSTEM.norm>
0

>  <SCORE.heavy>
42

>  <SCORE.norm>
-0.533487

>  <RMSD>
9.546

$$$$
1NEM.B
 OpenBabel11021811403D
libRbt.so/2013.1/901 2013/11/27
 42 45  0  0  0  0  0  0  0  0999 V2000
   -7.7869   -2.7207    1.9334 O   0  0  0  0  0  0  0  0  0  0  0  0
   -7.9680   -3.2277    0.6096 C   0  0  0  0  0  0  0  0  0  0  0  0
   -6.6632   -3.3177   -0.1804 C   0  0  1  0  0  0  0  0  0  0  0  0
   -5.9655   -2.0762   -0.1433 O   0  0  0  0  0  0  0  0  0  0  0  0
   -5.6488   -4.3017    0.3801 C   0  0  1  0  0  0  0  0  0  0  0  0
   -6.1369   -5.6170    0.1061 O   0  0  0  0  0  0  0  0  0  0  0  0
   -4.4283   -3.8562   -0.4034 C   0  0  1  0  0  0  0  0  0  0  0  0
   -4.5262   -4.1898   -1.7920 O   0  0  0  0  0  0  0  0  0  0  0  0
   -4.5642   -2.3409   -0.2133 C   0  0  2  0  0  0  0  0  0  0  0  0
   -7.5082   -5.8196    0.2949 C   0  0  2  0  0  0  0  0  0  0  0  0
   -7.8517   -5.6090    1.7758 C   0  0  2  0  0  0  0  0  0  0  0  0
   -6.9771   -6.4569    2.6281 N   0  3  0  0  0  0  0  0  0  0  0  0
   -9.3360   -5.8858    2.0361 C   0  0  1  0  0  0  0  0  0  0  0  0
  -10.1234   -4.8559    1.4532 O   0  0  0  0  0  0  0  0  0  0  0  0
   -9.7549   -7.2417    1.4595 C   0  0  2  0  0  0  0  0  0  0  0  0
   -9.1446   -8.2986    2.1893 O   0  0  0  0  0  0  0  0  0  0  0  0
   -9.3500   -7.3218   -0.0097 C   0  0  1  0  0  0  0  0  0  0  0  0
   -7.9307   -7.1073   -0.1344 O   0  0  0  0  0  0  0  0  0  0  0  0
   -9.6800   -8.6587   -0.6499 C   0  0  0  0  0  0  0  0  0  0  0  0
   -9.0044   -8.8275   -1.9557 N   0  3  0  0  0  0  0  0  0  0  0  0
   -3.1698   -3.3073    3.6478 C   0  0  0  0  0  0  0  0  0  0  0  0
   -0.6926   -1.7090    1.4036 C   0  0  2  0  0  0  0  0  0  0  0  0
    0.4427   -2.7289    1.4449 C   0  0  2  0  0  0  0  0  0  0  0  0
    1.3419   -2.5432    0.2811 N   0  3  0  0  0  0  0  0  0  0  0  0
   -0.1216   -4.1433    1.4256 C   0  0  1  0  0  0  0  0  0  0  0  0
    0.9381   -5.0802    1.5425 O   0  0  0  0  0  0  0  0  0  0  0  0
   -1.1059   -4.3165    2.5801 C   0  0  2  0  0  0  0  0  0  0  0  0
   -1.6893   -5.6121    2.5282 O   0  0  0  0  0  0  0  0  0  0  0  0
   -3.8624   -4.6142    3.7206 N   0  3  0  0  0  0  0  0  0  0  0  0
   -2.1996   -3.2548    2.4805 C   0  0  2  0  0  0  0  0  0  0  0  0
   -1.6125   -1.9377    2.4679 O   0  0  0  0  0  0  0  0  0  0  0  0
   -3.5680    1.8108    0.7088 C   0  0  2  0  0  0  0  0  0  0  0  0
   -4.5441    2.8985    0.4690 N   0  3  0  0  0  0  0  0  0  0  0  0
   -2.5594    1.7547   -0.4330 C   0  0  0  0  0  0  0  0  0  0  0  0
   -1.5504    0.6388   -0.2009 C   0  0  2  0  0  0  0  0  0  0  0  0
   -0.6192    0.6397   -1.3203 N   0  3  0  0  0  0  0  0  0  0  0  0
   -2.2754   -0.7009   -0.0968 C   0  0  1  0  0  0  0  0  0  0  0  0
   -1.3165   -1.7476    0.1509 O   0  0  0  0  0  0  0  0  0  0  0  0
   -3.3072   -0.6748    1.0393 C   0  0  2  0  0  0  0  0  0  0  0  0
   -4.0439   -1.9125    1.0433 O   0  0  0  0  0  0  0  0  0  0  0  0
   -4.2951    0.4768    0.8702 C   0  0  1  0  0  0  0  0  0  0  0  0
   -5.1507    0.5381    2.0037 O   0  0  0  0  0  0  0  0  0  0  0  0
  1  2  1  0  0  0  0
  3  2  1  1  0  0  0
  3  5  1  0  0  0  0
  3  4  1  0  0  0  0
  4  9  1  0  0  0  0
  5  7  1  0  0  0  0
  5  6  1  6  0  0  0
  7  9  1  0  0  0  0
  7  8  1  6  0  0  0
  9 40  1  1  0  0  0
 10  6  1  1  0  0  0
 10 11  1  0  0  0  0
 10 18  1  0  0  0  0
 11 13  1  0  0  0  0
 11 12  1  1  0  0  0
 13 15  1  0  0  0  0
 13 14  1  6  0  0  0
 15 17  1  0  0  0  0
 15 16  1  1  0  0  0
 17 19  1  1  0  0  0
 17 18  1  0  0  0  0
 19 20  1  0  0  0  0
 21 29  1  0  0  0  0
 22 23  1  0  0  0  0
 22 31  1  0  0  0  0
 22 38  1  6  0  0  0
 23 25  1  0  0  0  0
 23 24  1  6  0  0  0
 25 27  1  0  0  0  0
 25 26  1  1  0  0  0
 27 30  1  0  0  0  0
 27 28  1  6  0  0  0
 30 21  1  1  0  0  0
 30 31  1  0  0  0  0
 32 34  1  0  0  0  0
 32 41  1  0  0  0  0
 32 33  1  6  0  0  0
 34 35  1  0  0  0  0
 35 37  1  0  0  0  0
 35 36  1  6  0  0  0
 37 39  1  0  0  0  0
 37 38  1  1  0  0  0
 39 41  1  0  0  0  0
 39 40  1  6  0  0  0
 41 42  1  1  0  0  0
M  CHG  6  12   1  20   1  24   1  29   1  33   1  36   1
M  END
>  <CHROM.1>
-170.99003777,-51.67556266,-41.45828964,-63.29541467,-178.80331419,-105.26672961
-88.61275410,95.76236633,-132.53676050,-166.61607956,-146.92181417,-60.55275688
171.08943642,-171.13344085,-32.68739544,-72.52126410,38.13223472,-158.92796562
-69.43487992,68.05147869,-48.68986930,46.94278601,-4.65491512,-3.44297517
0.88156810,2.46720673,0.12563784,3.00103468

>  <Name>
1NEM.B

>  <RI>
0

>  <Rbt.Current_Directory>
/home/itssahil/PROJECTS/Mol_Feturizer/New_Systems/rnas/1nem

>  <Rbt.Executable>
rbdock ($Id: //depot/dev/client3/rdock/2013.1/src/exe/rbdock.cxx#4 $)

>  <Rbt.Library>
libRbt.so (2013.1, Build901 2013/11/27)

>  <Rbt.Parameter_File>
/export/apps/rDock/src/rDock_2013.1_src/data/scripts/dock_solv.prm

>  <Rbt.Receptor>
prm/blind_docking_80.prm

>  <SCORE>
20.9211

>  <SCORE.INTER>
-9.87795

>  <SCORE.INTER.CONST>
1

>  <SCORE.INTER.POLAR>
-10.3861

>  <SCORE.INTER.ROT>
9

>  <SCORE.INTER.SOLV>
48.8889

>  <SCORE.INTER.VDW>
2.13887

>  <SCORE.INTER.norm>
-0.235189

>  <SCORE.INTRA>
26.7999

>  <SCORE.INTRA.DIHEDRAL>
10.0738

>  <SCORE.INTRA.DIHEDRAL.0>
22.4324

>  <SCORE.INTRA.POLAR>
0.378949

>  <SCORE.INTRA.POLAR.0>
-1.83749

>  <SCORE.INTRA.REPUL>
0.150705

>  <SCORE.INTRA.REPUL.0>
0

>  <SCORE.INTRA.SOLV>
1.86131

>  <SCORE.INTRA.SOLV.lig_0>
-160.638

>  <SCORE.INTRA.VDW>
18.7904

>  <SCORE.INTRA.VDW.0>
-7.61953

>  <SCORE.INTRA.norm>
0.638092

>  <SCORE.RESTR>
3.99922

>  <SCORE.RESTR.CAVITY>
3.99922

>  <SCORE.RESTR.norm>
0.0952194

>  <SCORE.SYSTEM>
0

>  <SCORE.SYSTEM.CONST>
0

>  <SCORE.SYSTEM.DIHEDRAL>
0

>  <SCORE.SYSTEM.SOLV>
0

>  <SCORE.SYSTEM.norm>
0

>  <SCORE.heavy>
42

>  <SCORE.norm>
0.498122

>  <RMSD>
9.559

$$$$
1NEM.B
 OpenBabel11021811403D
libRbt.so/2013.1/901 2013/11/27
 42 45  0  0  0  0  0  0  0  0999 V2000
   -4.3228   -5.9943    4.8723 O   0  0  0  0  0  0  0  0  0  0  0  0
   -3.8410   -4.6615    5.0556 C   0  0  0  0  0  0  0  0  0  0  0  0
   -4.8159   -3.5982    4.5519 C   0  0  1  0  0  0  0  0  0  0  0  0
   -4.1246   -2.3973    4.2213 O   0  0  0  0  0  0  0  0  0  0  0  0
   -5.5297   -3.9542    3.2576 C   0  0  1  0  0  0  0  0  0  0  0  0
   -6.4870   -4.9699    3.5660 O   0  0  0  0  0  0  0  0  0  0  0  0
   -6.0841   -2.5858    2.9083 C   0  0  1  0  0  0  0  0  0  0  0  0
   -7.1301   -2.1831    3.7988 O   0  0  0  0  0  0  0  0  0  0  0  0
   -4.8247   -1.7482    3.1597 C   0  0  2  0  0  0  0  0  0  0  0  0
   -7.5018   -5.1700    2.6239 C   0  0  2  0  0  0  0  0  0  0  0  0
   -8.4357   -6.2844    3.1149 C   0  0  2  0  0  0  0  0  0  0  0  0
   -7.6484   -7.5015    3.4452 N   0  3  0  0  0  0  0  0  0  0  0  0
   -9.5252   -6.5790    2.0787 C   0  0  1  0  0  0  0  0  0  0  0  0
  -10.4428   -5.4945    2.0289 O   0  0  0  0  0  0  0  0  0  0  0  0
   -8.9205   -6.8045    0.6895 C   0  0  2  0  0  0  0  0  0  0  0  0
   -8.1799   -8.0182    0.6643 O   0  0  0  0  0  0  0  0  0  0  0  0
   -8.0120   -5.6326    0.3288 C   0  0  1  0  0  0  0  0  0  0  0  0
   -6.9911   -5.4825    1.3344 O   0  0  0  0  0  0  0  0  0  0  0  0
   -7.3249   -5.7988   -1.0152 C   0  0  0  0  0  0  0  0  0  0  0  0
   -8.0165   -6.7889   -1.8704 N   0  3  0  0  0  0  0  0  0  0  0  0
    2.8778   -0.5499    0.5825 C   0  0  0  0  0  0  0  0  0  0  0  0
   -0.2832   -2.4806    0.6694 C   0  0  2  0  0  0  0  0  0  0  0  0
    0.1620   -3.7406    1.4079 C   0  0  2  0  0  0  0  0  0  0  0  0
   -1.0135   -4.4510    1.9655 N   0  3  0  0  0  0  0  0  0  0  0  0
    1.1146   -3.3769    2.5390 C   0  0  1  0  0  0  0  0  0  0  0  0
    1.5814   -4.5608    3.1675 O   0  0  0  0  0  0  0  0  0  0  0  0
    2.2911   -2.5799    1.9799 C   0  0  2  0  0  0  0  0  0  0  0  0
    3.1496   -2.1771    3.0392 O   0  0  0  0  0  0  0  0  0  0  0  0
    3.5624    0.3362    1.5516 N   0  3  0  0  0  0  0  0  0  0  0  0
    1.7678   -1.3478    1.2442 C   0  0  2  0  0  0  0  0  0  0  0  0
    0.8458   -1.7432    0.2083 O   0  0  0  0  0  0  0  0  0  0  0  0
   -3.5092    1.6825    0.6352 C   0  0  2  0  0  0  0  0  0  0  0  0
   -4.4700    2.5760   -0.0516 N   0  3  0  0  0  0  0  0  0  0  0  0
   -2.3493    1.3499   -0.2966 C   0  0  0  0  0  0  0  0  0  0  0  0
   -1.3540    0.4296    0.3959 C   0  0  2  0  0  0  0  0  0  0  0  0
   -0.2753    0.1526   -0.5421 N   0  3  0  0  0  0  0  0  0  0  0  0
   -2.0512   -0.8608    0.8205 C   0  0  1  0  0  0  0  0  0  0  0  0
   -1.1095   -1.7141    1.4998 O   0  0  0  0  0  0  0  0  0  0  0  0
   -3.2325   -0.5599    1.7533 C   0  0  2  0  0  0  0  0  0  0  0  0
   -3.9299   -1.7847    2.0502 O   0  0  0  0  0  0  0  0  0  0  0  0
   -4.2166    0.4150    1.1116 C   0  0  1  0  0  0  0  0  0  0  0  0
   -5.2241    0.7605    2.0531 O   0  0  0  0  0  0  0  0  0  0  0  0
  1  2  1  0  0  0  0
  3  2  1  6  0  0  0
  3  5  1  0  0  0  0
  3  4  1  0  0  0  0
  4  9  1  0  0  0  0
  5  7  1  0  0  0  0
  5  6  1  1  0  0  0
  7  9  1  0  0  0  0
  7  8  1  1  0  0  0
  9 40  1  6  0  0  0
 10  6  1  1  0  0  0
 10 11  1  0  0  0  0
 10 18  1  0  0  0  0
 11 13  1  0  0  0  0
 11 12  1  6  0  0  0
 13 15  1  0  0  0  0
 13 14  1  6  0  0  0
 15 17  1  0  0  0  0
 15 16  1  1  0  0  0
 17 19  1  6  0  0  0
 17 18  1  0  0  0  0
 19 20  1  0  0  0  0
 21 29  1  0  0  0  0
 22 23  1  0  0  0  0
 22 31  1  0  0  0  0
 22 38  1  1  0  0  0
 23 25  1  0  0  0  0
 23 24  1  1  0  0  0
 25 27  1  0  0  0  0
 25 26  1  6  0  0  0
 27 30  1  0  0  0  0
 27 28  1  1  0  0  0
 30 21  1  6  0  0  0
 30 31  1  0  0  0  0
 32 34  1  0  0  0  0
 32 41  1  0  0  0  0
 32 33  1  6  0  0  0
 34 35  1  0  0  0  0
 35 37  1  0  0  0  0
 35 36  1  6  0  0  0
 37 39  1  0  0  0  0
 37 38  1  1  0  0  0
 39 41  1  0  0  0  0
 39 40  1  6  0  0  0
 41 42  1  1  0  0  0
M  CHG  6  12   1  20   1  24   1  29   1  33   1  36   1
M  END
>  <CHROM.1>
161.75183461,-155.24902353,162.30472206,-179.78842658,57.58280671,-102.51869313
-41.43284190,-74.99153204,140.72194049,19.68561224,-91.78163372,-81.18455404
-179.58639809,-153.75277672,67.31241716,158.48228460,155.65175213,59.84496753
6.44398928,-82.23416223,164.23144873,-51.43105015,-3.65652399,-3.02368011
1.83275040,-2.64416392,-0.11351332,-0.31552767

>  <Name>
1NEM.B

>  <RI>
0

>  <Rbt.Current_Directory>
/home/itssahil/PROJECTS/Mol_Feturizer/New_Systems/rnas/1nem

>  <Rbt.Executable>
rbdock ($Id: //depot/dev/client3/rdock/2013.1/src/exe/rbdock.cxx#4 $)

>  <Rbt.Library>
libRbt.so (2013.1, Build901 2013/11/27)

>  <Rbt.Parameter_File>
/export/apps/rDock/src/rDock_2013.1_src/data/scripts/dock_solv.prm

>  <Rbt.Receptor>
prm/blind_docking_20.prm

>  <SCORE>
-17.8949

>  <SCORE.INTER>
-47.7801

>  <SCORE.INTER.CONST>
1

>  <SCORE.INTER.POLAR>
-6.11516

>  <SCORE.INTER.ROT>
9

>  <SCORE.INTER.SOLV>
40.7713

>  <SCORE.INTER.VDW>
-34.66

>  <SCORE.INTER.norm>
-1.13762

>  <SCORE.INTRA>
25.7037

>  <SCORE.INTRA.DIHEDRAL>
18.2986

>  <SCORE.INTRA.DIHEDRAL.0>
22.4324

>  <SCORE.INTRA.POLAR>
1.52354

>  <SCORE.INTRA.POLAR.0>
-1.83749

>  <SCORE.INTRA.REPUL>
0.0500701

>  <SCORE.INTRA.REPUL.0>
0

>  <SCORE.INTRA.SOLV>
1.20269

>  <SCORE.INTRA.SOLV.lig_0>
-160.638

>  <SCORE.INTRA.VDW>
10.5227

>  <SCORE.INTRA.VDW.0>
-7.61953

>  <SCORE.INTRA.norm>
0.611993

>  <SCORE.RESTR>
4.18148

>  <SCORE.RESTR.CAVITY>
4.18148

>  <SCORE.RESTR.norm>
0.0995591

>  <SCORE.SYSTEM>
0

>  <SCORE.SYSTEM.CONST>
0

>  <SCORE.SYSTEM.DIHEDRAL>
0

>  <SCORE.SYSTEM.SOLV>
0

>  <SCORE.SYSTEM.norm>
0

>  <SCORE.heavy>
42

>  <SCORE.norm>
-0.42607

>  <RMSD>
9.560

$$$$
1NEM.B
 OpenBabel11021811403D
libRbt.so/2013.1/901 2013/11/27
 42 45  0  0  0  0  0  0  0  0999 V2000
   -4.4404   -3.9394   -0.0887 O   0  0  0  0  0  0  0  0  0  0  0  0
   -4.7966   -5.0876    0.6839 C   0  0  0  0  0  0  0  0  0  0  0  0
   -4.3162   -5.0068    2.1322 C   0  0  1  0  0  0  0  0  0  0  0  0
   -2.9060   -4.8122    2.1848 O   0  0  0  0  0  0  0  0  0  0  0  0
   -4.8587   -3.8219    2.9153 C   0  0  1  0  0  0  0  0  0  0  0  0
   -6.2390   -4.0832    3.1792 O   0  0  0  0  0  0  0  0  0  0  0  0
   -3.9203   -3.8752    4.1063 C   0  0  1  0  0  0  0  0  0  0  0  0
   -4.1738   -5.0082    4.9437 O   0  0  0  0  0  0  0  0  0  0  0  0
   -2.5954   -4.0582    3.3568 C   0  0  2  0  0  0  0  0  0  0  0  0
   -6.9151   -4.8548    2.2280 C   0  0  2  0  0  0  0  0  0  0  0  0
   -7.3907   -3.9473    1.0854 C   0  0  2  0  0  0  0  0  0  0  0  0
   -8.1758   -2.8088    1.6310 N   0  3  0  0  0  0  0  0  0  0  0  0
   -8.1937   -4.7455    0.0531 C   0  0  1  0  0  0  0  0  0  0  0  0
   -7.3227   -5.6086   -0.6659 O   0  0  0  0  0  0  0  0  0  0  0  0
   -9.2942   -5.5709    0.7268 C   0  0  2  0  0  0  0  0  0  0  0  0
  -10.2988   -4.7154    1.2569 O   0  0  0  0  0  0  0  0  0  0  0  0
   -8.6898   -6.4182    1.8430 C   0  0  1  0  0  0  0  0  0  0  0  0
   -8.0122   -5.5659    2.7866 O   0  0  0  0  0  0  0  0  0  0  0  0
   -9.7222   -7.2317    2.6035 C   0  0  0  0  0  0  0  0  0  0  0  0
   -9.2258   -7.6492    3.9336 N   0  3  0  0  0  0  0  0  0  0  0  0
   -5.2648    0.1335    2.4913 C   0  0  0  0  0  0  0  0  0  0  0  0
   -2.3151   -1.0381    0.5798 C   0  0  2  0  0  0  0  0  0  0  0  0
   -2.4592   -0.2303   -0.7077 C   0  0  2  0  0  0  0  0  0  0  0  0
   -1.1652   -0.1793   -1.4291 N   0  3  0  0  0  0  0  0  0  0  0  0
   -2.9155    1.1873   -0.3895 C   0  0  1  0  0  0  0  0  0  0  0  0
   -3.1203    1.9039   -1.5974 O   0  0  0  0  0  0  0  0  0  0  0  0
   -4.2104    1.1381    0.4183 C   0  0  2  0  0  0  0  0  0  0  0  0
   -4.6061    2.4553    0.7788 O   0  0  0  0  0  0  0  0  0  0  0  0
   -6.1726   -0.8636    1.8792 N   0  3  0  0  0  0  0  0  0  0  0  0
   -3.9930    0.3027    1.6785 C   0  0  2  0  0  0  0  0  0  0  0  0
   -3.5296   -1.0165    1.3251 O   0  0  0  0  0  0  0  0  0  0  0  0
    1.1537   -4.0659    1.3952 C   0  0  2  0  0  0  0  0  0  0  0  0
    2.1034   -5.1003    1.8657 N   0  3  0  0  0  0  0  0  0  0  0  0
    1.8488   -2.7106    1.3315 C   0  0  0  0  0  0  0  0  0  0  0  0
    0.8832   -1.6363    0.8511 C   0  0  2  0  0  0  0  0  0  0  0  0
    1.6058   -0.3728    0.8112 N   0  3  0  0  0  0  0  0  0  0  0  0
   -0.3101   -1.5515    1.7999 C   0  0  1  0  0  0  0  0  0  0  0  0
   -1.2325   -0.5526    1.3229 O   0  0  0  0  0  0  0  0  0  0  0  0
   -1.0277   -2.9051    1.8946 C   0  0  2  0  0  0  0  0  0  0  0  0
   -2.0807   -2.8193    2.8737 O   0  0  0  0  0  0  0  0  0  0  0  0
   -0.0687   -4.0178    2.3105 C   0  0  1  0  0  0  0  0  0  0  0  0
   -0.7440   -5.2678    2.2646 O   0  0  0  0  0  0  0  0  0  0  0  0
  1  2  1  0  0  0  0
  3  2  1  6  0  0  0
  3  5  1  0  0  0  0
  3  4  1  0  0  0  0
  4  9  1  0  0  0  0
  5  7  1  0  0  0  0
  5  6  1  1  0  0  0
  7  9  1  0  0  0  0
  7  8  1  1  0  0  0
  9 40  1  6  0  0  0
 10  6  1  1  0  0  0
 10 11  1  0  0  0  0
 10 18  1  0  0  0  0
 11 13  1  0  0  0  0
 11 12  1  1  0  0  0
 13 15  1  0  0  0  0
 13 14  1  1  0  0  0
 15 17  1  0  0  0  0
 15 16  1  1  0  0  0
 17 19  1  1  0  0  0
 17 18  1  0  0  0  0
 19 20  1  0  0  0  0
 21 29  1  0  0  0  0
 22 23  1  0  0  0  0
 22 31  1  0  0  0  0
 22 38  1  1  0  0  0
 23 25  1  0  0  0  0
 23 24  1  1  0  0  0
 25 27  1  0  0  0  0
 25 26  1  6  0  0  0
 27 30  1  0  0  0  0
 27 28  1  1  0  0  0
 30 21  1  6  0  0  0
 30 31  1  0  0  0  0
 32 34  1  0  0  0  0
 32 41  1  0  0  0  0
 32 33  1  1  0  0  0
 34 35  1  0  0  0  0
 35 37  1  0  0  0  0
 35 36  1  1  0  0  0
 37 39  1  0  0  0  0
 37 38  1  6  0  0  0
 39 41  1  0  0  0  0
 39 40  1  1  0  0  0
 41 42  1  6  0  0  0
M  CHG  6  12   1  20   1  24   1  29   1  33   1  36   1
M  END
>  <CHROM.1>
-66.17999829,-56.51137674,-30.36842194,-83.75695043,79.68411482,-51.00292916
20.00040693,-170.98772143,178.22438800,-159.71679551,76.48371779,76.49498291
-56.32897270,-131.33922508,-89.67496962,62.43656934,-51.60801739,22.35461565
-176.38948465,97.55578679,-163.02165173,50.77883189,-4.04924536,-2.99983119
1.53407545,2.63944902,0.06671623,2.75628935

>  <Name>
1NEM.B

>  <RI>
0

>  <Rbt.Current_Directory>
/home/itssahil/PROJECTS/Mol_Feturizer/New_Systems/rnas/1nem

>  <Rbt.Executable>
rbdock ($Id: //depot/dev/client3/rdock/2013.1/src/exe/rbdock.cxx#4 $)

>  <Rbt.Library>
libRbt.so (2013.1, Build901 2013/11/27)

>  <Rbt.Parameter_File>
/export/apps/rDock/src/rDock_2013.1_src/data/scripts/dock_solv.prm

>  <Rbt.Receptor>
prm/blind_docking_20.prm

>  <SCORE>
14.5698

>  <SCORE.INTER>
-29.3875

>  <SCORE.INTER.CONST>
1

>  <SCORE.INTER.POLAR>
-6.97309

>  <SCORE.INTER.ROT>
9

>  <SCORE.INTER.SOLV>
43.6261

>  <SCORE.INTER.VDW>
-20.4901

>  <SCORE.INTER.norm>
-0.699702

>  <SCORE.INTRA>
40.856

>  <SCORE.INTRA.DIHEDRAL>
10.2819

>  <SCORE.INTRA.DIHEDRAL.0>
22.4324

>  <SCORE.INTRA.POLAR>
0.922584

>  <SCORE.INTRA.POLAR.0>
-1.83749

>  <SCORE.INTRA.REPUL>
0.663094

>  <SCORE.INTRA.REPUL.0>
0

>  <SCORE.INTRA.SOLV>
10.5737

>  <SCORE.INTRA.SOLV.lig_0>
-160.638

>  <SCORE.INTRA.VDW>
23.976

>  <SCORE.INTRA.VDW.0>
-7.61953

>  <SCORE.INTRA.norm>
0.972763

>  <SCORE.RESTR>
3.10128

>  <SCORE.RESTR.CAVITY>
3.10128

>  <SCORE.RESTR.norm>
0.0738401

>  <SCORE.SYSTEM>
0

>  <SCORE.SYSTEM.CONST>
0

>  <SCORE.SYSTEM.DIHEDRAL>
0

>  <SCORE.SYSTEM.SOLV>
0

>  <SCORE.SYSTEM.norm>
0

>  <SCORE.heavy>
42

>  <SCORE.norm>
0.3469

>  <RMSD>
9.568

$$$$
1NEM.B
 OpenBabel11021811403D
libRbt.so/2013.1/901 2013/11/27
 42 45  0  0  0  0  0  0  0  0999 V2000
   -4.7651   -8.2160    5.6971 O   0  0  0  0  0  0  0  0  0  0  0  0
   -5.1609   -7.4593    4.5513 C   0  0  0  0  0  0  0  0  0  0  0  0
   -5.4969   -6.0057    4.8811 C   0  0  1  0  0  0  0  0  0  0  0  0
   -4.3705   -5.3453    5.4509 O   0  0  0  0  0  0  0  0  0  0  0  0
   -5.8308   -5.1423    3.6750 C   0  0  1  0  0  0  0  0  0  0  0  0
   -7.1218   -5.5430    3.2102 O   0  0  0  0  0  0  0  0  0  0  0  0
   -5.7412   -3.7763    4.3291 C   0  0  1  0  0  0  0  0  0  0  0  0
   -6.8150   -3.5453    5.2472 O   0  0  0  0  0  0  0  0  0  0  0  0
   -4.4248   -3.9644    5.0924 C   0  0  2  0  0  0  0  0  0  0  0  0
   -7.5811   -4.9183    2.0457 C   0  0  2  0  0  0  0  0  0  0  0  0
   -8.7649   -5.7133    1.4782 C   0  0  2  0  0  0  0  0  0  0  0  0
   -8.3859   -7.1407    1.3073 N   0  3  0  0  0  0  0  0  0  0  0  0
   -9.2560   -5.0969    0.1644 C   0  0  1  0  0  0  0  0  0  0  0  0
   -9.8983   -3.8568    0.4293 O   0  0  0  0  0  0  0  0  0  0  0  0
   -8.0955   -4.8765   -0.8108 C   0  0  2  0  0  0  0  0  0  0  0  0
   -7.5876   -6.1249   -1.2643 O   0  0  0  0  0  0  0  0  0  0  0  0
   -6.9889   -4.0837   -0.1210 C   0  0  1  0  0  0  0  0  0  0  0  0
   -6.5607   -4.7798    1.0656 O   0  0  0  0  0  0  0  0  0  0  0  0
   -5.7710   -3.8647   -1.0011 C   0  0  0  0  0  0  0  0  0  0  0  0
   -5.2045   -2.5080   -0.8327 N   0  3  0  0  0  0  0  0  0  0  0  0
    2.4130   -0.7493    2.0126 C   0  0  0  0  0  0  0  0  0  0  0  0
   -0.3810   -3.0791    1.3102 C   0  0  2  0  0  0  0  0  0  0  0  0
    0.3640   -4.4073    1.2012 C   0  0  2  0  0  0  0  0  0  0  0  0
   -0.5759   -5.5392    1.3822 N   0  3  0  0  0  0  0  0  0  0  0  0
    1.4564   -4.4847    2.2594 C   0  0  1  0  0  0  0  0  0  0  0  0
    2.1910   -5.6883    2.0981 O   0  0  0  0  0  0  0  0  0  0  0  0
    2.3851   -3.2801    2.1241 C   0  0  2  0  0  0  0  0  0  0  0  0
    3.3670   -3.3084    3.1520 O   0  0  0  0  0  0  0  0  0  0  0  0
    3.5806   -0.7212    2.9230 N   0  3  0  0  0  0  0  0  0  0  0  0
    1.5685   -1.9934    2.2271 C   0  0  2  0  0  0  0  0  0  0  0  0
    0.5284   -1.9848    1.2283 O   0  0  0  0  0  0  0  0  0  0  0  0
   -4.3359   -0.3302    3.0820 C   0  0  2  0  0  0  0  0  0  0  0  0
   -5.6742    0.2958    2.9791 N   0  3  0  0  0  0  0  0  0  0  0  0
   -3.6934   -0.4162    1.7022 C   0  0  0  0  0  0  0  0  0  0  0  0
   -2.3170   -1.0602    1.7924 C   0  0  2  0  0  0  0  0  0  0  0  0
   -1.7595   -1.1110    0.4483 N   0  3  0  0  0  0  0  0  0  0  0  0
   -2.4397   -2.4623    2.3844 C   0  0  1  0  0  0  0  0  0  0  0  0
   -1.1302   -3.0539    2.4926 O   0  0  0  0  0  0  0  0  0  0  0  0
   -3.0933   -2.4121    3.7724 C   0  0  2  0  0  0  0  0  0  0  0  0
   -3.2891   -3.7546    4.2563 O   0  0  0  0  0  0  0  0  0  0  0  0
   -4.4485   -1.7109    3.7265 C   0  0  1  0  0  0  0  0  0  0  0  0
   -4.9583   -1.5769    5.0466 O   0  0  0  0  0  0  0  0  0  0  0  0
  1  2  1  0  0  0  0
  3  2  1  6  0  0  0
  3  5  1  0  0  0  0
  3  4  1  0  0  0  0
  4  9  1  0  0  0  0
  5  7  1  0  0  0  0
  5  6  1  1  0  0  0
  7  9  1  0  0  0  0
  7  8  1  1  0  0  0
  9 40  1  6  0  0  0
 10  6  1  1  0  0  0
 10 11  1  0  0  0  0
 10 18  1  0  0  0  0
 11 13  1  0  0  0  0
 11 12  1  6  0  0  0
 13 15  1  0  0  0  0
 13 14  1  1  0  0  0
 15 17  1  0  0  0  0
 15 16  1  1  0  0  0
 17 19  1  6  0  0  0
 17 18  1  0  0  0  0
 19 20  1  0  0  0  0
 21 29  1  0  0  0  0
 22 23  1  0  0  0  0
 22 31  1  0  0  0  0
 22 38  1  1  0  0  0
 23 25  1  0  0  0  0
 23 24  1  1  0  0  0
 25 27  1  0  0  0  0
 25 26  1  6  0  0  0
 27 30  1  0  0  0  0
 27 28  1  1  0  0  0
 30 21  1  6  0  0  0
 30 31  1  0  0  0  0
 32 34  1  0  0  0  0
 32 41  1  0  0  0  0
 32 33  1  6  0  0  0
 34 35  1  0  0  0  0
 35 37  1  0  0  0  0
 35 36  1  6  0  0  0
 37 39  1  0  0  0  0
 37 38  1  1  0  0  0
 39 41  1  0  0  0  0
 39 40  1  6  0  0  0
 41 42  1  1  0  0  0
M  CHG  6  12   1  20   1  24   1  29   1  33   1  36   1
M  END
>  <CHROM.1>
64.68258937,59.82479779,-176.21578123,164.56942603,-55.12572033,-178.77244204
84.49083253,55.44299784,-78.39455440,140.52482767,-160.42872407,-54.02192115
-58.53317960,-139.90780600,-134.47502215,-83.01022978,-58.57259420,-117.22878004
-82.96691430,-54.25557905,-148.05856462,37.03228696,-3.65878852,-3.70083350
2.34448444,-2.98028959,-0.21983785,-0.70748650

>  <Name>
1NEM.B

>  <RI>
0

>  <Rbt.Current_Directory>
/home/itssahil/PROJECTS/Mol_Feturizer/New_Systems/rnas/1nem

>  <Rbt.Executable>
rbdock ($Id: //depot/dev/client3/rdock/2013.1/src/exe/rbdock.cxx#4 $)

>  <Rbt.Library>
libRbt.so (2013.1, Build901 2013/11/27)

>  <Rbt.Parameter_File>
/export/apps/rDock/src/rDock_2013.1_src/data/scripts/dock_solv.prm

>  <Rbt.Receptor>
prm/blind_docking_60.prm

>  <SCORE>
-24.1675

>  <SCORE.INTER>
-63.5964

>  <SCORE.INTER.CONST>
1

>  <SCORE.INTER.POLAR>
-9.00019

>  <SCORE.INTER.ROT>
9

>  <SCORE.INTER.SOLV>
47.4081

>  <SCORE.INTER.VDW>
-37.7997

>  <SCORE.INTER.norm>
-1.5142

>  <SCORE.INTRA>
34.3526

>  <SCORE.INTRA.DIHEDRAL>
9.67887

>  <SCORE.INTRA.DIHEDRAL.0>
22.4324

>  <SCORE.INTRA.POLAR>
0.483912

>  <SCORE.INTRA.POLAR.0>
-1.83749

>  <SCORE.INTRA.REPUL>
0.000307506

>  <SCORE.INTRA.REPUL.0>
0

>  <SCORE.INTRA.SOLV>
1.97216

>  <SCORE.INTRA.SOLV.lig_0>
-160.638

>  <SCORE.INTRA.VDW>
26.8803

>  <SCORE.INTRA.VDW.0>
-7.61953

>  <SCORE.INTRA.norm>
0.817919

>  <SCORE.RESTR>
5.07634

>  <SCORE.RESTR.CAVITY>
5.07634

>  <SCORE.RESTR.norm>
0.120865

>  <SCORE.SYSTEM>
0

>  <SCORE.SYSTEM.CONST>
0

>  <SCORE.SYSTEM.DIHEDRAL>
0

>  <SCORE.SYSTEM.SOLV>
0

>  <SCORE.SYSTEM.norm>
0

>  <SCORE.heavy>
42

>  <SCORE.norm>
-0.575416

>  <RMSD>
9.596

$$$$
1NEM.B
 OpenBabel11021811403D
libRbt.so/2013.1/901 2013/11/27
 42 45  0  0  0  0  0  0  0  0999 V2000
    1.7293    0.5052   -3.0772 O   0  0  0  0  0  0  0  0  0  0  0  0
    2.8306    0.5974   -2.1713 C   0  0  0  0  0  0  0  0  0  0  0  0
    2.6119   -0.1916   -0.8812 C   0  0  1  0  0  0  0  0  0  0  0  0
    3.8564   -0.6200   -0.3359 O   0  0  0  0  0  0  0  0  0  0  0  0
    1.9933    0.6079    0.2544 C   0  0  1  0  0  0  0  0  0  0  0  0
    0.6205    0.8265   -0.0788 O   0  0  0  0  0  0  0  0  0  0  0  0
    2.2676   -0.3517    1.3970 C   0  0  1  0  0  0  0  0  0  0  0  0
    1.4682   -1.5361    1.3118 O   0  0  0  0  0  0  0  0  0  0  0  0
    3.7326   -0.6796    1.0853 C   0  0  2  0  0  0  0  0  0  0  0  0
    0.3019    2.0885   -0.5918 C   0  0  2  0  0  0  0  0  0  0  0  0
   -0.7268    2.7629    0.3260 C   0  0  2  0  0  0  0  0  0  0  0  0
   -1.8938    1.8650    0.5311 N   0  3  0  0  0  0  0  0  0  0  0  0
   -1.1512    4.1230   -0.2373 C   0  0  1  0  0  0  0  0  0  0  0  0
   -0.0760    5.0454   -0.1196 O   0  0  0  0  0  0  0  0  0  0  0  0
   -1.5700    4.0068   -1.7062 C   0  0  2  0  0  0  0  0  0  0  0  0
   -2.7819    3.2713   -1.8175 O   0  0  0  0  0  0  0  0  0  0  0  0
   -0.4663    3.3152   -2.5014 C   0  0  1  0  0  0  0  0  0  0  0  0
   -0.1885    2.0244   -1.9246 O   0  0  0  0  0  0  0  0  0  0  0  0
   -0.8208    3.1087   -3.9635 C   0  0  0  0  0  0  0  0  0  0  0  0
    0.3522    2.6895   -4.7624 N   0  3  0  0  0  0  0  0  0  0  0  0
    6.0127    4.8166    0.5111 C   0  0  0  0  0  0  0  0  0  0  0  0
    6.1168    1.2364   -0.4369 C   0  0  2  0  0  0  0  0  0  0  0  0
    6.5369    1.3322   -1.9016 C   0  0  2  0  0  0  0  0  0  0  0  0
    7.0883    0.0358   -2.3631 N   0  3  0  0  0  0  0  0  0  0  0  0
    7.5898    2.4186   -2.0756 C   0  0  1  0  0  0  0  0  0  0  0  0
    7.9149    2.5506   -3.4509 O   0  0  0  0  0  0  0  0  0  0  0  0
    7.0535    3.7415   -1.5331 C   0  0  2  0  0  0  0  0  0  0  0  0
    8.0558    4.7454   -1.6285 O   0  0  0  0  0  0  0  0  0  0  0  0
    4.6607    5.0568   -0.0434 N   0  3  0  0  0  0  0  0  0  0  0  0
    6.6404    3.5632   -0.0734 C   0  0  2  0  0  0  0  0  0  0  0  0
    5.6702    2.5025    0.0415 O   0  0  0  0  0  0  0  0  0  0  0  0
    6.9901   -0.5323    4.3774 C   0  0  2  0  0  0  0  0  0  0  0  0
    6.8147   -0.4894    5.8473 N   0  3  0  0  0  0  0  0  0  0  0  0
    8.1050    0.4190    3.9577 C   0  0  0  0  0  0  0  0  0  0  0  0
    8.2951    0.3871    2.4477 C   0  0  2  0  0  0  0  0  0  0  0  0
    9.3695    1.3114    2.1139 N   0  3  0  0  0  0  0  0  0  0  0  0
    6.9957    0.7891    1.7540 C   0  0  1  0  0  0  0  0  0  0  0  0
    7.1757    0.7290    0.3256 O   0  0  0  0  0  0  0  0  0  0  0  0
    5.8483   -0.1447    2.1635 C   0  0  2  0  0  0  0  0  0  0  0  0
    4.6194    0.3234    1.5759 O   0  0  0  0  0  0  0  0  0  0  0  0
    5.6758   -0.1858    3.6798 C   0  0  1  0  0  0  0  0  0  0  0  0
    4.6905   -1.1526    4.0191 O   0  0  0  0  0  0  0  0  0  0  0  0
  1  2  1  0  0  0  0
  3  2  1  6  0  0  0
  3  5  1  0  0  0  0
  3  4  1  0  0  0  0
  4  9  1  0  0  0  0
  5  7  1  0  0  0  0
  5  6  1  6  0  0  0
  7  9  1  0  0  0  0
  7  8  1  6  0  0  0
  9 40  1  1  0  0  0
 10  6  1  1  0  0  0
 10 11  1  0  0  0  0
 10 18  1  0  0  0  0
 11 13  1  0  0  0  0
 11 12  1  6  0  0  0
 13 15  1  0  0  0  0
 13 14  1  6  0  0  0
 15 17  1  0  0  0  0
 15 16  1  1  0  0  0
 17 19  1  6  0  0  0
 17 18  1  0  0  0  0
 19 20  1  0  0  0  0
 21 29  1  0  0  0  0
 22 23  1  0  0  0  0
 22 31  1  0  0  0  0
 22 38  1  1  0  0  0
 23 25  1  0  0  0  0
 23 24  1  1  0  0  0
 25 27  1  0  0  0  0
 25 26  1  6  0  0  0
 27 30  1  0  0  0  0
 27 28  1  1  0  0  0
 30 21  1  6  0  0  0
 30 31  1  0  0  0  0
 32 34  1  0  0  0  0
 32 41  1  0  0  0  0
 32 33  1  1  0  0  0
 34 35  1  0  0  0  0
 35 37  1  0  0  0  0
 35 36  1  1  0  0  0
 37 39  1  0  0  0  0
 37 38  1  6  0  0  0
 39 41  1  0  0  0  0
 39 40  1  6  0  0  0
 41 42  1  6  0  0  0
M  CHG  6  12   1  20   1  24   1  29   1  33   1  36   1
M  END
>  <CHROM.1>
54.13608476,151.72506837,-100.88910555,-120.18580127,64.12627114,-105.46633530
145.60065999,61.26329276,178.19635184,168.62181509,61.55001673,71.64415281
23.93129879,170.29747766,-157.38165653,179.63216474,62.42250643,69.33767175
59.76158875,-172.16697773,140.66430122,-74.18328884,3.79402502,1.59723945
-0.03160697,-2.68889746,0.04861065,2.15654474

>  <Name>
1NEM.B

>  <RI>
0

>  <Rbt.Current_Directory>
/home/itssahil/PROJECTS/Mol_Feturizer/New_Systems/rnas/1nem

>  <Rbt.Executable>
rbdock ($Id: //depot/dev/client3/rdock/2013.1/src/exe/rbdock.cxx#4 $)

>  <Rbt.Library>
libRbt.so (2013.1, Build901 2013/11/27)

>  <Rbt.Parameter_File>
/export/apps/rDock/src/rDock_2013.1_src/data/scripts/dock_solv.prm

>  <Rbt.Receptor>
prm/pocket_docking_7.prm

>  <SCORE>
-23.3122

>  <SCORE.INTER>
-24.2709

>  <SCORE.INTER.CONST>
1

>  <SCORE.INTER.POLAR>
-3.64908

>  <SCORE.INTER.ROT>
9

>  <SCORE.INTER.SOLV>
25.2119

>  <SCORE.INTER.VDW>
-22.0209

>  <SCORE.INTER.norm>
-0.577879

>  <SCORE.INTRA>
0.937428

>  <SCORE.INTRA.DIHEDRAL>
13.2243

>  <SCORE.INTRA.DIHEDRAL.0>
22.4324

>  <SCORE.INTRA.POLAR>
-1.68019

>  <SCORE.INTRA.POLAR.0>
-1.83749

>  <SCORE.INTRA.REPUL>
0

>  <SCORE.INTRA.REPUL.0>
0

>  <SCORE.INTRA.SOLV>
-5.47213

>  <SCORE.INTRA.SOLV.lig_0>
-160.638

>  <SCORE.INTRA.VDW>
2.77399

>  <SCORE.INTRA.VDW.0>
-7.61953

>  <SCORE.INTRA.norm>
0.0223197

>  <SCORE.RESTR>
0.0212307

>  <SCORE.RESTR.CAVITY>
0.0212307

>  <SCORE.RESTR.norm>
0.000505493

>  <SCORE.SYSTEM>
0

>  <SCORE.SYSTEM.CONST>
0

>  <SCORE.SYSTEM.DIHEDRAL>
0

>  <SCORE.SYSTEM.SOLV>
0

>  <SCORE.SYSTEM.norm>
0

>  <SCORE.heavy>
42

>  <SCORE.norm>
-0.555053

>  <RMSD>
9.634

$$$$
1NEM.B
 OpenBabel11021811403D
libRbt.so/2013.1/901 2013/11/27
 42 45  0  0  0  0  0  0  0  0999 V2000
   -5.0128   -7.6128    5.2472 O   0  0  0  0  0  0  0  0  0  0  0  0
   -4.3324   -6.4310    5.6743 C   0  0  0  0  0  0  0  0  0  0  0  0
   -5.0364   -5.1458    5.2414 C   0  0  1  0  0  0  0  0  0  0  0  0
   -4.3044   -4.0015    5.6708 O   0  0  0  0  0  0  0  0  0  0  0  0
   -5.1322   -4.9508    3.7367 C   0  0  1  0  0  0  0  0  0  0  0  0
   -6.1016   -5.8811    3.2487 O   0  0  0  0  0  0  0  0  0  0  0  0
   -5.5278   -3.4863    3.7120 C   0  0  1  0  0  0  0  0  0  0  0  0
   -6.8614   -3.2786    4.1888 O   0  0  0  0  0  0  0  0  0  0  0  0
   -4.5136   -2.9492    4.7288 C   0  0  2  0  0  0  0  0  0  0  0  0
   -6.8982   -5.4434    2.1852 C   0  0  2  0  0  0  0  0  0  0  0  0
   -8.3357   -5.2366    2.6813 C   0  0  2  0  0  0  0  0  0  0  0  0
   -8.8249   -6.4678    3.3559 N   0  3  0  0  0  0  0  0  0  0  0  0
   -9.2555   -4.8189    1.5293 C   0  0  1  0  0  0  0  0  0  0  0  0
   -8.9426   -3.4925    1.1252 O   0  0  0  0  0  0  0  0  0  0  0  0
   -9.1115   -5.7674    0.3352 C   0  0  2  0  0  0  0  0  0  0  0  0
   -9.6362   -7.0494    0.6566 O   0  0  0  0  0  0  0  0  0  0  0  0
   -7.6397   -5.8886   -0.0495 C   0  0  1  0  0  0  0  0  0  0  0  0
   -6.8774   -6.3439    1.0853 O   0  0  0  0  0  0  0  0  0  0  0  0
   -7.3976   -6.8556   -1.1951 C   0  0  0  0  0  0  0  0  0  0  0  0
   -8.3486   -6.6420   -2.3085 N   0  3  0  0  0  0  0  0  0  0  0  0
    1.1852   -0.7622    1.3235 C   0  0  0  0  0  0  0  0  0  0  0  0
   -0.9418   -3.7452    0.7715 C   0  0  2  0  0  0  0  0  0  0  0  0
    0.0935   -4.8641    0.8554 C   0  0  2  0  0  0  0  0  0  0  0  0
   -0.5729   -6.1607    1.1248 N   0  3  0  0  0  0  0  0  0  0  0  0
    1.0941   -4.5712    1.9653 C   0  0  1  0  0  0  0  0  0  0  0  0
    2.0947   -5.5777    1.9821 O   0  0  0  0  0  0  0  0  0  0  0  0
    1.7297   -3.2024    1.7321 C   0  0  2  0  0  0  0  0  0  0  0  0
    2.6140   -2.8911    2.8010 O   0  0  0  0  0  0  0  0  0  0  0  0
    2.1081   -0.8008    0.1660 N   0  3  0  0  0  0  0  0  0  0  0  0
    0.6348   -2.1409    1.6439 C   0  0  2  0  0  0  0  0  0  0  0  0
   -0.3038   -2.4819    0.6035 O   0  0  0  0  0  0  0  0  0  0  0  0
   -4.6811   -0.7565    1.2664 C   0  0  2  0  0  0  0  0  0  0  0  0
   -5.9980   -0.0988    1.1031 N   0  3  0  0  0  0  0  0  0  0  0  0
   -4.5051   -1.8402    0.2087 C   0  0  0  0  0  0  0  0  0  0  0  0
   -3.1557   -2.5269    0.3659 C   0  0  2  0  0  0  0  0  0  0  0  0
   -3.0499   -3.5447   -0.6699 N   0  3  0  0  0  0  0  0  0  0  0  0
   -3.0517   -3.1512    1.7555 C   0  0  1  0  0  0  0  0  0  0  0  0
   -1.7613   -3.7744    1.9063 O   0  0  0  0  0  0  0  0  0  0  0  0
   -3.2348   -2.0864    2.8458 C   0  0  2  0  0  0  0  0  0  0  0  0
   -3.2357   -2.7223    4.1382 O   0  0  0  0  0  0  0  0  0  0  0  0
   -4.5515   -1.3330    2.6754 C   0  0  1  0  0  0  0  0  0  0  0  0
   -4.6215   -0.2789    3.6264 O   0  0  0  0  0  0  0  0  0  0  0  0
  1  2  1  0  0  0  0
  3  2  1  6  0  0  0
  3  5  1  0  0  0  0
  3  4  1  0  0  0  0
  4  9  1  0  0  0  0
  5  7  1  0  0  0  0
  5  6  1  1  0  0  0
  7  9  1  0  0  0  0
  7  8  1  1  0  0  0
  9 40  1  6  0  0  0
 10  6  1  1  0  0  0
 10 11  1  0  0  0  0
 10 18  1  0  0  0  0
 11 13  1  0  0  0  0
 11 12  1  6  0  0  0
 13 15  1  0  0  0  0
 13 14  1  6  0  0  0
 15 17  1  0  0  0  0
 15 16  1  1  0  0  0
 17 19  1  6  0  0  0
 17 18  1  0  0  0  0
 19 20  1  0  0  0  0
 21 29  1  0  0  0  0
 22 23  1  0  0  0  0
 22 31  1  0  0  0  0
 22 38  1  1  0  0  0
 23 25  1  0  0  0  0
 23 24  1  1  0  0  0
 25 27  1  0  0  0  0
 25 26  1  6  0  0  0
 27 30  1  0  0  0  0
 27 28  1  1  0  0  0
 30 21  1  6  0  0  0
 30 31  1  0  0  0  0
 32 34  1  0  0  0  0
 32 41  1  0  0  0  0
 32 33  1  1  0  0  0
 34 35  1  0  0  0  0
 35 37  1  0  0  0  0
 35 36  1  6  0  0  0
 37 39  1  0  0  0  0
 37 38  1  1  0  0  0
 39 41  1  0  0  0  0
 39 40  1  1  0  0  0
 41 42  1  1  0  0  0
M  CHG  6  12   1  20   1  24   1  29   1  33   1  36   1
M  END
>  <CHROM.1>
-166.98817567,-178.91534702,144.47677899,-110.12691663,173.11439871,157.92168610
164.92038611,-133.56085305,-176.55439696,46.30517063,120.53520650,49.28853091
-53.21149124,-157.46618041,46.87160512,55.49170120,-69.90684860,106.82660703
17.99198836,-3.41120204,-99.80869382,72.81617073,-4.06253870,-4.00012656
2.01412444,-3.04203407,-0.28517002,-1.23852404

>  <Name>
1NEM.B

>  <RI>
0

>  <Rbt.Current_Directory>
/home/itssahil/PROJECTS/Mol_Feturizer/New_Systems/rnas/1nem

>  <Rbt.Executable>
rbdock ($Id: //depot/dev/client3/rdock/2013.1/src/exe/rbdock.cxx#4 $)

>  <Rbt.Library>
libRbt.so (2013.1, Build901 2013/11/27)

>  <Rbt.Parameter_File>
/export/apps/rDock/src/rDock_2013.1_src/data/scripts/dock_solv.prm

>  <Rbt.Receptor>
prm/blind_docking_40.prm

>  <SCORE>
15.6554

>  <SCORE.INTER>
-23.9905

>  <SCORE.INTER.CONST>
1

>  <SCORE.INTER.POLAR>
-7.67628

>  <SCORE.INTER.ROT>
9

>  <SCORE.INTER.SOLV>
53.2091

>  <SCORE.INTER.VDW>
-17.7425

>  <SCORE.INTER.norm>
-0.571203

>  <SCORE.INTRA>
37.8803

>  <SCORE.INTRA.DIHEDRAL>
26.6786

>  <SCORE.INTRA.DIHEDRAL.0>
22.4324

>  <SCORE.INTRA.POLAR>
1.00132

>  <SCORE.INTRA.POLAR.0>
-1.83749

>  <SCORE.INTRA.REPUL>
0.0568282

>  <SCORE.INTRA.REPUL.0>
0

>  <SCORE.INTRA.SOLV>
-0.527782

>  <SCORE.INTRA.SOLV.lig_0>
-160.638

>  <SCORE.INTRA.VDW>
21.1162

>  <SCORE.INTRA.VDW.0>
-7.61953

>  <SCORE.INTRA.norm>
0.901911

>  <SCORE.RESTR>
1.7656

>  <SCORE.RESTR.CAVITY>
1.7656

>  <SCORE.RESTR.norm>
0.042038

>  <SCORE.SYSTEM>
0

>  <SCORE.SYSTEM.CONST>
0

>  <SCORE.SYSTEM.DIHEDRAL>
0

>  <SCORE.SYSTEM.SOLV>
0

>  <SCORE.SYSTEM.norm>
0

>  <SCORE.heavy>
42

>  <SCORE.norm>
0.372746

>  <RMSD>
9.647

$$$$
1NEM.B
 OpenBabel11021811403D
libRbt.so/2013.1/901 2013/11/27
 42 45  0  0  0  0  0  0  0  0999 V2000
   -4.5646   -6.7138    4.1836 O   0  0  0  0  0  0  0  0  0  0  0  0
   -4.3473   -5.9922    2.9695 C   0  0  0  0  0  0  0  0  0  0  0  0
   -4.0987   -4.5016    3.1957 C   0  0  1  0  0  0  0  0  0  0  0  0
   -2.7342   -4.1754    2.9482 O   0  0  0  0  0  0  0  0  0  0  0  0
   -4.8519   -3.5818    2.2480 C   0  0  1  0  0  0  0  0  0  0  0  0
   -6.2288   -3.6129    2.6308 O   0  0  0  0  0  0  0  0  0  0  0  0
   -4.1021   -2.2919    2.5235 C   0  0  1  0  0  0  0  0  0  0  0  0
   -4.3808   -1.7730    3.8282 O   0  0  0  0  0  0  0  0  0  0  0  0
   -2.6689   -2.8334    2.4654 C   0  0  2  0  0  0  0  0  0  0  0  0
   -6.9573   -4.7374    2.2282 C   0  0  2  0  0  0  0  0  0  0  0  0
   -7.6936   -4.4213    0.9192 C   0  0  2  0  0  0  0  0  0  0  0  0
   -8.5013   -3.1828    1.0742 N   0  3  0  0  0  0  0  0  0  0  0  0
   -8.5564   -5.6082    0.4785 C   0  0  1  0  0  0  0  0  0  0  0  0
   -7.7196   -6.6698    0.0387 O   0  0  0  0  0  0  0  0  0  0  0  0
   -9.4490   -6.0980    1.6230 C   0  0  2  0  0  0  0  0  0  0  0  0
  -10.4452   -5.1283    1.9221 O   0  0  0  0  0  0  0  0  0  0  0  0
   -8.5965   -6.3671    2.8598 C   0  0  1  0  0  0  0  0  0  0  0  0
   -7.8760   -5.1730    3.2218 O   0  0  0  0  0  0  0  0  0  0  0  0
   -9.4101   -6.8069    4.0642 C   0  0  0  0  0  0  0  0  0  0  0  0
  -10.0342   -8.1322    3.8551 N   0  3  0  0  0  0  0  0  0  0  0  0
   -4.7813    0.3215    1.6917 C   0  0  0  0  0  0  0  0  0  0  0  0
   -1.7381   -0.7980   -0.1009 C   0  0  2  0  0  0  0  0  0  0  0  0
   -1.7004    0.1918   -1.2627 C   0  0  2  0  0  0  0  0  0  0  0  0
   -0.3403    0.2418   -1.8502 N   0  3  0  0  0  0  0  0  0  0  0  0
   -2.0930    1.5820   -0.7807 C   0  0  1  0  0  0  0  0  0  0  0  0
   -2.1294    2.4754   -1.8830 O   0  0  0  0  0  0  0  0  0  0  0  0
   -3.4624    1.5217   -0.1078 C   0  0  2  0  0  0  0  0  0  0  0  0
   -3.8056    2.8021    0.4064 O   0  0  0  0  0  0  0  0  0  0  0  0
   -5.7934   -0.1758    0.7318 N   0  3  0  0  0  0  0  0  0  0  0  0
   -3.4265    0.5027    1.0295 C   0  0  2  0  0  0  0  0  0  0  0  0
   -3.0169   -0.7859    0.5281 O   0  0  0  0  0  0  0  0  0  0  0  0
    1.3452   -4.1355    1.6253 C   0  0  2  0  0  0  0  0  0  0  0  0
    1.8850   -5.2972    2.3685 N   0  3  0  0  0  0  0  0  0  0  0  0
    1.8808   -2.8396    2.2237 C   0  0  0  0  0  0  0  0  0  0  0  0
    1.3320   -1.6359    1.4705 C   0  0  2  0  0  0  0  0  0  0  0  0
    1.8800   -0.4361    2.0873 N   0  3  0  0  0  0  0  0  0  0  0  0
   -0.1934   -1.6347    1.5381 C   0  0  1  0  0  0  0  0  0  0  0  0
   -0.7057   -0.5086    0.7994 O   0  0  0  0  0  0  0  0  0  0  0  0
   -0.7654   -2.9328    0.9515 C   0  0  2  0  0  0  0  0  0  0  0  0
   -2.1952   -2.9454    1.1252 O   0  0  0  0  0  0  0  0  0  0  0  0
   -0.1822   -4.1627    1.6428 C   0  0  1  0  0  0  0  0  0  0  0  0
   -0.6423   -5.3376    0.9882 O   0  0  0  0  0  0  0  0  0  0  0  0
  1  2  1  0  0  0  0
  3  2  1  6  0  0  0
  3  5  1  0  0  0  0
  3  4  1  0  0  0  0
  4  9  1  0  0  0  0
  5  7  1  0  0  0  0
  5  6  1  1  0  0  0
  7  9  1  0  0  0  0
  7  8  1  1  0  0  0
  9 40  1  6  0  0  0
 10  6  1  1  0  0  0
 10 11  1  0  0  0  0
 10 18  1  0  0  0  0
 11 13  1  0  0  0  0
 11 12  1  1  0  0  0
 13 15  1  0  0  0  0
 13 14  1  1  0  0  0
 15 17  1  0  0  0  0
 15 16  1  1  0  0  0
 17 19  1  1  0  0  0
 17 18  1  0  0  0  0
 19 20  1  0  0  0  0
 21 29  1  0  0  0  0
 22 23  1  0  0  0  0
 22 31  1  0  0  0  0
 22 38  1  1  0  0  0
 23 25  1  0  0  0  0
 23 24  1  1  0  0  0
 25 27  1  0  0  0  0
 25 26  1  6  0  0  0
 27 30  1  0  0  0  0
 27 28  1  1  0  0  0
 30 21  1  6  0  0  0
 30 31  1  0  0  0  0
 32 34  1  0  0  0  0
 32 41  1  0  0  0  0
 32 33  1  1  0  0  0
 34 35  1  0  0  0  0
 35 37  1  0  0  0  0
 35 36  1  1  0  0  0
 37 39  1  0  0  0  0
 37 38  1  6  0  0  0
 39 41  1  0  0  0  0
 39 40  1  1  0  0  0
 41 42  1  6  0  0  0
M  CHG  6  12   1  20   1  24   1  29   1  33   1  36   1
M  END
>  <CHROM.1>
-68.67237143,108.31629387,-77.85170369,-95.65943329,-68.14492200,-88.65917255
176.01667408,-174.71172694,81.76043522,66.53762280,-58.28678135,61.08605775
-58.16905288,-150.94924435,159.80534366,67.06023101,57.82627157,22.05214866
176.59095805,131.56978671,-58.00381240,167.43127263,-3.88788754,-2.90336903
1.53625967,-2.53210430,-0.04404785,-0.41500299

>  <Name>
1NEM.B

>  <RI>
0

>  <Rbt.Current_Directory>
/home/itssahil/PROJECTS/Mol_Feturizer/New_Systems/rnas/1nem

>  <Rbt.Executable>
rbdock ($Id: //depot/dev/client3/rdock/2013.1/src/exe/rbdock.cxx#4 $)

>  <Rbt.Library>
libRbt.so (2013.1, Build901 2013/11/27)

>  <Rbt.Parameter_File>
/export/apps/rDock/src/rDock_2013.1_src/data/scripts/dock_solv.prm

>  <Rbt.Receptor>
prm/blind_docking_100.prm

>  <SCORE>
6.01853

>  <SCORE.INTER>
-17.6855

>  <SCORE.INTER.CONST>
1

>  <SCORE.INTER.POLAR>
-4.27187

>  <SCORE.INTER.ROT>
9

>  <SCORE.INTER.SOLV>
49.5576

>  <SCORE.INTER.VDW>
-23.67

>  <SCORE.INTER.norm>
-0.421083

>  <SCORE.INTRA>
19.1173

>  <SCORE.INTRA.DIHEDRAL>
10.0396

>  <SCORE.INTRA.DIHEDRAL.0>
22.4324

>  <SCORE.INTRA.POLAR>
1.2885

>  <SCORE.INTRA.POLAR.0>
-1.83749

>  <SCORE.INTRA.REPUL>
0.0242442

>  <SCORE.INTRA.REPUL.0>
0

>  <SCORE.INTRA.SOLV>
-2.87592

>  <SCORE.INTRA.SOLV.lig_0>
-160.638

>  <SCORE.INTRA.VDW>
11.0334

>  <SCORE.INTRA.VDW.0>
-7.61953

>  <SCORE.INTRA.norm>
0.455174

>  <SCORE.RESTR>
4.58671

>  <SCORE.RESTR.CAVITY>
4.58671

>  <SCORE.RESTR.norm>
0.109207

>  <SCORE.SYSTEM>
0

>  <SCORE.SYSTEM.CONST>
0

>  <SCORE.SYSTEM.DIHEDRAL>
0

>  <SCORE.SYSTEM.SOLV>
0

>  <SCORE.SYSTEM.norm>
0

>  <SCORE.heavy>
42

>  <SCORE.norm>
0.143298

>  <RMSD>
9.653

$$$$
1NEM.B
 OpenBabel11021811403D
libRbt.so/2013.1/901 2013/11/27
 42 45  0  0  0  0  0  0  0  0999 V2000
   -5.7195   -4.2896   -1.2463 O   0  0  0  0  0  0  0  0  0  0  0  0
   -5.4730   -3.6620    0.0136 C   0  0  0  0  0  0  0  0  0  0  0  0
   -4.8264   -4.5992    1.0326 C   0  0  1  0  0  0  0  0  0  0  0  0
   -3.4150   -4.6496    0.8458 O   0  0  0  0  0  0  0  0  0  0  0  0
   -4.9684   -4.1574    2.4804 C   0  0  1  0  0  0  0  0  0  0  0  0
   -6.3315   -4.3665    2.8566 O   0  0  0  0  0  0  0  0  0  0  0  0
   -3.9431   -5.0805    3.1117 C   0  0  1  0  0  0  0  0  0  0  0  0
   -4.3708   -6.4466    3.1073 O   0  0  0  0  0  0  0  0  0  0  0  0
   -2.7977   -4.8823    2.1120 C   0  0  2  0  0  0  0  0  0  0  0  0
   -7.0274   -5.3462    2.1402 C   0  0  2  0  0  0  0  0  0  0  0  0
   -7.7689   -4.6863    0.9698 C   0  0  2  0  0  0  0  0  0  0  0  0
   -8.6112   -3.5661    1.4658 N   0  3  0  0  0  0  0  0  0  0  0  0
   -8.5972   -5.7183    0.1975 C   0  0  1  0  0  0  0  0  0  0  0  0
   -7.7300   -6.5864   -0.5201 O   0  0  0  0  0  0  0  0  0  0  0  0
   -9.4786   -6.5395    1.1436 C   0  0  2  0  0  0  0  0  0  0  0  0
  -10.5022   -5.7231    1.6983 O   0  0  0  0  0  0  0  0  0  0  0  0
   -8.6220   -7.1307    2.2596 C   0  0  1  0  0  0  0  0  0  0  0  0
   -7.9361   -6.0729    2.9570 O   0  0  0  0  0  0  0  0  0  0  0  0
   -9.4261   -7.9193    3.2782 C   0  0  0  0  0  0  0  0  0  0  0  0
  -10.3848   -7.0612    4.0092 N   0  3  0  0  0  0  0  0  0  0  0  0
   -4.3562   -1.1498    4.4228 C   0  0  0  0  0  0  0  0  0  0  0  0
   -3.1098   -1.9489    1.0264 C   0  0  2  0  0  0  0  0  0  0  0  0
   -4.1825   -1.2957    0.1583 C   0  0  2  0  0  0  0  0  0  0  0  0
   -3.6703   -1.0820   -1.2163 N   0  3  0  0  0  0  0  0  0  0  0  0
   -4.5980    0.0421    0.7554 C   0  0  1  0  0  0  0  0  0  0  0  0
   -5.6490    0.6022   -0.0168 O   0  0  0  0  0  0  0  0  0  0  0  0
   -5.0569   -0.1624    2.1974 C   0  0  2  0  0  0  0  0  0  0  0  0
   -5.3809    1.0914    2.7844 O   0  0  0  0  0  0  0  0  0  0  0  0
   -5.7062   -1.7564    4.4734 N   0  3  0  0  0  0  0  0  0  0  0  0
   -3.9409   -0.8322    2.9968 C   0  0  2  0  0  0  0  0  0  0  0  0
   -3.5609   -2.0753    2.3724 O   0  0  0  0  0  0  0  0  0  0  0  0
    1.4820   -3.7570    1.0774 C   0  0  2  0  0  0  0  0  0  0  0  0
    2.6941   -4.4422    1.5822 N   0  3  0  0  0  0  0  0  0  0  0  0
    1.6953   -2.2475    1.0855 C   0  0  0  0  0  0  0  0  0  0  0  0
    0.4556   -1.5295    0.5707 C   0  0  2  0  0  0  0  0  0  0  0  0
    0.7237   -0.0986    0.6022 N   0  3  0  0  0  0  0  0  0  0  0  0
   -0.7453   -1.8779    1.4469 C   0  0  1  0  0  0  0  0  0  0  0  0
   -1.9197   -1.2171    0.9365 O   0  0  0  0  0  0  0  0  0  0  0  0
   -0.9819   -3.3945    1.4684 C   0  0  2  0  0  0  0  0  0  0  0  0
   -2.0524   -3.6973    2.3832 O   0  0  0  0  0  0  0  0  0  0  0  0
    0.2674   -4.1483    1.9175 C   0  0  1  0  0  0  0  0  0  0  0  0
    0.0438   -5.5474    1.8035 O   0  0  0  0  0  0  0  0  0  0  0  0
  1  2  1  0  0  0  0
  3  2  1  6  0  0  0
  3  5  1  0  0  0  0
  3  4  1  0  0  0  0
  4  9  1  0  0  0  0
  5  7  1  0  0  0  0
  5  6  1  1  0  0  0
  7  9  1  0  0  0  0
  7  8  1  6  0  0  0
  9 40  1  1  0  0  0
 10  6  1  1  0  0  0
 10 11  1  0  0  0  0
 10 18  1  0  0  0  0
 11 13  1  0  0  0  0
 11 12  1  1  0  0  0
 13 15  1  0  0  0  0
 13 14  1  1  0  0  0
 15 17  1  0  0  0  0
 15 16  1  1  0  0  0
 17 19  1  1  0  0  0
 17 18  1  0  0  0  0
 19 20  1  0  0  0  0
 21 29  1  0  0  0  0
 22 23  1  0  0  0  0
 22 31  1  0  0  0  0
 22 38  1  1  0  0  0
 23 25  1  0  0  0  0
 23 24  1  6  0  0  0
 25 27  1  0  0  0  0
 25 26  1  6  0  0  0
 27 30  1  0  0  0  0
 27 28  1  1  0  0  0
 30 21  1  1  0  0  0
 30 31  1  0  0  0  0
 32 34  1  0  0  0  0
 32 41  1  0  0  0  0
 32 33  1  1  0  0  0
 34 35  1  0  0  0  0
 35 37  1  0  0  0  0
 35 36  1  1  0  0  0
 37 39  1  0  0  0  0
 37 38  1  6  0  0  0
 39 41  1  0  0  0  0
 39 40  1  1  0  0  0
 41 42  1  6  0  0  0
M  CHG  6  12   1  20   1  24   1  29   1  33   1  36   1
M  END
>  <CHROM.1>
-177.26094320,83.42139088,25.03709225,-93.48017950,19.97126252,-63.17392020
120.76768978,68.83655510,-73.39829195,-63.94991275,73.40870376,44.83878411
69.20931712,-166.15935035,80.89833127,60.74621750,-41.09775573,-31.33153905
-37.43780831,143.19169901,152.76515842,-179.91953801,-4.45682881,-3.54173551
1.63581168,2.72560722,-0.03969853,3.02697496

>  <Name>
1NEM.B

>  <RI>
0

>  <Rbt.Current_Directory>
/home/itssahil/PROJECTS/Mol_Feturizer/New_Systems/rnas/1nem

>  <Rbt.Executable>
rbdock ($Id: //depot/dev/client3/rdock/2013.1/src/exe/rbdock.cxx#4 $)

>  <Rbt.Library>
libRbt.so (2013.1, Build901 2013/11/27)

>  <Rbt.Parameter_File>
/export/apps/rDock/src/rDock_2013.1_src/data/scripts/dock_solv.prm

>  <Rbt.Receptor>
prm/blind_docking_80.prm

>  <SCORE>
0.101517

>  <SCORE.INTER>
-43.0957

>  <SCORE.INTER.CONST>
1

>  <SCORE.INTER.POLAR>
-7.2988

>  <SCORE.INTER.ROT>
9

>  <SCORE.INTER.SOLV>
49.0952

>  <SCORE.INTER.VDW>
-30.3662

>  <SCORE.INTER.norm>
-1.02609

>  <SCORE.INTRA>
39.1203

>  <SCORE.INTRA.DIHEDRAL>
14.0143

>  <SCORE.INTRA.DIHEDRAL.0>
22.4324

>  <SCORE.INTRA.POLAR>
0.408502

>  <SCORE.INTRA.POLAR.0>
-1.83749

>  <SCORE.INTRA.REPUL>
0.0427254

>  <SCORE.INTRA.REPUL.0>
0

>  <SCORE.INTRA.SOLV>
4.12154

>  <SCORE.INTRA.SOLV.lig_0>
-160.638

>  <SCORE.INTRA.VDW>
28.4499

>  <SCORE.INTRA.VDW.0>
-7.61953

>  <SCORE.INTRA.norm>
0.931436

>  <SCORE.RESTR>
4.07697

>  <SCORE.RESTR.CAVITY>
4.07697

>  <SCORE.RESTR.norm>
0.0970707

>  <SCORE.SYSTEM>
0

>  <SCORE.SYSTEM.CONST>
0

>  <SCORE.SYSTEM.DIHEDRAL>
0

>  <SCORE.SYSTEM.SOLV>
0

>  <SCORE.SYSTEM.norm>
0

>  <SCORE.heavy>
42

>  <SCORE.norm>
0.00241706

>  <RMSD>
9.678

$$$$
1NEM.B
 OpenBabel11021811403D
libRbt.so/2013.1/901 2013/11/27
 42 45  0  0  0  0  0  0  0  0999 V2000
   -6.3265   -5.3696   -1.0168 O   0  0  0  0  0  0  0  0  0  0  0  0
   -6.0182   -4.1751   -0.2955 C   0  0  0  0  0  0  0  0  0  0  0  0
   -4.9273   -4.3754    0.7555 C   0  0  1  0  0  0  0  0  0  0  0  0
   -4.0148   -3.2815    0.7489 O   0  0  0  0  0  0  0  0  0  0  0  0
   -5.4267   -4.4011    2.1913 C   0  0  1  0  0  0  0  0  0  0  0  0
   -6.1131   -5.6406    2.3801 O   0  0  0  0  0  0  0  0  0  0  0  0
   -4.0979   -4.2478    2.9073 C   0  0  1  0  0  0  0  0  0  0  0  0
   -3.2815   -5.4175    2.7878 O   0  0  0  0  0  0  0  0  0  0  0  0
   -3.5087   -3.1048    2.0722 C   0  0  2  0  0  0  0  0  0  0  0  0
   -7.3594   -5.7587    1.7556 C   0  0  2  0  0  0  0  0  0  0  0  0
   -8.4063   -4.9803    2.5639 C   0  0  2  0  0  0  0  0  0  0  0  0
   -8.3816   -5.4166    3.9850 N   0  3  0  0  0  0  0  0  0  0  0  0
   -9.7999   -5.1388    1.9473 C   0  0  1  0  0  0  0  0  0  0  0  0
   -9.8618   -4.4282    0.7177 O   0  0  0  0  0  0  0  0  0  0  0  0
  -10.1328   -6.6143    1.7054 C   0  0  2  0  0  0  0  0  0  0  0  0
  -10.3001   -7.2924    2.9440 O   0  0  0  0  0  0  0  0  0  0  0  0
   -9.0128   -7.2680    0.9010 C   0  0  1  0  0  0  0  0  0  0  0  0
   -7.7610   -7.1133    1.5975 O   0  0  0  0  0  0  0  0  0  0  0  0
   -9.2349   -8.7508    0.6602 C   0  0  0  0  0  0  0  0  0  0  0  0
  -10.1939   -8.9941   -0.4403 N   0  3  0  0  0  0  0  0  0  0  0  0
    2.8323   -1.1332    1.8370 C   0  0  0  0  0  0  0  0  0  0  0  0
   -0.3631   -2.5344    0.5907 C   0  0  2  0  0  0  0  0  0  0  0  0
   -0.1455   -4.0257    0.8353 C   0  0  2  0  0  0  0  0  0  0  0  0
   -1.4452   -4.7386    0.8480 N   0  3  0  0  0  0  0  0  0  0  0  0
    0.5610   -4.2414    2.1669 C   0  0  1  0  0  0  0  0  0  0  0  0
    0.8267   -5.6241    2.3463 O   0  0  0  0  0  0  0  0  0  0  0  0
    1.8661   -3.4487    2.1873 C   0  0  2  0  0  0  0  0  0  0  0  0
    2.4979   -3.5895    3.4532 O   0  0  0  0  0  0  0  0  0  0  0  0
    2.5867    0.2604    2.2735 N   0  3  0  0  0  0  0  0  0  0  0  0
    1.5703   -1.9741    1.9204 C   0  0  2  0  0  0  0  0  0  0  0  0
    0.8718   -1.8273    0.6673 O   0  0  0  0  0  0  0  0  0  0  0  0
   -3.4930    1.5571    0.9217 C   0  0  2  0  0  0  0  0  0  0  0  0
   -4.4651    2.5284    0.3693 N   0  3  0  0  0  0  0  0  0  0  0  0
   -2.5336    1.1010   -0.1717 C   0  0  0  0  0  0  0  0  0  0  0  0
   -1.5293    0.0998    0.3816 C   0  0  2  0  0  0  0  0  0  0  0  0
   -0.6455   -0.2933   -0.7069 N   0  3  0  0  0  0  0  0  0  0  0  0
   -2.2654   -1.1113    0.9497 C   0  0  1  0  0  0  0  0  0  0  0  0
   -1.3096   -2.0408    1.4966 O   0  0  0  0  0  0  0  0  0  0  0  0
   -3.2486   -0.6847    2.0485 C   0  0  2  0  0  0  0  0  0  0  0  0
   -3.9993   -1.8324    2.4888 O   0  0  0  0  0  0  0  0  0  0  0  0
   -4.2288    0.3705    1.5420 C   0  0  1  0  0  0  0  0  0  0  0  0
   -5.0356    0.8250    2.6204 O   0  0  0  0  0  0  0  0  0  0  0  0
  1  2  1  0  0  0  0
  3  2  1  6  0  0  0
  3  5  1  0  0  0  0
  3  4  1  0  0  0  0
  4  9  1  0  0  0  0
  5  7  1  0  0  0  0
  5  6  1  1  0  0  0
  7  9  1  0  0  0  0
  7  8  1  6  0  0  0
  9 40  1  1  0  0  0
 10  6  1  1  0  0  0
 10 11  1  0  0  0  0
 10 18  1  0  0  0  0
 11 13  1  0  0  0  0
 11 12  1  1  0  0  0
 13 15  1  0  0  0  0
 13 14  1  6  0  0  0
 15 17  1  0  0  0  0
 15 16  1  1  0  0  0
 17 19  1  1  0  0  0
 17 18  1  0  0  0  0
 19 20  1  0  0  0  0
 21 29  1  0  0  0  0
 22 23  1  0  0  0  0
 22 31  1  0  0  0  0
 22 38  1  1  0  0  0
 23 25  1  0  0  0  0
 23 24  1  1  0  0  0
 25 27  1  0  0  0  0
 25 26  1  6  0  0  0
 27 30  1  0  0  0  0
 27 28  1  1  0  0  0
 30 21  1  6  0  0  0
 30 31  1  0  0  0  0
 32 34  1  0  0  0  0
 32 41  1  0  0  0  0
 32 33  1  6  0  0  0
 34 35  1  0  0  0  0
 35 37  1  0  0  0  0
 35 36  1  6  0  0  0
 37 39  1  0  0  0  0
 37 38  1  1  0  0  0
 39 41  1  0  0  0  0
 39 40  1  6  0  0  0
 41 42  1  1  0  0  0
M  CHG  6  12   1  20   1  24   1  29   1  33   1  36   1
M  END
>  <CHROM.1>
-161.91343491,137.96753298,-72.40732029,-77.14185605,-51.17058321,-82.39524138
173.30476183,167.09746739,77.04533685,79.14796557,-14.52655919,-150.58848962
49.04281237,-138.88844482,21.24853413,73.40606900,-80.71531790,169.23781684
-84.20922370,-59.62664017,13.13495200,-163.13647132,-3.95263408,-3.45559108
1.47619542,-2.63769386,-0.07551311,-0.12592538

>  <Name>
1NEM.B

>  <RI>
0

>  <Rbt.Current_Directory>
/home/itssahil/PROJECTS/Mol_Feturizer/New_Systems/rnas/1nem

>  <Rbt.Executable>
rbdock ($Id: //depot/dev/client3/rdock/2013.1/src/exe/rbdock.cxx#4 $)

>  <Rbt.Library>
libRbt.so (2013.1, Build901 2013/11/27)

>  <Rbt.Parameter_File>
/export/apps/rDock/src/rDock_2013.1_src/data/scripts/dock_solv.prm

>  <Rbt.Receptor>
prm/blind_docking_80.prm

>  <SCORE>
19.7646

>  <SCORE.INTER>
-1.68348

>  <SCORE.INTER.CONST>
1

>  <SCORE.INTER.POLAR>
-6.35892

>  <SCORE.INTER.ROT>
9

>  <SCORE.INTER.SOLV>
45.5786

>  <SCORE.INTER.VDW>
-4.7188

>  <SCORE.INTER.norm>
-0.0400829

>  <SCORE.INTRA>
18.9116

>  <SCORE.INTRA.DIHEDRAL>
18.1839

>  <SCORE.INTRA.DIHEDRAL.0>
22.4324

>  <SCORE.INTRA.POLAR>
-1.0563

>  <SCORE.INTRA.POLAR.0>
-1.83749

>  <SCORE.INTRA.REPUL>
0

>  <SCORE.INTRA.REPUL.0>
0

>  <SCORE.INTRA.SOLV>
1.16002

>  <SCORE.INTRA.SOLV.lig_0>
-160.638

>  <SCORE.INTRA.VDW>
12.831

>  <SCORE.INTRA.VDW.0>
-7.61953

>  <SCORE.INTRA.norm>
0.450276

>  <SCORE.RESTR>
2.5365

>  <SCORE.RESTR.CAVITY>
2.5365

>  <SCORE.RESTR.norm>
0.0603928

>  <SCORE.SYSTEM>
0

>  <SCORE.SYSTEM.CONST>
0

>  <SCORE.SYSTEM.DIHEDRAL>
0

>  <SCORE.SYSTEM.SOLV>
0

>  <SCORE.SYSTEM.norm>
0

>  <SCORE.heavy>
42

>  <SCORE.norm>
0.470585

>  <RMSD>
9.687

$$$$
1NEM.B
 OpenBabel11021811403D
libRbt.so/2013.1/901 2013/11/27
 42 45  0  0  0  0  0  0  0  0999 V2000
   -6.8837   -1.5100    3.5735 O   0  0  0  0  0  0  0  0  0  0  0  0
   -7.4192   -2.3933    2.5860 C   0  0  0  0  0  0  0  0  0  0  0  0
   -6.3449   -3.2045    1.8632 C   0  0  1  0  0  0  0  0  0  0  0  0
   -5.3801   -2.3432    1.2660 O   0  0  0  0  0  0  0  0  0  0  0  0
   -5.5043   -4.0918    2.7674 C   0  0  1  0  0  0  0  0  0  0  0  0
   -6.3311   -5.1823    3.1803 O   0  0  0  0  0  0  0  0  0  0  0  0
   -4.3829   -4.4215    1.8001 C   0  0  1  0  0  0  0  0  0  0  0  0
   -4.8160   -5.2874    0.7456 O   0  0  0  0  0  0  0  0  0  0  0  0
   -4.1196   -3.0136    1.2530 C   0  0  2  0  0  0  0  0  0  0  0  0
   -7.5669   -5.3002    2.5351 C   0  0  2  0  0  0  0  0  0  0  0  0
   -8.3913   -6.4000    3.2178 C   0  0  2  0  0  0  0  0  0  0  0  0
   -7.6049   -7.6599    3.2850 N   0  3  0  0  0  0  0  0  0  0  0  0
   -9.7285   -6.6051    2.4985 C   0  0  1  0  0  0  0  0  0  0  0  0
  -10.5729   -5.4857    2.7316 O   0  0  0  0  0  0  0  0  0  0  0  0
   -9.5233   -6.7890    0.9917 C   0  0  2  0  0  0  0  0  0  0  0  0
   -8.8755   -8.0273    0.7290 O   0  0  0  0  0  0  0  0  0  0  0  0
   -8.6862   -5.6369    0.4433 C   0  0  1  0  0  0  0  0  0  0  0  0
   -7.4302   -5.5719    1.1463 O   0  0  0  0  0  0  0  0  0  0  0  0
   -8.3869   -5.7667   -1.0398 C   0  0  0  0  0  0  0  0  0  0  0  0
   -6.9854   -6.1722   -1.2871 N   0  3  0  0  0  0  0  0  0  0  0  0
    3.4954   -0.4209    1.3764 C   0  0  0  0  0  0  0  0  0  0  0  0
    0.4550   -2.4206    0.6807 C   0  0  2  0  0  0  0  0  0  0  0  0
    0.8225   -3.7512    1.3330 C   0  0  2  0  0  0  0  0  0  0  0  0
   -0.3985   -4.5521    1.5885 N   0  3  0  0  0  0  0  0  0  0  0  0
    1.5503   -3.5076    2.6483 C   0  0  1  0  0  0  0  0  0  0  0  0
    1.9546   -4.7487    3.2056 O   0  0  0  0  0  0  0  0  0  0  0  0
    2.7687   -2.6207    2.4015 C   0  0  2  0  0  0  0  0  0  0  0  0
    3.4144   -2.3316    3.6348 O   0  0  0  0  0  0  0  0  0  0  0  0
    3.0382    0.9169    0.9356 N   0  3  0  0  0  0  0  0  0  0  0  0
    2.3250   -1.3199    1.7350 C   0  0  2  0  0  0  0  0  0  0  0  0
    1.6124   -1.6060    0.5144 O   0  0  0  0  0  0  0  0  0  0  0  0
   -3.5151    0.9747    0.1878 C   0  0  2  0  0  0  0  0  0  0  0  0
   -4.6326    1.5716   -0.5793 N   0  3  0  0  0  0  0  0  0  0  0  0
   -2.3332    0.7063   -0.7368 C   0  0  0  0  0  0  0  0  0  0  0  0
   -1.1769    0.0901    0.0383 C   0  0  2  0  0  0  0  0  0  0  0  0
   -0.0849   -0.1391   -0.8972 N   0  3  0  0  0  0  0  0  0  0  0  0
   -1.6257   -1.2193    0.6828 C   0  0  1  0  0  0  0  0  0  0  0  0
   -0.5345   -1.7816    1.4374 O   0  0  0  0  0  0  0  0  0  0  0  0
   -2.8232   -0.9853    1.6142 C   0  0  2  0  0  0  0  0  0  0  0  0
   -3.2862   -2.2508    2.1229 O   0  0  0  0  0  0  0  0  0  0  0  0
   -3.9770   -0.3062    0.8807 C   0  0  1  0  0  0  0  0  0  0  0  0
   -5.0111    0.0024    1.8059 O   0  0  0  0  0  0  0  0  0  0  0  0
  1  2  1  0  0  0  0
  3  2  1  1  0  0  0
  3  5  1  0  0  0  0
  3  4  1  0  0  0  0
  4  9  1  0  0  0  0
  5  7  1  0  0  0  0
  5  6  1  6  0  0  0
  7  9  1  0  0  0  0
  7  8  1  6  0  0  0
  9 40  1  1  0  0  0
 10  6  1  1  0  0  0
 10 11  1  0  0  0  0
 10 18  1  0  0  0  0
 11 13  1  0  0  0  0
 11 12  1  6  0  0  0
 13 15  1  0  0  0  0
 13 14  1  6  0  0  0
 15 17  1  0  0  0  0
 15 16  1  1  0  0  0
 17 19  1  6  0  0  0
 17 18  1  0  0  0  0
 19 20  1  0  0  0  0
 21 29  1  0  0  0  0
 22 23  1  0  0  0  0
 22 31  1  0  0  0  0
 22 38  1  1  0  0  0
 23 25  1  0  0  0  0
 23 24  1  1  0  0  0
 25 27  1  0  0  0  0
 25 26  1  6  0  0  0
 27 30  1  0  0  0  0
 27 28  1  1  0  0  0
 30 21  1  6  0  0  0
 30 31  1  0  0  0  0
 32 34  1  0  0  0  0
 32 41  1  0  0  0  0
 32 33  1  6  0  0  0
 34 35  1  0  0  0  0
 35 37  1  0  0  0  0
 35 36  1  6  0  0  0
 37 39  1  0  0  0  0
 37 38  1  1  0  0  0
 39 41  1  0  0  0  0
 39 40  1  6  0  0  0
 41 42  1  1  0  0  0
M  CHG  6  12   1  20   1  24   1  29   1  33   1  36   1
M  END
>  <CHROM.1>
-57.30566608,-56.40733083,9.46120514,-172.80050810,70.62963715,-73.89942221
-79.03902659,82.45627831,175.83070707,-105.33047170,-8.93122050,-170.83782494
161.84507617,-135.01053462,-55.18368392,-64.29585950,166.84500263,-55.06070901
165.99868969,-77.25575925,-80.31469117,-58.64204198,-3.63723215,-3.12001500
1.44884929,2.71980362,0.10774523,2.83898954

>  <Name>
1NEM.B

>  <RI>
0

>  <Rbt.Current_Directory>
/home/itssahil/PROJECTS/Mol_Feturizer/New_Systems/rnas/1nem

>  <Rbt.Executable>
rbdock ($Id: //depot/dev/client3/rdock/2013.1/src/exe/rbdock.cxx#4 $)

>  <Rbt.Library>
libRbt.so (2013.1, Build901 2013/11/27)

>  <Rbt.Parameter_File>
/export/apps/rDock/src/rDock_2013.1_src/data/scripts/dock_solv.prm

>  <Rbt.Receptor>
prm/blind_docking_80.prm

>  <SCORE>
-21.0817

>  <SCORE.INTER>
-42.6042

>  <SCORE.INTER.CONST>
1

>  <SCORE.INTER.POLAR>
-7.19864

>  <SCORE.INTER.ROT>
9

>  <SCORE.INTER.SOLV>
44.8134

>  <SCORE.INTER.VDW>
-28.9451

>  <SCORE.INTER.norm>
-1.01439

>  <SCORE.INTRA>
17.1169

>  <SCORE.INTRA.DIHEDRAL>
9.32217

>  <SCORE.INTRA.DIHEDRAL.0>
22.4324

>  <SCORE.INTRA.POLAR>
-1.37854

>  <SCORE.INTRA.POLAR.0>
-1.83749

>  <SCORE.INTRA.REPUL>
0

>  <SCORE.INTRA.REPUL.0>
0

>  <SCORE.INTRA.SOLV>
4.34614

>  <SCORE.INTRA.SOLV.lig_0>
-160.638

>  <SCORE.INTRA.VDW>
14.9698

>  <SCORE.INTRA.VDW.0>
-7.61953

>  <SCORE.INTRA.norm>
0.407546

>  <SCORE.RESTR>
4.40561

>  <SCORE.RESTR.CAVITY>
4.40561

>  <SCORE.RESTR.norm>
0.104895

>  <SCORE.SYSTEM>
0

>  <SCORE.SYSTEM.CONST>
0

>  <SCORE.SYSTEM.DIHEDRAL>
0

>  <SCORE.SYSTEM.SOLV>
0

>  <SCORE.SYSTEM.norm>
0

>  <SCORE.heavy>
42

>  <SCORE.norm>
-0.501945

>  <RMSD>
9.697

$$$$
1NEM.B
 OpenBabel11021811403D
libRbt.so/2013.1/901 2013/11/27
 42 45  0  0  0  0  0  0  0  0999 V2000
   -7.2794   -1.6634    3.7108 O   0  0  0  0  0  0  0  0  0  0  0  0
   -7.5263   -2.0231    2.3500 C   0  0  0  0  0  0  0  0  0  0  0  0
   -6.4006   -2.8551    1.7374 C   0  0  1  0  0  0  0  0  0  0  0  0
   -5.3607   -2.0129    1.2485 O   0  0  0  0  0  0  0  0  0  0  0  0
   -5.6774   -3.7641    2.7183 C   0  0  1  0  0  0  0  0  0  0  0  0
   -6.5658   -4.8377    3.0367 O   0  0  0  0  0  0  0  0  0  0  0  0
   -4.4692   -4.1147    1.8703 C   0  0  1  0  0  0  0  0  0  0  0  0
   -4.8092   -4.9668    0.7714 O   0  0  0  0  0  0  0  0  0  0  0  0
   -4.1204   -2.7109    1.3620 C   0  0  2  0  0  0  0  0  0  0  0  0
   -7.5990   -5.0768    2.1241 C   0  0  2  0  0  0  0  0  0  0  0  0
   -8.5859   -6.0842    2.7294 C   0  0  2  0  0  0  0  0  0  0  0  0
   -7.8610   -7.3024    3.1776 N   0  3  0  0  0  0  0  0  0  0  0  0
   -9.6995   -6.4227    1.7332 C   0  0  1  0  0  0  0  0  0  0  0  0
  -10.5588   -5.3010    1.5781 O   0  0  0  0  0  0  0  0  0  0  0  0
   -9.1213   -6.8192    0.3713 C   0  0  2  0  0  0  0  0  0  0  0  0
   -8.4465   -8.0673    0.4656 O   0  0  0  0  0  0  0  0  0  0  0  0
   -8.1555   -5.7401   -0.1102 C   0  0  1  0  0  0  0  0  0  0  0  0
   -7.1183   -5.5446    0.8706 O   0  0  0  0  0  0  0  0  0  0  0  0
   -7.4915   -6.0776   -1.4335 C   0  0  0  0  0  0  0  0  0  0  0  0
   -8.2413   -7.1125   -2.1797 N   0  3  0  0  0  0  0  0  0  0  0  0
    3.3818   -0.4164    1.5782 C   0  0  0  0  0  0  0  0  0  0  0  0
    0.3835   -2.3877    0.6554 C   0  0  2  0  0  0  0  0  0  0  0  0
    0.7879   -3.7798    1.1344 C   0  0  2  0  0  0  0  0  0  0  0  0
   -0.4116   -4.6359    1.2948 N   0  3  0  0  0  0  0  0  0  0  0  0
    1.5210   -3.6842    2.4658 C   0  0  1  0  0  0  0  0  0  0  0  0
    1.9591   -4.9748    2.8617 O   0  0  0  0  0  0  0  0  0  0  0  0
    2.7159   -2.7439    2.3248 C   0  0  2  0  0  0  0  0  0  0  0  0
    3.3651   -2.5950    3.5809 O   0  0  0  0  0  0  0  0  0  0  0  0
    3.6239    0.4555    2.7505 N   0  3  0  0  0  0  0  0  0  0  0  0
    2.2360   -1.3814    1.8284 C   0  0  2  0  0  0  0  0  0  0  0  0
    1.5199   -1.5305    0.5855 O   0  0  0  0  0  0  0  0  0  0  0  0
   -3.2110    1.3553    0.5518 C   0  0  2  0  0  0  0  0  0  0  0  0
   -4.2654    2.1505   -0.1184 N   0  3  0  0  0  0  0  0  0  0  0  0
   -2.1325    0.9675   -0.4535 C   0  0  0  0  0  0  0  0  0  0  0  0
   -1.0423    0.1470    0.2215 C   0  0  2  0  0  0  0  0  0  0  0  0
   -0.0473   -0.1882   -0.7873 N   0  3  0  0  0  0  0  0  0  0  0  0
   -1.6473   -1.1157    0.8304 C   0  0  1  0  0  0  0  0  0  0  0  0
   -0.6143   -1.8723    1.4914 O   0  0  0  0  0  0  0  0  0  0  0  0
   -2.7458   -0.7601    1.8418 C   0  0  2  0  0  0  0  0  0  0  0  0
   -3.3655   -1.9700    2.3182 O   0  0  0  0  0  0  0  0  0  0  0  0
   -3.8221    0.1199    1.2111 C   0  0  1  0  0  0  0  0  0  0  0  0
   -4.7485    0.5257    2.2099 O   0  0  0  0  0  0  0  0  0  0  0  0
  1  2  1  0  0  0  0
  3  2  1  1  0  0  0
  3  5  1  0  0  0  0
  3  4  1  0  0  0  0
  4  9  1  0  0  0  0
  5  7  1  0  0  0  0
  5  6  1  6  0  0  0
  7  9  1  0  0  0  0
  7  8  1  6  0  0  0
  9 40  1  1  0  0  0
 10  6  1  1  0  0  0
 10 11  1  0  0  0  0
 10 18  1  0  0  0  0
 11 13  1  0  0  0  0
 11 12  1  6  0  0  0
 13 15  1  0  0  0  0
 13 14  1  6  0  0  0
 15 17  1  0  0  0  0
 15 16  1  1  0  0  0
 17 19  1  6  0  0  0
 17 18  1  0  0  0  0
 19 20  1  0  0  0  0
 21 29  1  0  0  0  0
 22 23  1  0  0  0  0
 22 31  1  0  0  0  0
 22 38  1  1  0  0  0
 23 25  1  0  0  0  0
 23 24  1  1  0  0  0
 25 27  1  0  0  0  0
 25 26  1  6  0  0  0
 27 30  1  0  0  0  0
 27 28  1  1  0  0  0
 30 21  1  6  0  0  0
 30 31  1  0  0  0  0
 32 34  1  0  0  0  0
 32 41  1  0  0  0  0
 32 33  1  6  0  0  0
 34 35  1  0  0  0  0
 35 37  1  0  0  0  0
 35 36  1  6  0  0  0
 37 39  1  0  0  0  0
 37 38  1  1  0  0  0
 39 41  1  0  0  0  0
 39 40  1  6  0  0  0
 41 42  1  1  0  0  0
M  CHG  6  12   1  20   1  24   1  29   1  33   1  36   1
M  END
>  <CHROM.1>
62.24848764,-84.22825386,20.68653769,-170.32730681,47.40790855,-78.14881052
-133.02924394,72.42099181,-75.85022037,19.55167544,-96.90083666,-95.06472648
-166.78091001,-141.75953409,87.47394547,59.31984937,162.96724706,176.52057337
38.23934057,-65.02357844,-67.05669597,160.88748425,-3.61120841,-3.03903491
1.39815799,2.71814362,0.08790588,3.05271395

>  <Name>
1NEM.B

>  <RI>
0

>  <Rbt.Current_Directory>
/home/itssahil/PROJECTS/Mol_Feturizer/New_Systems/rnas/1nem

>  <Rbt.Executable>
rbdock ($Id: //depot/dev/client3/rdock/2013.1/src/exe/rbdock.cxx#4 $)

>  <Rbt.Library>
libRbt.so (2013.1, Build901 2013/11/27)

>  <Rbt.Parameter_File>
/export/apps/rDock/src/rDock_2013.1_src/data/scripts/dock_solv.prm

>  <Rbt.Receptor>
prm/blind_docking_60.prm

>  <SCORE>
-22.2157

>  <SCORE.INTER>
-50.2023

>  <SCORE.INTER.CONST>
1

>  <SCORE.INTER.POLAR>
-6.41438

>  <SCORE.INTER.ROT>
9

>  <SCORE.INTER.SOLV>
44.5085

>  <SCORE.INTER.VDW>
-36.5231

>  <SCORE.INTER.norm>
-1.19529

>  <SCORE.INTRA>
25.6406

>  <SCORE.INTRA.DIHEDRAL>
14.0877

>  <SCORE.INTRA.DIHEDRAL.0>
22.4324

>  <SCORE.INTRA.POLAR>
0.262417

>  <SCORE.INTRA.POLAR.0>
-1.83749

>  <SCORE.INTRA.REPUL>
0.36977

>  <SCORE.INTRA.REPUL.0>
0

>  <SCORE.INTRA.SOLV>
0.573292

>  <SCORE.INTRA.SOLV.lig_0>
-160.638

>  <SCORE.INTRA.VDW>
15.569

>  <SCORE.INTRA.VDW.0>
-7.61953

>  <SCORE.INTRA.norm>
0.61049

>  <SCORE.RESTR>
2.346

>  <SCORE.RESTR.CAVITY>
2.346

>  <SCORE.RESTR.norm>
0.0558571

>  <SCORE.SYSTEM>
0

>  <SCORE.SYSTEM.CONST>
0

>  <SCORE.SYSTEM.DIHEDRAL>
0

>  <SCORE.SYSTEM.SOLV>
0

>  <SCORE.SYSTEM.norm>
0

>  <SCORE.heavy>
42

>  <SCORE.norm>
-0.528945

>  <RMSD>
9.713

$$$$
1NEM.B
 OpenBabel11021811403D
libRbt.so/2013.1/901 2013/11/27
 42 45  0  0  0  0  0  0  0  0999 V2000
   -7.1417   -0.8737    3.1832 O   0  0  0  0  0  0  0  0  0  0  0  0
   -7.5619   -1.9245    2.3107 C   0  0  0  0  0  0  0  0  0  0  0  0
   -6.4132   -2.8290    1.8668 C   0  0  1  0  0  0  0  0  0  0  0  0
   -5.3392   -2.0564    1.3384 O   0  0  0  0  0  0  0  0  0  0  0  0
   -5.7546   -3.6152    2.9892 C   0  0  1  0  0  0  0  0  0  0  0  0
   -6.6706   -4.6387    3.3850 O   0  0  0  0  0  0  0  0  0  0  0  0
   -4.5055   -4.0708    2.2585 C   0  0  1  0  0  0  0  0  0  0  0  0
   -4.7937   -5.0485    1.2534 O   0  0  0  0  0  0  0  0  0  0  0  0
   -4.1144   -2.7404    1.6044 C   0  0  2  0  0  0  0  0  0  0  0  0
   -7.6696   -4.9655    2.4617 C   0  0  2  0  0  0  0  0  0  0  0  0
   -8.6493   -5.9560    3.1054 C   0  0  2  0  0  0  0  0  0  0  0  0
   -7.9086   -7.1219    3.6553 N   0  3  0  0  0  0  0  0  0  0  0  0
   -9.7238   -6.3896    2.1031 C   0  0  1  0  0  0  0  0  0  0  0  0
  -10.6052   -5.3039    1.8482 O   0  0  0  0  0  0  0  0  0  0  0  0
   -9.0953   -6.8607    0.7880 C   0  0  2  0  0  0  0  0  0  0  0  0
   -8.3932   -8.0814    0.9856 O   0  0  0  0  0  0  0  0  0  0  0  0
   -8.1422   -5.7910    0.2624 C   0  0  1  0  0  0  0  0  0  0  0  0
   -7.1401   -5.5030    1.2568 O   0  0  0  0  0  0  0  0  0  0  0  0
   -7.4306   -6.1984   -1.0157 C   0  0  0  0  0  0  0  0  0  0  0  0
   -8.3832   -6.6026   -2.0735 N   0  3  0  0  0  0  0  0  0  0  0  0
    3.3358   -0.3790    1.2939 C   0  0  0  0  0  0  0  0  0  0  0  0
    0.2734   -2.4087    0.8154 C   0  0  2  0  0  0  0  0  0  0  0  0
    0.6946   -3.7310    1.4517 C   0  0  2  0  0  0  0  0  0  0  0  0
   -0.4999   -4.5397    1.7933 N   0  3  0  0  0  0  0  0  0  0  0  0
    1.5055   -3.4711    2.7142 C   0  0  1  0  0  0  0  0  0  0  0  0
    1.9564   -4.7045    3.2528 O   0  0  0  0  0  0  0  0  0  0  0  0
    2.6973   -2.5764    2.3809 C   0  0  2  0  0  0  0  0  0  0  0  0
    3.4205   -2.2722    3.5667 O   0  0  0  0  0  0  0  0  0  0  0  0
    4.0813   -0.9592    0.1535 N   0  3  0  0  0  0  0  0  0  0  0  0
    2.1994   -1.2845    1.7357 C   0  0  2  0  0  0  0  0  0  0  0  0
    1.4103   -1.5860    0.5669 O   0  0  0  0  0  0  0  0  0  0  0  0
   -3.3743    1.3062    0.5115 C   0  0  2  0  0  0  0  0  0  0  0  0
   -4.4609    2.0222   -0.1956 N   0  3  0  0  0  0  0  0  0  0  0  0
   -2.2980    0.8813   -0.4811 C   0  0  0  0  0  0  0  0  0  0  0  0
   -1.1748    0.1416    0.2320 C   0  0  2  0  0  0  0  0  0  0  0  0
   -0.1836   -0.2335   -0.7665 N   0  3  0  0  0  0  0  0  0  0  0  0
   -1.7334   -1.0930    0.9355 C   0  0  1  0  0  0  0  0  0  0  0  0
   -0.6694   -1.7716    1.6311 O   0  0  0  0  0  0  0  0  0  0  0  0
   -2.8287   -0.7004    1.9367 C   0  0  2  0  0  0  0  0  0  0  0  0
   -3.4053   -1.8919    2.5046 O   0  0  0  0  0  0  0  0  0  0  0  0
   -3.9392    0.1022    1.2635 C   0  0  1  0  0  0  0  0  0  0  0  0
   -4.8641    0.5490    2.2460 O   0  0  0  0  0  0  0  0  0  0  0  0
  1  2  1  0  0  0  0
  3  2  1  1  0  0  0
  3  5  1  0  0  0  0
  3  4  1  0  0  0  0
  4  9  1  0  0  0  0
  5  7  1  0  0  0  0
  5  6  1  6  0  0  0
  7  9  1  0  0  0  0
  7  8  1  6  0  0  0
  9 40  1  1  0  0  0
 10  6  1  1  0  0  0
 10 11  1  0  0  0  0
 10 18  1  0  0  0  0
 11 13  1  0  0  0  0
 11 12  1  6  0  0  0
 13 15  1  0  0  0  0
 13 14  1  6  0  0  0
 15 17  1  0  0  0  0
 15 16  1  1  0  0  0
 17 19  1  6  0  0  0
 17 18  1  0  0  0  0
 19 20  1  0  0  0  0
 21 29  1  0  0  0  0
 22 23  1  0  0  0  0
 22 31  1  0  0  0  0
 22 38  1  1  0  0  0
 23 25  1  0  0  0  0
 23 24  1  1  0  0  0
 25 27  1  0  0  0  0
 25 26  1  6  0  0  0
 27 30  1  0  0  0  0
 27 28  1  1  0  0  0
 30 21  1  6  0  0  0
 30 31  1  0  0  0  0
 32 34  1  0  0  0  0
 32 41  1  0  0  0  0
 32 33  1  6  0  0  0
 34 35  1  0  0  0  0
 35 37  1  0  0  0  0
 35 36  1  6  0  0  0
 37 39  1  0  0  0  0
 37 38  1  1  0  0  0
 39 41  1  0  0  0  0
 39 40  1  6  0  0  0
 41 42  1  1  0  0  0
M  CHG  6  12   1  20   1  24   1  29   1  33   1  36   1
M  END
>  <CHROM.1>
-60.90201949,-51.79157369,19.55021265,-173.62063684,-48.31344012,-73.84517432
44.68439774,68.07960215,176.71331889,54.53610837,-66.85529565,68.78715351
-62.38028136,-141.78755257,177.22570563,56.86997179,162.79045120,65.06166964
37.53495451,-70.06318482,-65.14648807,65.57613337,-3.64908763,-3.00324823
1.49420962,2.74218750,0.05968612,2.97090033

>  <Name>
1NEM.B

>  <RI>
0

>  <Rbt.Current_Directory>
/home/itssahil/PROJECTS/Mol_Feturizer/New_Systems/rnas/1nem

>  <Rbt.Executable>
rbdock ($Id: //depot/dev/client3/rdock/2013.1/src/exe/rbdock.cxx#4 $)

>  <Rbt.Library>
libRbt.so (2013.1, Build901 2013/11/27)

>  <Rbt.Parameter_File>
/export/apps/rDock/src/rDock_2013.1_src/data/scripts/dock_solv.prm

>  <Rbt.Receptor>
prm/blind_docking_60.prm

>  <SCORE>
-32.1863

>  <SCORE.INTER>
-43.9472

>  <SCORE.INTER.CONST>
1

>  <SCORE.INTER.POLAR>
-5.47349

>  <SCORE.INTER.ROT>
9

>  <SCORE.INTER.SOLV>
47.6508

>  <SCORE.INTER.VDW>
-36.5368

>  <SCORE.INTER.norm>
-1.04636

>  <SCORE.INTRA>
9.14982

>  <SCORE.INTRA.DIHEDRAL>
-4.69387

>  <SCORE.INTRA.DIHEDRAL.0>
22.4324

>  <SCORE.INTRA.POLAR>
-0.127054

>  <SCORE.INTRA.POLAR.0>
-1.83749

>  <SCORE.INTRA.REPUL>
0

>  <SCORE.INTRA.REPUL.0>
0

>  <SCORE.INTRA.SOLV>
1.14366

>  <SCORE.INTRA.SOLV.lig_0>
-160.638

>  <SCORE.INTRA.VDW>
11.3569

>  <SCORE.INTRA.VDW.0>
-7.61953

>  <SCORE.INTRA.norm>
0.217853

>  <SCORE.RESTR>
2.61101

>  <SCORE.RESTR.CAVITY>
2.61101

>  <SCORE.RESTR.norm>
0.0621669

>  <SCORE.SYSTEM>
0

>  <SCORE.SYSTEM.CONST>
0

>  <SCORE.SYSTEM.DIHEDRAL>
0

>  <SCORE.SYSTEM.SOLV>
0

>  <SCORE.SYSTEM.norm>
0

>  <SCORE.heavy>
42

>  <SCORE.norm>
-0.766342

>  <RMSD>
9.714

$$$$
1NEM.B
 OpenBabel11021811403D
libRbt.so/2013.1/901 2013/11/27
 42 45  0  0  0  0  0  0  0  0999 V2000
    5.8331   -0.9362   10.0511 O   0  0  0  0  0  0  0  0  0  0  0  0
    5.4077   -0.1663    8.9249 C   0  0  0  0  0  0  0  0  0  0  0  0
    6.0887   -0.5844    7.6226 C   0  0  1  0  0  0  0  0  0  0  0  0
    5.1513   -0.6112    6.5502 O   0  0  0  0  0  0  0  0  0  0  0  0
    7.1549    0.3791    7.1264 C   0  0  1  0  0  0  0  0  0  0  0  0
    8.2845    0.2451    7.9920 O   0  0  0  0  0  0  0  0  0  0  0  0
    7.3173   -0.1531    5.7149 C   0  0  1  0  0  0  0  0  0  0  0  0
    7.9509   -1.4365    5.6909 O   0  0  0  0  0  0  0  0  0  0  0  0
    5.8367   -0.2878    5.3401 C   0  0  2  0  0  0  0  0  0  0  0  0
    9.4243    0.9755    7.6390 C   0  0  2  0  0  0  0  0  0  0  0  0
   10.4430    0.9091    8.7850 C   0  0  2  0  0  0  0  0  0  0  0  0
    9.8056    1.3331   10.0595 N   0  3  0  0  0  0  0  0  0  0  0  0
   11.6812    1.7522    8.4635 C   0  0  1  0  0  0  0  0  0  0  0  0
   12.4316    1.1247    7.4321 O   0  0  0  0  0  0  0  0  0  0  0  0
   11.2887    3.1666    8.0256 C   0  0  2  0  0  0  0  0  0  0  0  0
   10.7399    3.8883    9.1211 O   0  0  0  0  0  0  0  0  0  0  0  0
   10.2709    3.0888    6.8912 C   0  0  1  0  0  0  0  0  0  0  0  0
    9.1246    2.3279    7.3189 O   0  0  0  0  0  0  0  0  0  0  0  0
    9.7835    4.4507    6.4292 C   0  0  0  0  0  0  0  0  0  0  0  0
    9.0282    5.1557    7.4886 N   0  3  0  0  0  0  0  0  0  0  0  0
   10.1368    0.0665    2.2174 C   0  0  0  0  0  0  0  0  0  0  0  0
    7.3439    2.1249    3.5173 C   0  0  2  0  0  0  0  0  0  0  0  0
    7.9788    3.5134    3.5208 C   0  0  2  0  0  0  0  0  0  0  0  0
    6.9278    4.5582    3.5595 N   0  3  0  0  0  0  0  0  0  0  0  0
    8.8328    3.7031    2.2743 C   0  0  1  0  0  0  0  0  0  0  0  0
    9.4785    4.9660    2.3272 O   0  0  0  0  0  0  0  0  0  0  0  0
    9.8702    2.5857    2.1907 C   0  0  2  0  0  0  0  0  0  0  0  0
   10.6264    2.7161    0.9938 O   0  0  0  0  0  0  0  0  0  0  0  0
    9.8260   -0.9102    1.1485 N   0  3  0  0  0  0  0  0  0  0  0  0
    9.1630    1.2319    2.2082 C   0  0  2  0  0  0  0  0  0  0  0  0
    8.3424    1.1162    3.3884 O   0  0  0  0  0  0  0  0  0  0  0  0
    2.9270   -0.4140    2.3119 C   0  0  2  0  0  0  0  0  0  0  0  0
    2.0706   -1.6222    2.3127 N   0  3  0  0  0  0  0  0  0  0  0  0
    3.9499   -0.5010    1.1849 C   0  0  0  0  0  0  0  0  0  0  0  0
    4.8394    0.7343    1.1734 C   0  0  2  0  0  0  0  0  0  0  0  0
    5.7884    0.5903    0.0786 N   0  3  0  0  0  0  0  0  0  0  0  0
    5.5657    0.8613    2.5105 C   0  0  1  0  0  0  0  0  0  0  0  0
    6.3833    2.0478    2.5017 O   0  0  0  0  0  0  0  0  0  0  0  0
    4.5625    0.9414    3.6696 C   0  0  2  0  0  0  0  0  0  0  0  0
    5.2780    0.9548    4.9196 O   0  0  0  0  0  0  0  0  0  0  0  0
    3.6112   -0.2526    3.6684 C   0  0  1  0  0  0  0  0  0  0  0  0
    2.6260   -0.0752    4.6775 O   0  0  0  0  0  0  0  0  0  0  0  0
  1  2  1  0  0  0  0
  3  2  1  1  0  0  0
  3  5  1  0  0  0  0
  3  4  1  0  0  0  0
  4  9  1  0  0  0  0
  5  7  1  0  0  0  0
  5  6  1  1  0  0  0
  7  9  1  0  0  0  0
  7  8  1  1  0  0  0
  9 40  1  1  0  0  0
 10  6  1  1  0  0  0
 10 11  1  0  0  0  0
 10 18  1  0  0  0  0
 11 13  1  0  0  0  0
 11 12  1  1  0  0  0
 13 15  1  0  0  0  0
 13 14  1  6  0  0  0
 15 17  1  0  0  0  0
 15 16  1  1  0  0  0
 17 19  1  1  0  0  0
 17 18  1  0  0  0  0
 19 20  1  0  0  0  0
 21 29  1  0  0  0  0
 22 23  1  0  0  0  0
 22 31  1  0  0  0  0
 22 38  1  6  0  0  0
 23 25  1  0  0  0  0
 23 24  1  6  0  0  0
 25 27  1  0  0  0  0
 25 26  1  1  0  0  0
 27 30  1  0  0  0  0
 27 28  1  6  0  0  0
 30 21  1  1  0  0  0
 30 31  1  0  0  0  0
 32 34  1  0  0  0  0
 32 41  1  0  0  0  0
 32 33  1  1  0  0  0
 34 35  1  0  0  0  0
 35 37  1  0  0  0  0
 35 36  1  6  0  0  0
 37 39  1  0  0  0  0
 37 38  1  6  0  0  0
 39 41  1  0  0  0  0
 39 40  1  1  0  0  0
 41 42  1  1  0  0  0
M  CHG  6  12   1  20   1  24   1  29   1  33   1  36   1
M  END
>  <CHROM.1>
60.64238383,138.09619239,175.02040074,170.41430978,63.33558022,-116.03813443
168.10241977,-62.59526490,69.92125415,-64.76974369,-78.85858718,-128.32196590
-71.14681240,-171.14451882,-54.11019609,59.05465967,176.30907858,-167.36466609
-177.70759191,-165.18145197,-74.55809049,-46.14348417,7.61115731,1.28140610
4.99317027,0.70657659,0.52653239,1.75736012

>  <Name>
1NEM.B

>  <RI>
0

>  <Rbt.Current_Directory>
/home/itssahil/PROJECTS/Mol_Feturizer/New_Systems/rnas/1nem

>  <Rbt.Executable>
rbdock ($Id: //depot/dev/client3/rdock/2013.1/src/exe/rbdock.cxx#4 $)

>  <Rbt.Library>
libRbt.so (2013.1, Build901 2013/11/27)

>  <Rbt.Parameter_File>
/export/apps/rDock/src/rDock_2013.1_src/data/scripts/dock_solv.prm

>  <Rbt.Receptor>
prm/pocket_docking_8.prm

>  <SCORE>
-14.6696

>  <SCORE.INTER>
-16.1711

>  <SCORE.INTER.CONST>
1

>  <SCORE.INTER.POLAR>
-3.84548

>  <SCORE.INTER.ROT>
9

>  <SCORE.INTER.SOLV>
16.5459

>  <SCORE.INTER.VDW>
-13.0778

>  <SCORE.INTER.norm>
-0.385027

>  <SCORE.INTRA>
1.5015

>  <SCORE.INTRA.DIHEDRAL>
1.13628

>  <SCORE.INTRA.DIHEDRAL.0>
22.4324

>  <SCORE.INTRA.POLAR>
0.360331

>  <SCORE.INTRA.POLAR.0>
-1.83749

>  <SCORE.INTRA.REPUL>
0

>  <SCORE.INTRA.REPUL.0>
0

>  <SCORE.INTRA.SOLV>
-5.15377

>  <SCORE.INTRA.SOLV.lig_0>
-160.638

>  <SCORE.INTRA.VDW>
2.28512

>  <SCORE.INTRA.VDW.0>
-7.61953

>  <SCORE.INTRA.norm>
0.0357501

>  <SCORE.RESTR>
0

>  <SCORE.RESTR.CAVITY>
0

>  <SCORE.RESTR.norm>
0

>  <SCORE.SYSTEM>
0

>  <SCORE.SYSTEM.CONST>
0

>  <SCORE.SYSTEM.DIHEDRAL>
0

>  <SCORE.SYSTEM.SOLV>
0

>  <SCORE.SYSTEM.norm>
0

>  <SCORE.heavy>
42

>  <SCORE.norm>
-0.349277

>  <RMSD>
9.719

$$$$
1NEM.B
 OpenBabel11021811403D
libRbt.so/2013.1/901 2013/11/27
 42 45  0  0  0  0  0  0  0  0999 V2000
   -5.7164   -8.2586    4.9008 O   0  0  0  0  0  0  0  0  0  0  0  0
   -4.6107   -7.3969    4.6233 C   0  0  0  0  0  0  0  0  0  0  0  0
   -4.7858   -5.9936    5.2020 C   0  0  1  0  0  0  0  0  0  0  0  0
   -3.5628   -5.2659    5.1372 O   0  0  0  0  0  0  0  0  0  0  0  0
   -5.7563   -5.1082    4.4366 C   0  0  1  0  0  0  0  0  0  0  0  0
   -7.0740   -5.5962    4.6992 O   0  0  0  0  0  0  0  0  0  0  0  0
   -5.3947   -3.7705    5.0544 C   0  0  1  0  0  0  0  0  0  0  0  0
   -5.8166   -3.6737    6.4188 O   0  0  0  0  0  0  0  0  0  0  0  0
   -3.8672   -3.8799    4.9802 C   0  0  2  0  0  0  0  0  0  0  0  0
   -8.0196   -5.3989    3.6873 C   0  0  2  0  0  0  0  0  0  0  0  0
   -8.7332   -6.7260    3.3958 C   0  0  2  0  0  0  0  0  0  0  0  0
   -7.7350   -7.7906    3.1119 N   0  3  0  0  0  0  0  0  0  0  0  0
   -9.7331   -6.5664    2.2459 C   0  0  1  0  0  0  0  0  0  0  0  0
  -10.8381   -5.7841    2.6789 O   0  0  0  0  0  0  0  0  0  0  0  0
   -9.0776   -5.9020    1.0314 C   0  0  2  0  0  0  0  0  0  0  0  0
   -8.1210   -6.7765    0.4463 O   0  0  0  0  0  0  0  0  0  0  0  0
   -8.4016   -4.6026    1.4598 C   0  0  1  0  0  0  0  0  0  0  0  0
   -7.4414   -4.8747    2.4990 O   0  0  0  0  0  0  0  0  0  0  0  0
   -7.6771   -3.9015    0.3242 C   0  0  0  0  0  0  0  0  0  0  0  0
   -6.6630   -4.7751   -0.3068 N   0  3  0  0  0  0  0  0  0  0  0  0
    2.6357   -0.9670    2.1503 C   0  0  0  0  0  0  0  0  0  0  0  0
   -0.6950   -2.1085    0.9969 C   0  0  2  0  0  0  0  0  0  0  0  0
   -0.4139   -3.5786    0.6955 C   0  0  2  0  0  0  0  0  0  0  0  0
   -1.6811   -4.3471    0.6625 N   0  3  0  0  0  0  0  0  0  0  0  0
    0.5046   -4.1660    1.7587 C   0  0  1  0  0  0  0  0  0  0  0  0
    0.8205   -5.5090    1.4256 O   0  0  0  0  0  0  0  0  0  0  0  0
    1.7811   -3.3327    1.8482 C   0  0  2  0  0  0  0  0  0  0  0  0
    2.6138   -3.8332    2.8863 O   0  0  0  0  0  0  0  0  0  0  0  0
    3.5092   -1.2469    3.3129 N   0  3  0  0  0  0  0  0  0  0  0  0
    1.4195   -1.8766    2.1350 C   0  0  2  0  0  0  0  0  0  0  0  0
    0.5231   -1.3792    1.1207 O   0  0  0  0  0  0  0  0  0  0  0  0
   -5.5249   -0.7117    2.4318 C   0  0  2  0  0  0  0  0  0  0  0  0
   -6.9857   -0.6306    2.2021 N   0  3  0  0  0  0  0  0  0  0  0  0
   -4.7784   -0.4945    1.1204 C   0  0  0  0  0  0  0  0  0  0  0  0
   -3.2745   -0.5775    1.3411 C   0  0  2  0  0  0  0  0  0  0  0  0
   -2.6228   -0.3610    0.0572 N   0  3  0  0  0  0  0  0  0  0  0  0
   -2.9102   -1.9455    1.9129 C   0  0  1  0  0  0  0  0  0  0  0  0
   -1.4893   -2.0058    2.1452 O   0  0  0  0  0  0  0  0  0  0  0  0
   -3.6541   -2.2003    3.2312 C   0  0  2  0  0  0  0  0  0  0  0  0
   -3.3702   -3.5363    3.6886 O   0  0  0  0  0  0  0  0  0  0  0  0
   -5.1641   -2.0582    3.0570 C   0  0  1  0  0  0  0  0  0  0  0  0
   -5.8010   -2.1788    4.3220 O   0  0  0  0  0  0  0  0  0  0  0  0
  1  2  1  0  0  0  0
  3  2  1  6  0  0  0
  3  5  1  0  0  0  0
  3  4  1  0  0  0  0
  4  9  1  0  0  0  0
  5  7  1  0  0  0  0
  5  6  1  1  0  0  0
  7  9  1  0  0  0  0
  7  8  1  1  0  0  0
  9 40  1  6  0  0  0
 10  6  1  1  0  0  0
 10 11  1  0  0  0  0
 10 18  1  0  0  0  0
 11 13  1  0  0  0  0
 11 12  1  6  0  0  0
 13 15  1  0  0  0  0
 13 14  1  1  0  0  0
 15 17  1  0  0  0  0
 15 16  1  1  0  0  0
 17 19  1  6  0  0  0
 17 18  1  0  0  0  0
 19 20  1  0  0  0  0
 21 29  1  0  0  0  0
 22 23  1  0  0  0  0
 22 31  1  0  0  0  0
 22 38  1  1  0  0  0
 23 25  1  0  0  0  0
 23 24  1  1  0  0  0
 25 27  1  0  0  0  0
 25 26  1  6  0  0  0
 27 30  1  0  0  0  0
 27 28  1  1  0  0  0
 30 21  1  6  0  0  0
 30 31  1  0  0  0  0
 32 34  1  0  0  0  0
 32 41  1  0  0  0  0
 32 33  1  6  0  0  0
 34 35  1  0  0  0  0
 35 37  1  0  0  0  0
 35 36  1  6  0  0  0
 37 39  1  0  0  0  0
 37 38  1  1  0  0  0
 39 41  1  0  0  0  0
 39 40  1  6  0  0  0
 41 42  1  1  0  0  0
M  CHG  6  12   1  20   1  24   1  29   1  33   1  36   1
M  END
>  <CHROM.1>
-54.72131900,168.23984730,-150.62863852,129.89548352,-53.53240259,174.88738221
-164.73985465,-44.01861408,75.80885070,-56.85522876,44.18143478,-68.63058601
-139.43997148,-93.02918282,-81.94085421,-145.29343938,159.89676174,-12.55384092
-75.75171103,-72.96529991,173.23673657,-43.75668147,-4.12673417,-3.86739263
2.63366562,-2.78341065,-0.11343401,-0.55011838

>  <Name>
1NEM.B

>  <RI>
0

>  <Rbt.Current_Directory>
/home/itssahil/PROJECTS/Mol_Feturizer/New_Systems/rnas/1nem

>  <Rbt.Executable>
rbdock ($Id: //depot/dev/client3/rdock/2013.1/src/exe/rbdock.cxx#4 $)

>  <Rbt.Library>
libRbt.so (2013.1, Build901 2013/11/27)

>  <Rbt.Parameter_File>
/export/apps/rDock/src/rDock_2013.1_src/data/scripts/dock_solv.prm

>  <Rbt.Receptor>
prm/blind_docking_100.prm

>  <SCORE>
-19.0682

>  <SCORE.INTER>
-54.8277

>  <SCORE.INTER.CONST>
1

>  <SCORE.INTER.POLAR>
-6.99171

>  <SCORE.INTER.ROT>
9

>  <SCORE.INTER.SOLV>
38.8173

>  <SCORE.INTER.VDW>
-35.7852

>  <SCORE.INTER.norm>
-1.30542

>  <SCORE.INTRA>
35.1169

>  <SCORE.INTRA.DIHEDRAL>
13.3273

>  <SCORE.INTRA.DIHEDRAL.0>
22.4324

>  <SCORE.INTRA.POLAR>
-0.123948

>  <SCORE.INTRA.POLAR.0>
-1.83749

>  <SCORE.INTRA.REPUL>
0

>  <SCORE.INTRA.REPUL.0>
0

>  <SCORE.INTRA.SOLV>
7.98138

>  <SCORE.INTRA.SOLV.lig_0>
-160.638

>  <SCORE.INTRA.VDW>
24.884

>  <SCORE.INTRA.VDW.0>
-7.61953

>  <SCORE.INTRA.norm>
0.836117

>  <SCORE.RESTR>
0.64258

>  <SCORE.RESTR.CAVITY>
0.64258

>  <SCORE.RESTR.norm>
0.0152995

>  <SCORE.SYSTEM>
0

>  <SCORE.SYSTEM.CONST>
0

>  <SCORE.SYSTEM.DIHEDRAL>
0

>  <SCORE.SYSTEM.SOLV>
0

>  <SCORE.SYSTEM.norm>
0

>  <SCORE.heavy>
42

>  <SCORE.norm>
-0.454006

>  <RMSD>
9.757

$$$$
1NEM.B
 OpenBabel11021811403D
libRbt.so/2013.1/901 2013/11/27
 42 45  0  0  0  0  0  0  0  0999 V2000
   -3.9731   -5.3465    3.4988 O   0  0  0  0  0  0  0  0  0  0  0  0
   -5.1227   -5.0458    4.2925 C   0  0  0  0  0  0  0  0  0  0  0  0
   -5.7438   -3.6907    3.9568 C   0  0  1  0  0  0  0  0  0  0  0  0
   -4.7375   -2.6880    3.8506 O   0  0  0  0  0  0  0  0  0  0  0  0
   -6.4384   -3.6284    2.6058 C   0  0  1  0  0  0  0  0  0  0  0  0
   -7.6498   -4.3792    2.7161 O   0  0  0  0  0  0  0  0  0  0  0  0
   -6.5842   -2.1232    2.4833 C   0  0  1  0  0  0  0  0  0  0  0  0
   -7.5425   -1.5961    3.4069 O   0  0  0  0  0  0  0  0  0  0  0  0
   -5.1671   -1.7127    2.9005 C   0  0  2  0  0  0  0  0  0  0  0  0
   -7.7306   -5.5403    1.9399 C   0  0  2  0  0  0  0  0  0  0  0  0
   -8.6677   -5.2898    0.7505 C   0  0  2  0  0  0  0  0  0  0  0  0
   -9.9764   -4.7740    1.2318 N   0  3  0  0  0  0  0  0  0  0  0  0
   -8.8342   -6.5601   -0.0896 C   0  0  1  0  0  0  0  0  0  0  0  0
   -7.6250   -6.8354   -0.7843 O   0  0  0  0  0  0  0  0  0  0  0  0
   -9.2066   -7.7588    0.7884 C   0  0  2  0  0  0  0  0  0  0  0  0
  -10.5194   -7.5992    1.3111 O   0  0  0  0  0  0  0  0  0  0  0  0
   -8.2036   -7.8893    1.9311 C   0  0  1  0  0  0  0  0  0  0  0  0
   -8.1704   -6.6650    2.6900 O   0  0  0  0  0  0  0  0  0  0  0  0
   -8.5281   -9.0242    2.8864 C   0  0  0  0  0  0  0  0  0  0  0  0
   -7.6481   -9.0136    4.0761 N   0  3  0  0  0  0  0  0  0  0  0  0
    2.7199   -1.9979    1.6579 C   0  0  0  0  0  0  0  0  0  0  0  0
   -0.5992   -2.5180    0.0957 C   0  0  2  0  0  0  0  0  0  0  0  0
   -0.7129   -4.0397    0.1463 C   0  0  2  0  0  0  0  0  0  0  0  0
   -2.1294   -4.4535    0.0060 N   0  3  0  0  0  0  0  0  0  0  0  0
   -0.1629   -4.5634    1.4663 C   0  0  1  0  0  0  0  0  0  0  0  0
   -0.2025   -5.9822    1.4691 O   0  0  0  0  0  0  0  0  0  0  0  0
    1.2730   -4.0775    1.6503 C   0  0  2  0  0  0  0  0  0  0  0  0
    1.7703   -4.5045    2.9121 O   0  0  0  0  0  0  0  0  0  0  0  0
    3.2625   -1.6826    0.3166 N   0  3  0  0  0  0  0  0  0  0  0  0
    1.3086   -2.5525    1.5720 C   0  0  2  0  0  0  0  0  0  0  0  0
    0.7466   -2.1069    0.3208 O   0  0  0  0  0  0  0  0  0  0  0  0
   -3.6373    1.6870    0.5709 C   0  0  2  0  0  0  0  0  0  0  0  0
   -4.5704    2.7004    0.0270 N   0  3  0  0  0  0  0  0  0  0  0  0
   -2.5971    1.3187   -0.4810 C   0  0  0  0  0  0  0  0  0  0  0  0
   -1.6318    0.2754    0.0638 C   0  0  2  0  0  0  0  0  0  0  0  0
   -0.6678   -0.0303   -0.9837 N   0  3  0  0  0  0  0  0  0  0  0  0
   -2.4022   -0.9765    0.4771 C   0  0  1  0  0  0  0  0  0  0  0  0
   -1.4852   -1.9477    1.0176 O   0  0  0  0  0  0  0  0  0  0  0  0
   -3.4664   -0.6380    1.5302 C   0  0  2  0  0  0  0  0  0  0  0  0
   -4.2422   -1.8164    1.8203 O   0  0  0  0  0  0  0  0  0  0  0  0
   -4.4113    0.4554    1.0380 C   0  0  1  0  0  0  0  0  0  0  0  0
   -5.2983    0.8231    2.0861 O   0  0  0  0  0  0  0  0  0  0  0  0
  1  2  1  0  0  0  0
  3  2  1  6  0  0  0
  3  5  1  0  0  0  0
  3  4  1  0  0  0  0
  4  9  1  0  0  0  0
  5  7  1  0  0  0  0
  5  6  1  1  0  0  0
  7  9  1  0  0  0  0
  7  8  1  1  0  0  0
  9 40  1  6  0  0  0
 10  6  1  1  0  0  0
 10 11  1  0  0  0  0
 10 18  1  0  0  0  0
 11 13  1  0  0  0  0
 11 12  1  1  0  0  0
 13 15  1  0  0  0  0
 13 14  1  1  0  0  0
 15 17  1  0  0  0  0
 15 16  1  1  0  0  0
 17 19  1  1  0  0  0
 17 18  1  0  0  0  0
 19 20  1  0  0  0  0
 21 29  1  0  0  0  0
 22 23  1  0  0  0  0
 22 31  1  0  0  0  0
 22 38  1  1  0  0  0
 23 25  1  0  0  0  0
 23 24  1  1  0  0  0
 25 27  1  0  0  0  0
 25 26  1  6  0  0  0
 27 30  1  0  0  0  0
 27 28  1  1  0  0  0
 30 21  1  6  0  0  0
 30 31  1  0  0  0  0
 32 34  1  0  0  0  0
 32 41  1  0  0  0  0
 32 33  1  6  0  0  0
 34 35  1  0  0  0  0
 35 37  1  0  0  0  0
 35 36  1  6  0  0  0
 37 39  1  0  0  0  0
 37 38  1  1  0  0  0
 39 41  1  0  0  0  0
 39 40  1  6  0  0  0
 41 42  1  1  0  0  0
M  CHG  6  12   1  20   1  24   1  29   1  33   1  36   1
M  END
>  <CHROM.1>
-59.59170105,-45.80841411,-114.41784261,-105.48998478,-41.51915857,-118.71415341
88.44787107,59.37754534,52.39715511,-172.38434042,-77.94660975,98.49394122
-33.01934536,-125.36188514,69.10524824,171.95214838,64.73966912,55.73813486
-70.04787556,-68.86526751,172.52674738,152.99120252,-4.17772530,-3.44765811
1.55887258,-2.59650389,0.05230309,-0.15750382

>  <Name>
1NEM.B

>  <RI>
0

>  <Rbt.Current_Directory>
/home/itssahil/PROJECTS/Mol_Feturizer/New_Systems/rnas/1nem

>  <Rbt.Executable>
rbdock ($Id: //depot/dev/client3/rdock/2013.1/src/exe/rbdock.cxx#4 $)

>  <Rbt.Library>
libRbt.so (2013.1, Build901 2013/11/27)

>  <Rbt.Parameter_File>
/export/apps/rDock/src/rDock_2013.1_src/data/scripts/dock_solv.prm

>  <Rbt.Receptor>
prm/blind_docking_20.prm

>  <SCORE>
-1.88212

>  <SCORE.INTER>
-24.5543

>  <SCORE.INTER.CONST>
1

>  <SCORE.INTER.POLAR>
-7.70252

>  <SCORE.INTER.ROT>
9

>  <SCORE.INTER.SOLV>
53.1985

>  <SCORE.INTER.VDW>
-18.0273

>  <SCORE.INTER.norm>
-0.584625

>  <SCORE.INTRA>
18.0689

>  <SCORE.INTRA.DIHEDRAL>
19.9617

>  <SCORE.INTRA.DIHEDRAL.0>
22.4324

>  <SCORE.INTRA.POLAR>
0.495269

>  <SCORE.INTRA.POLAR.0>
-1.83749

>  <SCORE.INTRA.REPUL>
0

>  <SCORE.INTRA.REPUL.0>
0

>  <SCORE.INTRA.SOLV>
-3.08275

>  <SCORE.INTRA.SOLV.lig_0>
-160.638

>  <SCORE.INTRA.VDW>
7.94553

>  <SCORE.INTRA.VDW.0>
-7.61953

>  <SCORE.INTRA.norm>
0.430212

>  <SCORE.RESTR>
4.60321

>  <SCORE.RESTR.CAVITY>
4.60321

>  <SCORE.RESTR.norm>
0.1096

>  <SCORE.SYSTEM>
0

>  <SCORE.SYSTEM.CONST>
0

>  <SCORE.SYSTEM.DIHEDRAL>
0

>  <SCORE.SYSTEM.SOLV>
0

>  <SCORE.SYSTEM.norm>
0

>  <SCORE.heavy>
42

>  <SCORE.norm>
-0.0448123

>  <RMSD>
9.760

$$$$
1NEM.B
 OpenBabel11021811403D
libRbt.so/2013.1/901 2013/11/27
 42 45  0  0  0  0  0  0  0  0999 V2000
   -9.1538   -3.9421   -0.7674 O   0  0  0  0  0  0  0  0  0  0  0  0
   -7.8486   -3.3792   -0.9142 C   0  0  0  0  0  0  0  0  0  0  0  0
   -6.7812   -4.1272   -0.1167 C   0  0  1  0  0  0  0  0  0  0  0  0
   -5.5163   -3.4838   -0.2414 O   0  0  0  0  0  0  0  0  0  0  0  0
   -7.0115   -4.1496    1.3860 C   0  0  1  0  0  0  0  0  0  0  0  0
   -8.1032   -5.0380    1.6352 O   0  0  0  0  0  0  0  0  0  0  0  0
   -5.6397   -4.6225    1.8291 C   0  0  1  0  0  0  0  0  0  0  0  0
   -5.4007   -5.9900    1.4799 O   0  0  0  0  0  0  0  0  0  0  0  0
   -4.7780   -3.6974    0.9618 C   0  0  2  0  0  0  0  0  0  0  0  0
   -7.9407   -5.9350    2.6964 C   0  0  2  0  0  0  0  0  0  0  0  0
   -8.3434   -7.3424    2.2356 C   0  0  2  0  0  0  0  0  0  0  0  0
   -9.7098   -7.3163    1.6502 N   0  3  0  0  0  0  0  0  0  0  0  0
   -8.2413   -8.3444    3.3902 C   0  0  1  0  0  0  0  0  0  0  0  0
   -6.8741   -8.5718    3.7058 O   0  0  0  0  0  0  0  0  0  0  0  0
   -8.9774   -7.8332    4.6325 C   0  0  2  0  0  0  0  0  0  0  0  0
  -10.3807   -7.8175    4.4036 O   0  0  0  0  0  0  0  0  0  0  0  0
   -8.4901   -6.4284    4.9760 C   0  0  1  0  0  0  0  0  0  0  0  0
   -8.6869   -5.5566    3.8459 O   0  0  0  0  0  0  0  0  0  0  0  0
   -9.2081   -5.8200    6.1678 C   0  0  0  0  0  0  0  0  0  0  0  0
   -8.6279   -4.5148    6.5548 N   0  3  0  0  0  0  0  0  0  0  0  0
   -6.0164   -0.7501    3.5573 C   0  0  0  0  0  0  0  0  0  0  0  0
   -3.1112   -2.8279    4.5419 C   0  0  2  0  0  0  0  0  0  0  0  0
   -3.6638   -3.5415    5.7733 C   0  0  2  0  0  0  0  0  0  0  0  0
   -2.8622   -4.7534    6.0670 N   0  3  0  0  0  0  0  0  0  0  0  0
   -5.1150   -3.9407    5.5412 C   0  0  1  0  0  0  0  0  0  0  0  0
   -5.6400   -4.5329    6.7195 O   0  0  0  0  0  0  0  0  0  0  0  0
   -5.9309   -2.7059    5.1654 C   0  0  2  0  0  0  0  0  0  0  0  0
   -7.2722   -3.0808    4.8796 O   0  0  0  0  0  0  0  0  0  0  0  0
   -7.3593   -1.0133    2.9912 N   0  3  0  0  0  0  0  0  0  0  0  0
   -5.3100   -2.0392    3.9392 C   0  0  2  0  0  0  0  0  0  0  0  0
   -3.9294   -1.7129    4.1979 O   0  0  0  0  0  0  0  0  0  0  0  0
   -1.2322   -0.9751    0.7779 C   0  0  2  0  0  0  0  0  0  0  0  0
   -0.6751   -0.4034   -0.4696 N   0  3  0  0  0  0  0  0  0  0  0  0
   -0.4314   -2.2050    1.1903 C   0  0  0  0  0  0  0  0  0  0  0  0
   -0.9946   -2.8051    2.4710 C   0  0  2  0  0  0  0  0  0  0  0  0
   -0.1886   -3.9694    2.8100 N   0  3  0  0  0  0  0  0  0  0  0  0
   -2.4553   -3.1966    2.2601 C   0  0  1  0  0  0  0  0  0  0  0  0
   -2.9888   -3.7374    3.4846 O   0  0  0  0  0  0  0  0  0  0  0  0
   -3.2889   -1.9804    1.8335 C   0  0  2  0  0  0  0  0  0  0  0  0
   -4.6348   -2.4029    1.5423 O   0  0  0  0  0  0  0  0  0  0  0  0
   -2.7094   -1.3153    0.5875 C   0  0  1  0  0  0  0  0  0  0  0  0
   -3.4359   -0.1273    0.3024 O   0  0  0  0  0  0  0  0  0  0  0  0
  1  2  1  0  0  0  0
  3  2  1  6  0  0  0
  3  5  1  0  0  0  0
  3  4  1  0  0  0  0
  4  9  1  0  0  0  0
  5  7  1  0  0  0  0
  5  6  1  6  0  0  0
  7  9  1  0  0  0  0
  7  8  1  6  0  0  0
  9 40  1  1  0  0  0
 10  6  1  6  0  0  0
 10 11  1  0  0  0  0
 10 18  1  0  0  0  0
 11 13  1  0  0  0  0
 11 12  1  1  0  0  0
 13 15  1  0  0  0  0
 13 14  1  1  0  0  0
 15 17  1  0  0  0  0
 15 16  1  6  0  0  0
 17 19  1  1  0  0  0
 17 18  1  0  0  0  0
 19 20  1  0  0  0  0
 21 29  1  0  0  0  0
 22 23  1  0  0  0  0
 22 31  1  0  0  0  0
 22 38  1  6  0  0  0
 23 25  1  0  0  0  0
 23 24  1  6  0  0  0
 25 27  1  0  0  0  0
 25 26  1  1  0  0  0
 27 30  1  0  0  0  0
 27 28  1  6  0  0  0
 30 21  1  1  0  0  0
 30 31  1  0  0  0  0
 32 34  1  0  0  0  0
 32 41  1  0  0  0  0
 32 33  1  6  0  0  0
 34 35  1  0  0  0  0
 35 37  1  0  0  0  0
 35 36  1  6  0  0  0
 37 39  1  0  0  0  0
 37 38  1  1  0  0  0
 39 41  1  0  0  0  0
 39 40  1  6  0  0  0
 41 42  1  1  0  0  0
M  CHG  6  12   1  20   1  24   1  29   1  33   1  36   1
M  END
>  <CHROM.1>
-62.32450987,-176.89926965,135.43765030,-132.51440319,-78.05774744,-124.85240729
-71.59096328,65.40036152,73.62731852,174.59661279,179.52149052,-70.98435133
167.58898462,-179.05507821,-65.24139194,-66.39355908,-46.84441621,-68.84676867
-88.66792873,67.14232851,-34.40748206,171.79062602,-5.62989767,-4.01449954
2.85412422,2.72467307,0.53500586,1.85750908

>  <Name>
1NEM.B

>  <RI>
0

>  <Rbt.Current_Directory>
/home/itssahil/PROJECTS/Mol_Feturizer/New_Systems/rnas/1nem

>  <Rbt.Executable>
rbdock ($Id: //depot/dev/client3/rdock/2013.1/src/exe/rbdock.cxx#4 $)

>  <Rbt.Library>
libRbt.so (2013.1, Build901 2013/11/27)

>  <Rbt.Parameter_File>
/export/apps/rDock/src/rDock_2013.1_src/data/scripts/dock_solv.prm

>  <Rbt.Receptor>
prm/blind_docking_80.prm

>  <SCORE>
25.6501

>  <SCORE.INTER>
-2.63224

>  <SCORE.INTER.CONST>
1

>  <SCORE.INTER.POLAR>
-3.47644

>  <SCORE.INTER.ROT>
9

>  <SCORE.INTER.SOLV>
39.3134

>  <SCORE.INTER.VDW>
-12.8712

>  <SCORE.INTER.norm>
-0.0626724

>  <SCORE.INTRA>
9.05455

>  <SCORE.INTRA.DIHEDRAL>
7.33085

>  <SCORE.INTRA.DIHEDRAL.0>
22.4324

>  <SCORE.INTRA.POLAR>
-1.42428

>  <SCORE.INTRA.POLAR.0>
-1.83749

>  <SCORE.INTRA.REPUL>
0

>  <SCORE.INTRA.REPUL.0>
0

>  <SCORE.INTRA.SOLV>
4.54972

>  <SCORE.INTRA.SOLV.lig_0>
-160.638

>  <SCORE.INTRA.VDW>
7.95682

>  <SCORE.INTRA.VDW.0>
-7.61953

>  <SCORE.INTRA.norm>
0.215584

>  <SCORE.RESTR>
19.2278

>  <SCORE.RESTR.CAVITY>
19.2278

>  <SCORE.RESTR.norm>
0.457804

>  <SCORE.SYSTEM>
0

>  <SCORE.SYSTEM.CONST>
0

>  <SCORE.SYSTEM.DIHEDRAL>
0

>  <SCORE.SYSTEM.SOLV>
0

>  <SCORE.SYSTEM.norm>
0

>  <SCORE.heavy>
42

>  <SCORE.norm>
0.610716

>  <RMSD>
9.764

$$$$
1NEM.B
 OpenBabel11021811403D
libRbt.so/2013.1/901 2013/11/27
 42 45  0  0  0  0  0  0  0  0999 V2000
   -4.4237   -6.5391    5.6390 O   0  0  0  0  0  0  0  0  0  0  0  0
   -3.7819   -5.3025    5.3212 C   0  0  0  0  0  0  0  0  0  0  0  0
   -4.7405   -4.2616    4.7448 C   0  0  1  0  0  0  0  0  0  0  0  0
   -4.0475   -3.0563    4.4341 O   0  0  0  0  0  0  0  0  0  0  0  0
   -5.3741   -4.6485    3.4180 C   0  0  1  0  0  0  0  0  0  0  0  0
   -6.3338   -5.6728    3.6884 O   0  0  0  0  0  0  0  0  0  0  0  0
   -5.9258   -3.2940    3.0147 C   0  0  1  0  0  0  0  0  0  0  0  0
   -7.0264   -2.8921    3.8371 O   0  0  0  0  0  0  0  0  0  0  0  0
   -4.6943   -2.4345    3.3234 C   0  0  2  0  0  0  0  0  0  0  0  0
   -7.2162   -5.9837    2.6481 C   0  0  2  0  0  0  0  0  0  0  0  0
   -8.5482   -5.2576    2.8803 C   0  0  2  0  0  0  0  0  0  0  0  0
   -9.0639   -5.5604    4.2414 N   0  3  0  0  0  0  0  0  0  0  0  0
   -9.5656   -5.6242    1.7950 C   0  0  1  0  0  0  0  0  0  0  0  0
   -9.1786   -5.0370    0.5597 O   0  0  0  0  0  0  0  0  0  0  0  0
   -9.6749   -7.1431    1.6300 C   0  0  2  0  0  0  0  0  0  0  0  0
  -10.2772   -7.7228    2.7804 O   0  0  0  0  0  0  0  0  0  0  0  0
   -8.2859   -7.7373    1.4143 C   0  0  1  0  0  0  0  0  0  0  0  0
   -7.4298   -7.3831    2.5178 O   0  0  0  0  0  0  0  0  0  0  0  0
   -8.2938   -9.2511    1.2944 C   0  0  0  0  0  0  0  0  0  0  0  0
   -7.2105   -9.8737    2.0873 N   0  3  0  0  0  0  0  0  0  0  0  0
    2.8976   -0.5184    1.7882 C   0  0  0  0  0  0  0  0  0  0  0  0
    0.1007   -2.7094    0.7374 C   0  0  2  0  0  0  0  0  0  0  0  0
    0.6158   -4.0767    1.1804 C   0  0  2  0  0  0  0  0  0  0  0  0
   -0.5074   -5.0383    1.2871 N   0  3  0  0  0  0  0  0  0  0  0  0
    1.3123   -3.9630    2.5299 C   0  0  1  0  0  0  0  0  0  0  0  0
    1.8537   -5.2236    2.8938 O   0  0  0  0  0  0  0  0  0  0  0  0
    2.4231   -2.9187    2.4453 C   0  0  2  0  0  0  0  0  0  0  0  0
    3.0329   -2.7566    3.7194 O   0  0  0  0  0  0  0  0  0  0  0  0
    2.7395    0.1755    0.4896 N   0  3  0  0  0  0  0  0  0  0  0  0
    1.8357   -1.5869    1.9823 C   0  0  2  0  0  0  0  0  0  0  0  0
    1.1592   -1.7553    0.7199 O   0  0  0  0  0  0  0  0  0  0  0  0
   -3.5076    1.0053    0.8432 C   0  0  2  0  0  0  0  0  0  0  0  0
   -4.5330    1.8673    0.2116 N   0  3  0  0  0  0  0  0  0  0  0  0
   -2.3889    0.7128   -0.1503 C   0  0  0  0  0  0  0  0  0  0  0  0
   -1.3280   -0.1749    0.4851 C   0  0  2  0  0  0  0  0  0  0  0  0
   -0.2925   -0.4145   -0.5102 N   0  3  0  0  0  0  0  0  0  0  0  0
   -1.9584   -1.4884    0.9421 C   0  0  1  0  0  0  0  0  0  0  0  0
   -0.9539   -2.3108    1.5675 O   0  0  0  0  0  0  0  0  0  0  0  0
   -3.0974   -1.2282    1.9377 C   0  0  2  0  0  0  0  0  0  0  0  0
   -3.7369   -2.4760    2.2675 O   0  0  0  0  0  0  0  0  0  0  0  0
   -4.1462   -0.2857    1.3527 C   0  0  1  0  0  0  0  0  0  0  0  0
   -5.1127    0.0247    2.3478 O   0  0  0  0  0  0  0  0  0  0  0  0
  1  2  1  0  0  0  0
  3  2  1  6  0  0  0
  3  5  1  0  0  0  0
  3  4  1  0  0  0  0
  4  9  1  0  0  0  0
  5  7  1  0  0  0  0
  5  6  1  1  0  0  0
  7  9  1  0  0  0  0
  7  8  1  1  0  0  0
  9 40  1  6  0  0  0
 10  6  1  1  0  0  0
 10 11  1  0  0  0  0
 10 18  1  0  0  0  0
 11 13  1  0  0  0  0
 11 12  1  1  0  0  0
 13 15  1  0  0  0  0
 13 14  1  6  0  0  0
 15 17  1  0  0  0  0
 15 16  1  1  0  0  0
 17 19  1  1  0  0  0
 17 18  1  0  0  0  0
 19 20  1  0  0  0  0
 21 29  1  0  0  0  0
 22 23  1  0  0  0  0
 22 31  1  0  0  0  0
 22 38  1  1  0  0  0
 23 25  1  0  0  0  0
 23 24  1  1  0  0  0
 25 27  1  0  0  0  0
 25 26  1  6  0  0  0
 27 30  1  0  0  0  0
 27 28  1  1  0  0  0
 30 21  1  6  0  0  0
 30 31  1  0  0  0  0
 32 34  1  0  0  0  0
 32 41  1  0  0  0  0
 32 33  1  6  0  0  0
 34 35  1  0  0  0  0
 35 37  1  0  0  0  0
 35 36  1  6  0  0  0
 37 39  1  0  0  0  0
 37 38  1  1  0  0  0
 39 41  1  0  0  0  0
 39 40  1  6  0  0  0
 41 42  1  1  0  0  0
M  CHG  6  12   1  20   1  24   1  29   1  33   1  36   1
M  END
>  <CHROM.1>
68.15198735,-179.40958521,167.73032091,-98.59520441,-30.77804947,-106.05893844
-158.86917580,-44.00224777,66.33621718,-135.40917287,19.21207421,131.98599840
-167.34723188,-148.83172294,-39.22480114,64.55816332,-175.50820648,-62.95043517
155.01635097,-62.96573717,171.50684407,161.61301108,-3.68953725,-3.59105412
2.21135647,-2.61094389,-0.03963406,-0.30435580

>  <Name>
1NEM.B

>  <RI>
0

>  <Rbt.Current_Directory>
/home/itssahil/PROJECTS/Mol_Feturizer/New_Systems/rnas/1nem

>  <Rbt.Executable>
rbdock ($Id: //depot/dev/client3/rdock/2013.1/src/exe/rbdock.cxx#4 $)

>  <Rbt.Library>
libRbt.so (2013.1, Build901 2013/11/27)

>  <Rbt.Parameter_File>
/export/apps/rDock/src/rDock_2013.1_src/data/scripts/dock_solv.prm

>  <Rbt.Receptor>
prm/blind_docking_80.prm

>  <SCORE>
11.4678

>  <SCORE.INTER>
-21.6966

>  <SCORE.INTER.CONST>
1

>  <SCORE.INTER.POLAR>
-4.92206

>  <SCORE.INTER.ROT>
9

>  <SCORE.INTER.SOLV>
41.9281

>  <SCORE.INTER.VDW>
-21.6336

>  <SCORE.INTER.norm>
-0.516587

>  <SCORE.INTRA>
25.9044

>  <SCORE.INTRA.DIHEDRAL>
16.8402

>  <SCORE.INTRA.DIHEDRAL.0>
22.4324

>  <SCORE.INTRA.POLAR>
0.850722

>  <SCORE.INTRA.POLAR.0>
-1.83749

>  <SCORE.INTRA.REPUL>
0

>  <SCORE.INTRA.REPUL.0>
0

>  <SCORE.INTRA.SOLV>
2.78542

>  <SCORE.INTRA.SOLV.lig_0>
-160.638

>  <SCORE.INTRA.VDW>
13.1991

>  <SCORE.INTRA.VDW.0>
-7.61953

>  <SCORE.INTRA.norm>
0.616771

>  <SCORE.RESTR>
7.26006

>  <SCORE.RESTR.CAVITY>
7.26006

>  <SCORE.RESTR.norm>
0.172859

>  <SCORE.SYSTEM>
0

>  <SCORE.SYSTEM.CONST>
0

>  <SCORE.SYSTEM.DIHEDRAL>
0

>  <SCORE.SYSTEM.SOLV>
0

>  <SCORE.SYSTEM.norm>
0

>  <SCORE.heavy>
42

>  <SCORE.norm>
0.273042

>  <RMSD>
9.775

$$$$
1NEM.B
 OpenBabel11021811403D
libRbt.so/2013.1/901 2013/11/27
 42 45  0  0  0  0  0  0  0  0999 V2000
   -4.2963   -6.3386    5.5807 O   0  0  0  0  0  0  0  0  0  0  0  0
   -3.7305   -5.0803    5.2081 C   0  0  0  0  0  0  0  0  0  0  0  0
   -4.7353   -4.1495    4.5309 C   0  0  1  0  0  0  0  0  0  0  0  0
   -4.1231   -2.9085    4.1924 O   0  0  0  0  0  0  0  0  0  0  0  0
   -5.2642   -4.6500    3.1963 C   0  0  1  0  0  0  0  0  0  0  0  0
   -6.1539   -5.7344    3.4718 O   0  0  0  0  0  0  0  0  0  0  0  0
   -5.8979   -3.3657    2.6955 C   0  0  1  0  0  0  0  0  0  0  0  0
   -7.0693   -3.0150    3.4398 O   0  0  0  0  0  0  0  0  0  0  0  0
   -4.7558   -2.3954    3.0198 C   0  0  2  0  0  0  0  0  0  0  0  0
   -7.1503   -5.9741    2.5194 C   0  0  2  0  0  0  0  0  0  0  0  0
   -8.4121   -5.1869    2.8979 C   0  0  2  0  0  0  0  0  0  0  0  0
   -8.8059   -5.4964    4.2977 N   0  3  0  0  0  0  0  0  0  0  0  0
   -9.5501   -5.4742    1.9131 C   0  0  1  0  0  0  0  0  0  0  0  0
   -9.2567   -4.8773    0.6569 O   0  0  0  0  0  0  0  0  0  0  0  0
   -9.7560   -6.9811    1.7305 C   0  0  2  0  0  0  0  0  0  0  0  0
  -10.2714   -7.5574    2.9239 O   0  0  0  0  0  0  0  0  0  0  0  0
   -8.4288   -7.6399    1.3651 C   0  0  1  0  0  0  0  0  0  0  0  0
   -7.4500   -7.3572    2.3839 O   0  0  0  0  0  0  0  0  0  0  0  0
   -8.5292   -9.1479    1.2172 C   0  0  0  0  0  0  0  0  0  0  0  0
   -8.6498   -9.5571   -0.1998 N   0  3  0  0  0  0  0  0  0  0  0  0
    2.9440   -0.4841    1.3616 C   0  0  0  0  0  0  0  0  0  0  0  0
    0.0726   -2.6827    0.5564 C   0  0  2  0  0  0  0  0  0  0  0  0
    0.5818   -4.0294    1.0645 C   0  0  2  0  0  0  0  0  0  0  0  0
   -0.5521   -4.9611    1.2735 N   0  3  0  0  0  0  0  0  0  0  0  0
    1.3319   -3.8455    2.3770 C   0  0  1  0  0  0  0  0  0  0  0  0
    1.8662   -5.0910    2.7985 O   0  0  0  0  0  0  0  0  0  0  0  0
    2.4558   -2.8296    2.1852 C   0  0  2  0  0  0  0  0  0  0  0  0
    3.1171   -2.6004    3.4228 O   0  0  0  0  0  0  0  0  0  0  0  0
    3.7805   -0.8874    0.2081 N   0  3  0  0  0  0  0  0  0  0  0  0
    1.8730   -1.5181    1.6621 C   0  0  2  0  0  0  0  0  0  0  0  0
    1.1452   -1.7517    0.4392 O   0  0  0  0  0  0  0  0  0  0  0  0
   -3.4909    1.1122    0.7010 C   0  0  2  0  0  0  0  0  0  0  0  0
   -4.5025    1.9881    0.0665 N   0  3  0  0  0  0  0  0  0  0  0  0
   -2.3438    0.8532   -0.2693 C   0  0  0  0  0  0  0  0  0  0  0  0
   -1.2966   -0.0485    0.3692 C   0  0  2  0  0  0  0  0  0  0  0  0
   -0.2329   -0.2548   -0.6035 N   0  3  0  0  0  0  0  0  0  0  0  0
   -1.9330   -1.3772    0.7702 C   0  0  1  0  0  0  0  0  0  0  0  0
   -0.9423   -2.2135    1.3990 O   0  0  0  0  0  0  0  0  0  0  0  0
   -3.1003   -1.1508    1.7410 C   0  0  2  0  0  0  0  0  0  0  0  0
   -3.7427   -2.4101    2.0166 O   0  0  0  0  0  0  0  0  0  0  0  0
   -4.1371   -0.1957    1.1548 C   0  0  1  0  0  0  0  0  0  0  0  0
   -5.1321    0.0817    2.1313 O   0  0  0  0  0  0  0  0  0  0  0  0
  1  2  1  0  0  0  0
  3  2  1  6  0  0  0
  3  5  1  0  0  0  0
  3  4  1  0  0  0  0
  4  9  1  0  0  0  0
  5  7  1  0  0  0  0
  5  6  1  1  0  0  0
  7  9  1  0  0  0  0
  7  8  1  1  0  0  0
  9 40  1  6  0  0  0
 10  6  1  1  0  0  0
 10 11  1  0  0  0  0
 10 18  1  0  0  0  0
 11 13  1  0  0  0  0
 11 12  1  1  0  0  0
 13 15  1  0  0  0  0
 13 14  1  6  0  0  0
 15 17  1  0  0  0  0
 15 16  1  1  0  0  0
 17 19  1  1  0  0  0
 17 18  1  0  0  0  0
 19 20  1  0  0  0  0
 21 29  1  0  0  0  0
 22 23  1  0  0  0  0
 22 31  1  0  0  0  0
 22 38  1  1  0  0  0
 23 25  1  0  0  0  0
 23 24  1  1  0  0  0
 25 27  1  0  0  0  0
 25 26  1  6  0  0  0
 27 30  1  0  0  0  0
 27 28  1  1  0  0  0
 30 21  1  6  0  0  0
 30 31  1  0  0  0  0
 32 34  1  0  0  0  0
 32 41  1  0  0  0  0
 32 33  1  6  0  0  0
 34 35  1  0  0  0  0
 35 37  1  0  0  0  0
 35 36  1  6  0  0  0
 37 39  1  0  0  0  0
 37 38  1  1  0  0  0
 39 41  1  0  0  0  0
 39 40  1  6  0  0  0
 41 42  1  1  0  0  0
M  CHG  6  12   1  20   1  24   1  29   1  33   1  36   1
M  END
>  <CHROM.1>
-49.58049728,179.47561679,154.09706107,-91.65146351,59.78390506,-100.57767468
-18.34819599,67.02655758,-70.18500296,98.80664771,176.07227000,67.89516508
166.35252605,-150.74084229,-35.88970146,179.33956757,-65.66636696,62.75664959
150.43853483,-68.50229695,173.23351966,58.51841535,-3.68489635,-3.52981802
2.00691874,-2.63791569,-0.03593506,-0.29109419

>  <Name>
1NEM.B

>  <RI>
0

>  <Rbt.Current_Directory>
/home/itssahil/PROJECTS/Mol_Feturizer/New_Systems/rnas/1nem

>  <Rbt.Executable>
rbdock ($Id: //depot/dev/client3/rdock/2013.1/src/exe/rbdock.cxx#4 $)

>  <Rbt.Library>
libRbt.so (2013.1, Build901 2013/11/27)

>  <Rbt.Parameter_File>
/export/apps/rDock/src/rDock_2013.1_src/data/scripts/dock_solv.prm

>  <Rbt.Receptor>
prm/blind_docking_80.prm

>  <SCORE>
-8.71967

>  <SCORE.INTER>
-32.5805

>  <SCORE.INTER.CONST>
1

>  <SCORE.INTER.POLAR>
-7.37139

>  <SCORE.INTER.ROT>
9

>  <SCORE.INTER.SOLV>
39.474

>  <SCORE.INTER.VDW>
-19.907

>  <SCORE.INTER.norm>
-0.775727

>  <SCORE.INTRA>
17.7967

>  <SCORE.INTRA.DIHEDRAL>
6.13613

>  <SCORE.INTRA.DIHEDRAL.0>
22.4324

>  <SCORE.INTRA.POLAR>
1.20998

>  <SCORE.INTRA.POLAR.0>
-1.83749

>  <SCORE.INTRA.REPUL>
0

>  <SCORE.INTRA.REPUL.0>
0

>  <SCORE.INTRA.SOLV>
-0.520235

>  <SCORE.INTRA.SOLV.lig_0>
-160.638

>  <SCORE.INTRA.VDW>
10.8749

>  <SCORE.INTRA.VDW.0>
-7.61953

>  <SCORE.INTRA.norm>
0.423732

>  <SCORE.RESTR>
6.06412

>  <SCORE.RESTR.CAVITY>
6.06412

>  <SCORE.RESTR.norm>
0.144384

>  <SCORE.SYSTEM>
0

>  <SCORE.SYSTEM.CONST>
0

>  <SCORE.SYSTEM.DIHEDRAL>
0

>  <SCORE.SYSTEM.SOLV>
0

>  <SCORE.SYSTEM.norm>
0

>  <SCORE.heavy>
42

>  <SCORE.norm>
-0.207611

>  <RMSD>
9.801

$$$$
1NEM.B
 OpenBabel11021811403D
libRbt.so/2013.1/901 2013/11/27
 42 45  0  0  0  0  0  0  0  0999 V2000
   -4.0156   -6.1457    2.9903 O   0  0  0  0  0  0  0  0  0  0  0  0
   -4.7230   -5.6810    4.1417 C   0  0  0  0  0  0  0  0  0  0  0  0
   -5.1647   -4.2229    4.0244 C   0  0  1  0  0  0  0  0  0  0  0  0
   -4.0402   -3.3501    4.0807 O   0  0  0  0  0  0  0  0  0  0  0  0
   -5.8169   -3.8622    2.6992 C   0  0  1  0  0  0  0  0  0  0  0  0
   -7.1138   -4.4632    2.6866 O   0  0  0  0  0  0  0  0  0  0  0  0
   -5.7731   -2.3503    2.8171 C   0  0  1  0  0  0  0  0  0  0  0  0
   -6.6788   -1.8593    3.8110 O   0  0  0  0  0  0  0  0  0  0  0  0
   -4.3255   -2.1913    3.2968 C   0  0  2  0  0  0  0  0  0  0  0  0
   -7.3570   -5.3877    1.6652 C   0  0  2  0  0  0  0  0  0  0  0  0
   -8.0524   -4.6781    0.4954 C   0  0  2  0  0  0  0  0  0  0  0  0
   -9.2597   -3.9585    0.9801 N   0  3  0  0  0  0  0  0  0  0  0  0
   -8.3952   -5.6719   -0.6192 C   0  0  1  0  0  0  0  0  0  0  0  0
   -7.2018   -6.0961   -1.2646 O   0  0  0  0  0  0  0  0  0  0  0  0
   -9.1401   -6.8898   -0.0642 C   0  0  2  0  0  0  0  0  0  0  0  0
  -10.4377   -6.5149    0.3803 O   0  0  0  0  0  0  0  0  0  0  0  0
   -8.3477   -7.4930    1.0922 C   0  0  1  0  0  0  0  0  0  0  0  0
   -8.1337   -6.4933    2.1075 O   0  0  0  0  0  0  0  0  0  0  0  0
   -9.0417   -8.6780    1.7403 C   0  0  0  0  0  0  0  0  0  0  0  0
   -8.1544   -9.8593    1.8250 N   0  3  0  0  0  0  0  0  0  0  0  0
    3.1412   -0.3259    0.1991 C   0  0  0  0  0  0  0  0  0  0  0  0
    0.2286   -2.5261    0.8339 C   0  0  2  0  0  0  0  0  0  0  0  0
    0.8366   -3.5508    1.7885 C   0  0  2  0  0  0  0  0  0  0  0  0
   -0.2332   -4.2531    2.5368 N   0  3  0  0  0  0  0  0  0  0  0  0
    1.7711   -2.8607    2.7732 C   0  0  1  0  0  0  0  0  0  0  0  0
    2.3888   -3.8319    3.6038 O   0  0  0  0  0  0  0  0  0  0  0  0
    2.8318   -2.0745    2.0059 C   0  0  2  0  0  0  0  0  0  0  0  0
    3.6664   -1.3714    2.9173 O   0  0  0  0  0  0  0  0  0  0  0  0
    4.5133   -0.4024    0.7509 N   0  3  0  0  0  0  0  0  0  0  0  0
    2.1495   -1.0847    1.0636 C   0  0  2  0  0  0  0  0  0  0  0  0
    1.2516   -1.7826    0.1768 O   0  0  0  0  0  0  0  0  0  0  0  0
   -3.7157    0.9426    0.2208 C   0  0  2  0  0  0  0  0  0  0  0  0
   -4.8472    1.4909   -0.5615 N   0  3  0  0  0  0  0  0  0  0  0  0
   -2.5218    0.6937   -0.6940 C   0  0  0  0  0  0  0  0  0  0  0  0
   -1.3509    0.1273    0.0969 C   0  0  2  0  0  0  0  0  0  0  0  0
   -0.2481   -0.0853   -0.8298 N   0  3  0  0  0  0  0  0  0  0  0  0
   -1.7624   -1.1833    0.7635 C   0  0  1  0  0  0  0  0  0  0  0  0
   -0.6580   -1.6980    1.5326 O   0  0  0  0  0  0  0  0  0  0  0  0
   -2.9707   -0.9692    1.6856 C   0  0  2  0  0  0  0  0  0  0  0  0
   -3.3973   -2.2388    2.2155 O   0  0  0  0  0  0  0  0  0  0  0  0
   -4.1414   -0.3391    0.9352 C   0  0  1  0  0  0  0  0  0  0  0  0
   -5.1887   -0.0455    1.8504 O   0  0  0  0  0  0  0  0  0  0  0  0
  1  2  1  0  0  0  0
  3  2  1  6  0  0  0
  3  5  1  0  0  0  0
  3  4  1  0  0  0  0
  4  9  1  0  0  0  0
  5  7  1  0  0  0  0
  5  6  1  1  0  0  0
  7  9  1  0  0  0  0
  7  8  1  1  0  0  0
  9 40  1  6  0  0  0
 10  6  1  1  0  0  0
 10 11  1  0  0  0  0
 10 18  1  0  0  0  0
 11 13  1  0  0  0  0
 11 12  1  1  0  0  0
 13 15  1  0  0  0  0
 13 14  1  1  0  0  0
 15 17  1  0  0  0  0
 15 16  1  1  0  0  0
 17 19  1  1  0  0  0
 17 18  1  0  0  0  0
 19 20  1  0  0  0  0
 21 29  1  0  0  0  0
 22 23  1  0  0  0  0
 22 31  1  0  0  0  0
 22 38  1  1  0  0  0
 23 25  1  0  0  0  0
 23 24  1  1  0  0  0
 25 27  1  0  0  0  0
 25 26  1  6  0  0  0
 27 30  1  0  0  0  0
 27 28  1  1  0  0  0
 30 21  1  6  0  0  0
 30 31  1  0  0  0  0
 32 34  1  0  0  0  0
 32 41  1  0  0  0  0
 32 33  1  6  0  0  0
 34 35  1  0  0  0  0
 35 37  1  0  0  0  0
 35 36  1  6  0  0  0
 37 39  1  0  0  0  0
 37 38  1  1  0  0  0
 39 41  1  0  0  0  0
 39 40  1  6  0  0  0
 41 42  1  1  0  0  0
M  CHG  6  12   1  20   1  24   1  29   1  33   1  36   1
M  END
>  <CHROM.1>
109.76667591,-69.73954783,-119.58558219,-95.25857576,-49.76427979,-149.13369949
98.43209839,-66.01407166,-61.36902019,127.83576625,167.58628622,-17.82732228
-177.86785341,-149.69426235,140.03639859,-176.49624176,60.93345796,-48.50046517
67.54070545,-88.36966156,167.50491222,43.80063310,-3.55454164,-3.18845901
1.55257067,-2.70362431,-0.16165178,-0.33990987

>  <Name>
1NEM.B

>  <RI>
0

>  <Rbt.Current_Directory>
/home/itssahil/PROJECTS/Mol_Feturizer/New_Systems/rnas/1nem

>  <Rbt.Executable>
rbdock ($Id: //depot/dev/client3/rdock/2013.1/src/exe/rbdock.cxx#4 $)

>  <Rbt.Library>
libRbt.so (2013.1, Build901 2013/11/27)

>  <Rbt.Parameter_File>
/export/apps/rDock/src/rDock_2013.1_src/data/scripts/dock_solv.prm

>  <Rbt.Receptor>
prm/blind_docking_80.prm

>  <SCORE>
-11.4996

>  <SCORE.INTER>
-40.9729

>  <SCORE.INTER.CONST>
1

>  <SCORE.INTER.POLAR>
-10.0942

>  <SCORE.INTER.ROT>
9

>  <SCORE.INTER.SOLV>
49.0719

>  <SCORE.INTER.VDW>
-19.6253

>  <SCORE.INTER.norm>
-0.975544

>  <SCORE.INTRA>
26.6108

>  <SCORE.INTRA.DIHEDRAL>
25.2202

>  <SCORE.INTRA.DIHEDRAL.0>
22.4324

>  <SCORE.INTRA.POLAR>
1.07644

>  <SCORE.INTRA.POLAR.0>
-1.83749

>  <SCORE.INTRA.REPUL>
0

>  <SCORE.INTRA.REPUL.0>
0

>  <SCORE.INTRA.SOLV>
0.0908327

>  <SCORE.INTRA.SOLV.lig_0>
-160.638

>  <SCORE.INTRA.VDW>
10.2954

>  <SCORE.INTRA.VDW.0>
-7.61953

>  <SCORE.INTRA.norm>
0.633592

>  <SCORE.RESTR>
2.86246

>  <SCORE.RESTR.CAVITY>
2.86246

>  <SCORE.RESTR.norm>
0.0681539

>  <SCORE.SYSTEM>
0

>  <SCORE.SYSTEM.CONST>
0

>  <SCORE.SYSTEM.DIHEDRAL>
0

>  <SCORE.SYSTEM.SOLV>
0

>  <SCORE.SYSTEM.norm>
0

>  <SCORE.heavy>
42

>  <SCORE.norm>
-0.273799

>  <RMSD>
9.805

$$$$
1NEM.B
 OpenBabel11021811403D
libRbt.so/2013.1/901 2013/11/27
 42 45  0  0  0  0  0  0  0  0999 V2000
    7.8470   -0.0536    0.7669 O   0  0  0  0  0  0  0  0  0  0  0  0
    6.4522    0.0823    0.4874 C   0  0  0  0  0  0  0  0  0  0  0  0
    5.5817    0.0181    1.7415 C   0  0  1  0  0  0  0  0  0  0  0  0
    6.3225   -0.4995    2.8428 O   0  0  0  0  0  0  0  0  0  0  0  0
    5.1021    1.3680    2.2507 C   0  0  1  0  0  0  0  0  0  0  0  0
    4.1036    1.8349    1.3407 O   0  0  0  0  0  0  0  0  0  0  0  0
    4.6197    0.9451    3.6256 C   0  0  1  0  0  0  0  0  0  0  0  0
    3.4362    0.1425    3.5599 O   0  0  0  0  0  0  0  0  0  0  0  0
    5.8184    0.0853    4.0438 C   0  0  2  0  0  0  0  0  0  0  0  0
    4.5691    2.4015    0.1492 C   0  0  2  0  0  0  0  0  0  0  0  0
    5.2353    3.7495    0.4564 C   0  0  2  0  0  0  0  0  0  0  0  0
    4.3060    4.6132    1.2314 N   0  3  0  0  0  0  0  0  0  0  0  0
    5.7015    4.4337   -0.8328 C   0  0  1  0  0  0  0  0  0  0  0  0
    6.8117    3.7292   -1.3729 O   0  0  0  0  0  0  0  0  0  0  0  0
    4.5743    4.4882   -1.8686 C   0  0  2  0  0  0  0  0  0  0  0  0
    3.5510    5.3771   -1.4387 O   0  0  0  0  0  0  0  0  0  0  0  0
    3.9975    3.0903   -2.0735 C   0  0  1  0  0  0  0  0  0  0  0  0
    3.5359    2.5662   -0.8133 O   0  0  0  0  0  0  0  0  0  0  0  0
    2.8337    3.0594   -3.0485 C   0  0  0  0  0  0  0  0  0  0  0  0
    1.6964    3.8805   -2.5772 N   0  3  0  0  0  0  0  0  0  0  0  0
    3.5173    0.5421   10.1241 C   0  0  0  0  0  0  0  0  0  0  0  0
    5.5302    1.0227    7.0509 C   0  0  2  0  0  0  0  0  0  0  0  0
    5.6144    2.5459    6.9897 C   0  0  2  0  0  0  0  0  0  0  0  0
    6.7415    2.9631    6.1219 N   0  3  0  0  0  0  0  0  0  0  0  0
    5.8155    3.1169    8.3870 C   0  0  1  0  0  0  0  0  0  0  0  0
    5.8144    4.5350    8.3265 O   0  0  0  0  0  0  0  0  0  0  0  0
    4.6964    2.6292    9.3043 C   0  0  2  0  0  0  0  0  0  0  0  0
    4.9149    3.1016   10.6274 O   0  0  0  0  0  0  0  0  0  0  0  0
    3.6680   -0.9142   10.3465 N   0  3  0  0  0  0  0  0  0  0  0  0
    4.6646    1.1021    9.3014 C   0  0  2  0  0  0  0  0  0  0  0  0
    4.5073    0.6119    7.9542 O   0  0  0  0  0  0  0  0  0  0  0  0
    9.5574   -1.7339    5.0790 C   0  0  2  0  0  0  0  0  0  0  0  0
   10.1079   -2.7614    4.1656 N   0  3  0  0  0  0  0  0  0  0  0  0
    8.9071   -2.4030    6.2846 C   0  0  0  0  0  0  0  0  0  0  0  0
    8.3342   -1.3580    7.2319 C   0  0  2  0  0  0  0  0  0  0  0  0
    7.7320   -2.0586    8.3573 N   0  3  0  0  0  0  0  0  0  0  0  0
    7.2967   -0.5098    6.5002 C   0  0  1  0  0  0  0  0  0  0  0  0
    6.7801    0.4944    7.3951 O   0  0  0  0  0  0  0  0  0  0  0  0
    7.9178    0.1712    5.2727 C   0  0  2  0  0  0  0  0  0  0  0  0
    6.8919    0.8766    4.5484 O   0  0  0  0  0  0  0  0  0  0  0  0
    8.5606   -0.8471    4.3345 C   0  0  1  0  0  0  0  0  0  0  0  0
    9.2283   -0.1658    3.2806 O   0  0  0  0  0  0  0  0  0  0  0  0
  1  2  1  0  0  0  0
  3  2  1  6  0  0  0
  3  5  1  0  0  0  0
  3  4  1  0  0  0  0
  4  9  1  0  0  0  0
  5  7  1  0  0  0  0
  5  6  1  6  0  0  0
  7  9  1  0  0  0  0
  7  8  1  6  0  0  0
  9 40  1  6  0  0  0
 10  6  1  1  0  0  0
 10 11  1  0  0  0  0
 10 18  1  0  0  0  0
 11 13  1  0  0  0  0
 11 12  1  6  0  0  0
 13 15  1  0  0  0  0
 13 14  1  6  0  0  0
 15 17  1  0  0  0  0
 15 16  1  1  0  0  0
 17 19  1  6  0  0  0
 17 18  1  0  0  0  0
 19 20  1  0  0  0  0
 21 29  1  0  0  0  0
 22 23  1  0  0  0  0
 22 31  1  0  0  0  0
 22 38  1  1  0  0  0
 23 25  1  0  0  0  0
 23 24  1  6  0  0  0
 25 27  1  0  0  0  0
 25 26  1  6  0  0  0
 27 30  1  0  0  0  0
 27 28  1  1  0  0  0
 30 21  1  1  0  0  0
 30 31  1  0  0  0  0
 32 34  1  0  0  0  0
 32 41  1  0  0  0  0
 32 33  1  6  0  0  0
 34 35  1  0  0  0  0
 35 37  1  0  0  0  0
 35 36  1  1  0  0  0
 37 39  1  0  0  0  0
 37 38  1  1  0  0  0
 39 41  1  0  0  0  0
 39 40  1  6  0  0  0
 41 42  1  6  0  0  0
M  CHG  6  12   1  20   1  24   1  29   1  33   1  36   1
M  END
>  <CHROM.1>
69.44460865,-14.91977066,-79.09938879,-70.00987424,57.31103283,-80.44484119
-71.40156942,179.13029716,67.16987630,-61.42074137,48.57343450,-167.91127414
48.44058766,-126.50819006,43.04113953,39.28098301,62.90133073,-33.94750253
-60.66768611,-158.30250691,-60.68219679,160.01858829,5.77136603,1.35547578
3.93294452,-1.85003297,-0.79934882,1.67611695

>  <Name>
1NEM.B

>  <RI>
0

>  <Rbt.Current_Directory>
/home/itssahil/PROJECTS/Mol_Feturizer/New_Systems/rnas/1nem

>  <Rbt.Executable>
rbdock ($Id: //depot/dev/client3/rdock/2013.1/src/exe/rbdock.cxx#4 $)

>  <Rbt.Library>
libRbt.so (2013.1, Build901 2013/11/27)

>  <Rbt.Parameter_File>
/export/apps/rDock/src/rDock_2013.1_src/data/scripts/dock_solv.prm

>  <Rbt.Receptor>
prm/pocket_docking_6.prm

>  <SCORE>
-24.458

>  <SCORE.INTER>
-24.7132

>  <SCORE.INTER.CONST>
1

>  <SCORE.INTER.POLAR>
-4.7701

>  <SCORE.INTER.ROT>
9

>  <SCORE.INTER.SOLV>
16.1933

>  <SCORE.INTER.VDW>
-15.5729

>  <SCORE.INTER.norm>
-0.588409

>  <SCORE.INTRA>
0.249514

>  <SCORE.INTRA.DIHEDRAL>
3.87574

>  <SCORE.INTRA.DIHEDRAL.0>
22.4324

>  <SCORE.INTRA.POLAR>
-1.50308

>  <SCORE.INTRA.POLAR.0>
-1.83749

>  <SCORE.INTRA.REPUL>
0

>  <SCORE.INTRA.REPUL.0>
0

>  <SCORE.INTRA.SOLV>
-1.15447

>  <SCORE.INTRA.SOLV.lig_0>
-160.638

>  <SCORE.INTRA.VDW>
3.99937

>  <SCORE.INTRA.VDW.0>
-7.61953

>  <SCORE.INTRA.norm>
0.0059408

>  <SCORE.RESTR>
0.00572156

>  <SCORE.RESTR.CAVITY>
0.00572156

>  <SCORE.RESTR.norm>
0.000136228

>  <SCORE.SYSTEM>
0

>  <SCORE.SYSTEM.CONST>
0

>  <SCORE.SYSTEM.DIHEDRAL>
0

>  <SCORE.SYSTEM.SOLV>
0

>  <SCORE.SYSTEM.norm>
0

>  <SCORE.heavy>
42

>  <SCORE.norm>
-0.582332

>  <RMSD>
9.805

$$$$
1NEM.B
 OpenBabel11021811403D
libRbt.so/2013.1/901 2013/11/27
 42 45  0  0  0  0  0  0  0  0999 V2000
   -4.4363   -6.1333    4.8833 O   0  0  0  0  0  0  0  0  0  0  0  0
   -5.2145   -5.7711    3.7408 C   0  0  0  0  0  0  0  0  0  0  0  0
   -5.5787   -4.2874    3.7109 C   0  0  1  0  0  0  0  0  0  0  0  0
   -4.4148   -3.4801    3.8630 O   0  0  0  0  0  0  0  0  0  0  0  0
   -6.1652   -3.8046    2.3939 C   0  0  1  0  0  0  0  0  0  0  0  0
   -7.4892   -4.3350    2.2988 O   0  0  0  0  0  0  0  0  0  0  0  0
   -6.0503   -2.3083    2.6175 C   0  0  1  0  0  0  0  0  0  0  0  0
   -6.9648   -1.8391    3.6139 O   0  0  0  0  0  0  0  0  0  0  0  0
   -4.6144   -2.2578    3.1526 C   0  0  2  0  0  0  0  0  0  0  0  0
   -7.6140   -5.5763    1.6657 C   0  0  2  0  0  0  0  0  0  0  0  0
   -8.5183   -5.4279    0.4346 C   0  0  2  0  0  0  0  0  0  0  0  0
   -9.8079   -4.7974    0.8218 N   0  3  0  0  0  0  0  0  0  0  0  0
   -8.7332   -6.7812   -0.2507 C   0  0  1  0  0  0  0  0  0  0  0  0
   -7.5277   -7.1943   -0.8806 O   0  0  0  0  0  0  0  0  0  0  0  0
   -9.1779   -7.8464    0.7563 C   0  0  2  0  0  0  0  0  0  0  0  0
  -10.4896   -7.5639    1.2272 O   0  0  0  0  0  0  0  0  0  0  0  0
   -8.2010   -7.8846    1.9281 C   0  0  1  0  0  0  0  0  0  0  0  0
   -8.1203   -6.5805    2.5354 O   0  0  0  0  0  0  0  0  0  0  0  0
   -8.5961   -8.8795    3.0052 C   0  0  0  0  0  0  0  0  0  0  0  0
   -7.5362   -9.0390    4.0255 N   0  3  0  0  0  0  0  0  0  0  0  0
    3.0737   -0.5120    1.4175 C   0  0  0  0  0  0  0  0  0  0  0  0
    0.1399   -2.6162    0.5855 C   0  0  2  0  0  0  0  0  0  0  0  0
    0.6141   -3.9854    1.0667 C   0  0  2  0  0  0  0  0  0  0  0  0
   -0.5440   -4.8895    1.2639 N   0  3  0  0  0  0  0  0  0  0  0  0
    1.3743   -3.8461    2.3789 C   0  0  1  0  0  0  0  0  0  0  0  0
    1.8759   -5.1133    2.7753 O   0  0  0  0  0  0  0  0  0  0  0  0
    2.5248   -2.8580    2.2006 C   0  0  2  0  0  0  0  0  0  0  0  0
    3.1972   -2.6696    3.4391 O   0  0  0  0  0  0  0  0  0  0  0  0
    3.7123   -0.0344    2.6654 N   0  3  0  0  0  0  0  0  0  0  0  0
    1.9760   -1.5217    1.7041 C   0  0  2  0  0  0  0  0  0  0  0  0
    1.2372   -1.7129    0.4804 O   0  0  0  0  0  0  0  0  0  0  0  0
   -3.3560    1.2362    0.7789 C   0  0  2  0  0  0  0  0  0  0  0  0
   -4.3609    2.1302    0.1589 N   0  3  0  0  0  0  0  0  0  0  0  0
   -2.2285    0.9560   -0.2082 C   0  0  0  0  0  0  0  0  0  0  0  0
   -1.1884    0.0357    0.4152 C   0  0  2  0  0  0  0  0  0  0  0  0
   -0.1434   -0.1903   -0.5731 N   0  3  0  0  0  0  0  0  0  0  0  0
   -1.8429   -1.2810    0.8266 C   0  0  1  0  0  0  0  0  0  0  0  0
   -0.8583   -2.1350    1.4411 O   0  0  0  0  0  0  0  0  0  0  0  0
   -2.9912   -1.0330    1.8145 C   0  0  2  0  0  0  0  0  0  0  0  0
   -3.6523   -2.2804    2.1005 O   0  0  0  0  0  0  0  0  0  0  0  0
   -4.0191   -0.0595    1.2432 C   0  0  1  0  0  0  0  0  0  0  0  0
   -4.9942    0.2364    2.2342 O   0  0  0  0  0  0  0  0  0  0  0  0
  1  2  1  0  0  0  0
  3  2  1  6  0  0  0
  3  5  1  0  0  0  0
  3  4  1  0  0  0  0
  4  9  1  0  0  0  0
  5  7  1  0  0  0  0
  5  6  1  1  0  0  0
  7  9  1  0  0  0  0
  7  8  1  1  0  0  0
  9 40  1  6  0  0  0
 10  6  1  1  0  0  0
 10 11  1  0  0  0  0
 10 18  1  0  0  0  0
 11 13  1  0  0  0  0
 11 12  1  1  0  0  0
 13 15  1  0  0  0  0
 13 14  1  1  0  0  0
 15 17  1  0  0  0  0
 15 16  1  1  0  0  0
 17 19  1  1  0  0  0
 17 18  1  0  0  0  0
 19 20  1  0  0  0  0
 21 29  1  0  0  0  0
 22 23  1  0  0  0  0
 22 31  1  0  0  0  0
 22 38  1  1  0  0  0
 23 25  1  0  0  0  0
 23 24  1  1  0  0  0
 25 27  1  0  0  0  0
 25 26  1  6  0  0  0
 27 30  1  0  0  0  0
 27 28  1  1  0  0  0
 30 21  1  6  0  0  0
 30 31  1  0  0  0  0
 32 34  1  0  0  0  0
 32 41  1  0  0  0  0
 32 33  1  6  0  0  0
 34 35  1  0  0  0  0
 35 37  1  0  0  0  0
 35 36  1  6  0  0  0
 37 39  1  0  0  0  0
 37 38  1  1  0  0  0
 39 41  1  0  0  0  0
 39 40  1  6  0  0  0
 41 42  1  1  0  0  0
M  CHG  6  12   1  20   1  24   1  29   1  33   1  36   1
M  END
>  <CHROM.1>
-87.51672140,52.41204153,-90.88818728,-119.53926084,-167.37537984,-139.77571591
-45.73725184,176.25871230,54.50964877,171.60628417,-74.48152412,-70.45656418
166.87077039,-149.60571870,84.28659605,63.51158239,-45.58640600,-64.76259967
-88.82945907,-68.12128728,170.97688440,61.05119363,-3.70962653,-3.44188019
1.82666035,-2.64329083,-0.10425426,-0.25214933

>  <Name>
1NEM.B

>  <RI>
0

>  <Rbt.Current_Directory>
/home/itssahil/PROJECTS/Mol_Feturizer/New_Systems/rnas/1nem

>  <Rbt.Executable>
rbdock ($Id: //depot/dev/client3/rdock/2013.1/src/exe/rbdock.cxx#4 $)

>  <Rbt.Library>
libRbt.so (2013.1, Build901 2013/11/27)

>  <Rbt.Parameter_File>
/export/apps/rDock/src/rDock_2013.1_src/data/scripts/dock_solv.prm

>  <Rbt.Receptor>
prm/blind_docking_80.prm

>  <SCORE>
-37.429

>  <SCORE.INTER>
-56.9559

>  <SCORE.INTER.CONST>
1

>  <SCORE.INTER.POLAR>
-8.5203

>  <SCORE.INTER.ROT>
9

>  <SCORE.INTER.SOLV>
42.8277

>  <SCORE.INTER.VDW>
-33.4455

>  <SCORE.INTER.norm>
-1.35609

>  <SCORE.INTRA>
13.4956

>  <SCORE.INTRA.DIHEDRAL>
9.07143

>  <SCORE.INTRA.DIHEDRAL.0>
22.4324

>  <SCORE.INTRA.POLAR>
0.627888

>  <SCORE.INTRA.POLAR.0>
-1.83749

>  <SCORE.INTRA.REPUL>
0

>  <SCORE.INTRA.REPUL.0>
0

>  <SCORE.INTRA.SOLV>
-2.25198

>  <SCORE.INTRA.SOLV.lig_0>
-160.638

>  <SCORE.INTRA.VDW>
7.95103

>  <SCORE.INTRA.VDW.0>
-7.61953

>  <SCORE.INTRA.norm>
0.321323

>  <SCORE.RESTR>
6.03132

>  <SCORE.RESTR.CAVITY>
6.03132

>  <SCORE.RESTR.norm>
0.143603

>  <SCORE.SYSTEM>
0

>  <SCORE.SYSTEM.CONST>
0

>  <SCORE.SYSTEM.DIHEDRAL>
0

>  <SCORE.SYSTEM.SOLV>
0

>  <SCORE.SYSTEM.norm>
0

>  <SCORE.heavy>
42

>  <SCORE.norm>
-0.891166

>  <RMSD>
9.847

$$$$
1NEM.B
 OpenBabel11021811403D
libRbt.so/2013.1/901 2013/11/27
 42 45  0  0  0  0  0  0  0  0999 V2000
   -4.2907   -6.2051    3.2721 O   0  0  0  0  0  0  0  0  0  0  0  0
   -5.0399   -5.6899    4.3745 C   0  0  0  0  0  0  0  0  0  0  0  0
   -5.4580   -4.2325    4.1848 C   0  0  1  0  0  0  0  0  0  0  0  0
   -4.3241   -3.3719    4.2418 O   0  0  0  0  0  0  0  0  0  0  0  0
   -6.0635   -3.9179    2.8262 C   0  0  1  0  0  0  0  0  0  0  0  0
   -7.3674   -4.5029    2.7965 O   0  0  0  0  0  0  0  0  0  0  0  0
   -6.0030   -2.4030    2.8847 C   0  0  1  0  0  0  0  0  0  0  0  0
   -6.9326   -1.8611    3.8287 O   0  0  0  0  0  0  0  0  0  0  0  0
   -4.5691   -2.2425    3.4034 C   0  0  2  0  0  0  0  0  0  0  0  0
   -7.5292   -5.6105    1.9573 C   0  0  2  0  0  0  0  0  0  0  0  0
   -8.4822   -5.2426    0.8119 C   0  0  2  0  0  0  0  0  0  0  0  0
   -9.7490   -4.6900    1.3597 N   0  3  0  0  0  0  0  0  0  0  0  0
   -8.7371   -6.4510   -0.0949 C   0  0  1  0  0  0  0  0  0  0  0  0
   -7.5623   -6.7461   -0.8389 O   0  0  0  0  0  0  0  0  0  0  0  0
   -9.1493   -7.6788    0.7229 C   0  0  2  0  0  0  0  0  0  0  0  0
  -10.4380   -7.4835    1.2916 O   0  0  0  0  0  0  0  0  0  0  0  0
   -8.1253   -7.9277    1.8267 C   0  0  1  0  0  0  0  0  0  0  0  0
   -8.0081   -6.7537    2.6537 O   0  0  0  0  0  0  0  0  0  0  0  0
   -8.4845   -9.0990    2.7240 C   0  0  0  0  0  0  0  0  0  0  0  0
   -8.1429  -10.3971    2.1011 N   0  3  0  0  0  0  0  0  0  0  0  0
    2.9632   -0.3221    1.6269 C   0  0  0  0  0  0  0  0  0  0  0  0
    0.1777   -2.5684    0.6665 C   0  0  2  0  0  0  0  0  0  0  0  0
    0.7205   -3.9210    1.1213 C   0  0  2  0  0  0  0  0  0  0  0  0
   -0.3867   -4.8961    1.2654 N   0  3  0  0  0  0  0  0  0  0  0  0
    1.4412   -3.7756    2.4549 C   0  0  1  0  0  0  0  0  0  0  0  0
    2.0074   -5.0224    2.8285 O   0  0  0  0  0  0  0  0  0  0  0  0
    2.5354   -2.7176    2.3318 C   0  0  2  0  0  0  0  0  0  0  0  0
    3.1673   -2.5262    3.5910 O   0  0  0  0  0  0  0  0  0  0  0  0
    2.5629    0.9622    2.2461 N   0  3  0  0  0  0  0  0  0  0  0  0
    1.9205   -1.4017    1.8589 C   0  0  2  0  0  0  0  0  0  0  0  0
    1.2221   -1.6002    0.6129 O   0  0  0  0  0  0  0  0  0  0  0  0
   -3.5297    1.0347    0.6900 C   0  0  2  0  0  0  0  0  0  0  0  0
   -4.6040    1.8301    0.0526 N   0  3  0  0  0  0  0  0  0  0  0  0
   -2.4526    0.6980   -0.3349 C   0  0  0  0  0  0  0  0  0  0  0  0
   -1.3419   -0.1222    0.3062 C   0  0  2  0  0  0  0  0  0  0  0  0
   -0.3492   -0.4078   -0.7200 N   0  3  0  0  0  0  0  0  0  0  0  0
   -1.9184   -1.4140    0.8809 C   0  0  1  0  0  0  0  0  0  0  0  0
   -0.8662   -2.1708    1.5104 O   0  0  0  0  0  0  0  0  0  0  0  0
   -3.0150   -1.1099    1.9111 C   0  0  2  0  0  0  0  0  0  0  0  0
   -3.6082   -2.3451    2.3549 O   0  0  0  0  0  0  0  0  0  0  0  0
   -4.1125   -0.2314    1.3158 C   0  0  1  0  0  0  0  0  0  0  0  0
   -5.0380    0.1264    2.3336 O   0  0  0  0  0  0  0  0  0  0  0  0
  1  2  1  0  0  0  0
  3  2  1  6  0  0  0
  3  5  1  0  0  0  0
  3  4  1  0  0  0  0
  4  9  1  0  0  0  0
  5  7  1  0  0  0  0
  5  6  1  1  0  0  0
  7  9  1  0  0  0  0
  7  8  1  1  0  0  0
  9 40  1  6  0  0  0
 10  6  1  1  0  0  0
 10 11  1  0  0  0  0
 10 18  1  0  0  0  0
 11 13  1  0  0  0  0
 11 12  1  1  0  0  0
 13 15  1  0  0  0  0
 13 14  1  1  0  0  0
 15 17  1  0  0  0  0
 15 16  1  1  0  0  0
 17 19  1  1  0  0  0
 17 18  1  0  0  0  0
 19 20  1  0  0  0  0
 21 29  1  0  0  0  0
 22 23  1  0  0  0  0
 22 31  1  0  0  0  0
 22 38  1  1  0  0  0
 23 25  1  0  0  0  0
 23 24  1  1  0  0  0
 25 27  1  0  0  0  0
 25 26  1  6  0  0  0
 27 30  1  0  0  0  0
 27 28  1  1  0  0  0
 30 21  1  6  0  0  0
 30 31  1  0  0  0  0
 32 34  1  0  0  0  0
 32 41  1  0  0  0  0
 32 33  1  6  0  0  0
 34 35  1  0  0  0  0
 35 37  1  0  0  0  0
 35 36  1  6  0  0  0
 37 39  1  0  0  0  0
 37 38  1  1  0  0  0
 39 41  1  0  0  0  0
 39 40  1  6  0  0  0
 41 42  1  1  0  0  0
M  CHG  6  12   1  20   1  24   1  29   1  33   1  36   1
M  END
>  <CHROM.1>
151.31892587,-69.10071633,-109.57427822,-113.52463684,-170.99122036,-141.08746867
-151.41219861,55.75078722,59.86302381,79.60931641,64.33086078,-132.98218228
-85.14937928,-146.66890313,-39.12837598,-60.76779228,-70.04693119,-178.89226739
63.52486119,-61.09128298,174.75068130,-48.64883318,-3.74718621,-3.45539186
1.84830731,-2.61021213,-0.07747692,-0.17516984

>  <Name>
1NEM.B

>  <RI>
0

>  <Rbt.Current_Directory>
/home/itssahil/PROJECTS/Mol_Feturizer/New_Systems/rnas/1nem

>  <Rbt.Executable>
rbdock ($Id: //depot/dev/client3/rdock/2013.1/src/exe/rbdock.cxx#4 $)

>  <Rbt.Library>
libRbt.so (2013.1, Build901 2013/11/27)

>  <Rbt.Parameter_File>
/export/apps/rDock/src/rDock_2013.1_src/data/scripts/dock_solv.prm

>  <Rbt.Receptor>
prm/blind_docking_40.prm

>  <SCORE>
-19.5572

>  <SCORE.INTER>
-51.5342

>  <SCORE.INTER.CONST>
1

>  <SCORE.INTER.POLAR>
-8.41623

>  <SCORE.INTER.ROT>
9

>  <SCORE.INTER.SOLV>
46.841

>  <SCORE.INTER.VDW>
-31.5157

>  <SCORE.INTER.norm>
-1.227

>  <SCORE.INTRA>
26.5245

>  <SCORE.INTRA.DIHEDRAL>
16.1499

>  <SCORE.INTRA.DIHEDRAL.0>
22.4324

>  <SCORE.INTRA.POLAR>
1.40079

>  <SCORE.INTRA.POLAR.0>
-1.83749

>  <SCORE.INTRA.REPUL>
0.00551852

>  <SCORE.INTRA.REPUL.0>
0

>  <SCORE.INTRA.SOLV>
-4.32279

>  <SCORE.INTRA.SOLV.lig_0>
-160.638

>  <SCORE.INTRA.VDW>
15.8207

>  <SCORE.INTRA.VDW.0>
-7.61953

>  <SCORE.INTRA.norm>
0.631536

>  <SCORE.RESTR>
5.45246

>  <SCORE.RESTR.CAVITY>
5.45246

>  <SCORE.RESTR.norm>
0.129821

>  <SCORE.SYSTEM>
0

>  <SCORE.SYSTEM.CONST>
0

>  <SCORE.SYSTEM.DIHEDRAL>
0

>  <SCORE.SYSTEM.SOLV>
0

>  <SCORE.SYSTEM.norm>
0

>  <SCORE.heavy>
42

>  <SCORE.norm>
-0.465648

>  <RMSD>
9.850

$$$$
1NEM.B
 OpenBabel11021811403D
libRbt.so/2013.1/901 2013/11/27
 42 45  0  0  0  0  0  0  0  0999 V2000
    3.6345   -0.8884    0.8366 O   0  0  0  0  0  0  0  0  0  0  0  0
    2.5174   -0.5756    1.6711 C   0  0  0  0  0  0  0  0  0  0  0  0
    2.8889    0.3063    2.8623 C   0  0  1  0  0  0  0  0  0  0  0  0
    3.8875   -0.3212    3.6614 O   0  0  0  0  0  0  0  0  0  0  0  0
    3.5264    1.6362    2.4928 C   0  0  1  0  0  0  0  0  0  0  0  0
    2.4964    2.4640    1.9476 O   0  0  0  0  0  0  0  0  0  0  0  0
    4.0600    2.0306    3.8572 C   0  0  1  0  0  0  0  0  0  0  0  0
    3.0113    2.3738    4.7691 O   0  0  0  0  0  0  0  0  0  0  0  0
    4.6938    0.6939    4.2598 C   0  0  2  0  0  0  0  0  0  0  0  0
    2.4204    2.5179    0.5517 C   0  0  2  0  0  0  0  0  0  0  0  0
    3.1766    3.7561    0.0512 C   0  0  2  0  0  0  0  0  0  0  0  0
    2.6799    4.9729    0.7461 N   0  3  0  0  0  0  0  0  0  0  0  0
    3.0616    3.8869   -1.4710 C   0  0  1  0  0  0  0  0  0  0  0  0
    3.8247    2.8641   -2.0973 O   0  0  0  0  0  0  0  0  0  0  0  0
    1.6020    3.7905   -1.9256 C   0  0  2  0  0  0  0  0  0  0  0  0
    0.8739    4.9333   -1.4944 O   0  0  0  0  0  0  0  0  0  0  0  0
    0.9694    2.5243   -1.3552 C   0  0  1  0  0  0  0  0  0  0  0  0
    1.0788    2.5318    0.0814 O   0  0  0  0  0  0  0  0  0  0  0  0
   -0.4990    2.3749   -1.7126 C   0  0  0  0  0  0  0  0  0  0  0  0
   -1.0116    1.0249   -1.3893 N   0  3  0  0  0  0  0  0  0  0  0  0
    9.8713    0.1092    2.6413 C   0  0  0  0  0  0  0  0  0  0  0  0
    8.1084    3.3346    2.1767 C   0  0  2  0  0  0  0  0  0  0  0  0
    8.0208    3.4053    0.6541 C   0  0  2  0  0  0  0  0  0  0  0  0
    6.9644    4.3613    0.2446 N   0  3  0  0  0  0  0  0  0  0  0  0
    7.7051    2.0296    0.0822 C   0  0  1  0  0  0  0  0  0  0  0  0
    7.7032    2.0925   -1.3357 O   0  0  0  0  0  0  0  0  0  0  0  0
    8.7500    1.0247    0.5621 C   0  0  2  0  0  0  0  0  0  0  0  0
    8.4235   -0.2758    0.0892 O   0  0  0  0  0  0  0  0  0  0  0  0
    9.2992   -0.9530    3.5000 N   0  3  0  0  0  0  0  0  0  0  0  0
    8.7904    1.0222    2.0891 C   0  0  2  0  0  0  0  0  0  0  0  0
    9.0579    2.3515    2.5803 O   0  0  0  0  0  0  0  0  0  0  0  0
    8.1462    1.7475    6.5231 C   0  0  2  0  0  0  0  0  0  0  0  0
    8.1364    1.4149    7.9662 N   0  3  0  0  0  0  0  0  0  0  0  0
    7.8619    3.2326    6.3287 C   0  0  0  0  0  0  0  0  0  0  0  0
    7.8665    3.5888    4.8487 C   0  0  2  0  0  0  0  0  0  0  0  0
    7.5918    5.0139    4.7321 N   0  3  0  0  0  0  0  0  0  0  0  0
    6.8077    2.7683    4.1158 C   0  0  1  0  0  0  0  0  0  0  0  0
    6.8378    3.0906    2.7117 O   0  0  0  0  0  0  0  0  0  0  0  0
    7.0596    1.2654    4.3000 C   0  0  2  0  0  0  0  0  0  0  0  0
    5.9883    0.5234    3.6865 O   0  0  0  0  0  0  0  0  0  0  0  0
    7.1271    0.8873    5.7775 C   0  0  1  0  0  0  0  0  0  0  0  0
    7.4840   -0.4831    5.9007 O   0  0  0  0  0  0  0  0  0  0  0  0
  1  2  1  0  0  0  0
  3  2  1  6  0  0  0
  3  5  1  0  0  0  0
  3  4  1  0  0  0  0
  4  9  1  0  0  0  0
  5  7  1  0  0  0  0
  5  6  1  1  0  0  0
  7  9  1  0  0  0  0
  7  8  1  1  0  0  0
  9 40  1  6  0  0  0
 10  6  1  1  0  0  0
 10 11  1  0  0  0  0
 10 18  1  0  0  0  0
 11 13  1  0  0  0  0
 11 12  1  1  0  0  0
 13 15  1  0  0  0  0
 13 14  1  6  0  0  0
 15 17  1  0  0  0  0
 15 16  1  1  0  0  0
 17 19  1  1  0  0  0
 17 18  1  0  0  0  0
 19 20  1  0  0  0  0
 21 29  1  0  0  0  0
 22 23  1  0  0  0  0
 22 31  1  0  0  0  0
 22 38  1  1  0  0  0
 23 25  1  0  0  0  0
 23 24  1  1  0  0  0
 25 27  1  0  0  0  0
 25 26  1  6  0  0  0
 27 30  1  0  0  0  0
 27 28  1  1  0  0  0
 30 21  1  6  0  0  0
 30 31  1  0  0  0  0
 32 34  1  0  0  0  0
 32 41  1  0  0  0  0
 32 33  1  1  0  0  0
 34 35  1  0  0  0  0
 35 37  1  0  0  0  0
 35 36  1  1  0  0  0
 37 39  1  0  0  0  0
 37 38  1  6  0  0  0
 39 41  1  0  0  0  0
 39 40  1  1  0  0  0
 41 42  1  6  0  0  0
M  CHG  6  12   1  20   1  24   1  29   1  33   1  36   1
M  END
>  <CHROM.1>
-54.90362736,-58.07022340,-98.19730375,-96.15531277,-64.30562076,-168.94826026
46.46722978,-179.13844023,177.75717169,168.36210751,-116.15835996,-120.02833622
173.01717735,169.60028537,-25.18006738,-178.12379122,69.91511597,63.36250172
-178.07361286,36.64679071,-64.50236040,152.48243852,5.27558332,2.00255634
2.04234831,2.45595048,-0.03316370,-1.29310564

>  <Name>
1NEM.B

>  <RI>
0

>  <Rbt.Current_Directory>
/home/itssahil/PROJECTS/Mol_Feturizer/New_Systems/rnas/1nem

>  <Rbt.Executable>
rbdock ($Id: //depot/dev/client3/rdock/2013.1/src/exe/rbdock.cxx#4 $)

>  <Rbt.Library>
libRbt.so (2013.1, Build901 2013/11/27)

>  <Rbt.Parameter_File>
/export/apps/rDock/src/rDock_2013.1_src/data/scripts/dock_solv.prm

>  <Rbt.Receptor>
prm/pocket_docking_6.prm

>  <SCORE>
-17.549

>  <SCORE.INTER>
-24.562

>  <SCORE.INTER.CONST>
1

>  <SCORE.INTER.POLAR>
-4.97507

>  <SCORE.INTER.ROT>
9

>  <SCORE.INTER.SOLV>
15.9368

>  <SCORE.INTER.VDW>
-14.7034

>  <SCORE.INTER.norm>
-0.58481

>  <SCORE.INTRA>
7.013

>  <SCORE.INTRA.DIHEDRAL>
7.46881

>  <SCORE.INTRA.DIHEDRAL.0>
22.4324

>  <SCORE.INTRA.POLAR>
-0.242919

>  <SCORE.INTRA.POLAR.0>
-1.83749

>  <SCORE.INTRA.REPUL>
0

>  <SCORE.INTRA.REPUL.0>
0

>  <SCORE.INTRA.SOLV>
-2.42137

>  <SCORE.INTRA.SOLV.lig_0>
-160.638

>  <SCORE.INTRA.VDW>
5.31521

>  <SCORE.INTRA.VDW.0>
-7.61953

>  <SCORE.INTRA.norm>
0.166976

>  <SCORE.RESTR>
0

>  <SCORE.RESTR.CAVITY>
0

>  <SCORE.RESTR.norm>
0

>  <SCORE.SYSTEM>
0

>  <SCORE.SYSTEM.CONST>
0

>  <SCORE.SYSTEM.DIHEDRAL>
0

>  <SCORE.SYSTEM.SOLV>
0

>  <SCORE.SYSTEM.norm>
0

>  <SCORE.heavy>
42

>  <SCORE.norm>
-0.417834

>  <RMSD>
9.859

$$$$
1NEM.B
 OpenBabel11021811403D
libRbt.so/2013.1/901 2013/11/27
 42 45  0  0  0  0  0  0  0  0999 V2000
   -4.4067   -6.4558    4.7528 O   0  0  0  0  0  0  0  0  0  0  0  0
   -4.9403   -5.9012    3.5487 C   0  0  0  0  0  0  0  0  0  0  0  0
   -5.3094   -4.4245    3.6823 C   0  0  1  0  0  0  0  0  0  0  0  0
   -4.1379   -3.6165    3.7463 O   0  0  0  0  0  0  0  0  0  0  0  0
   -6.0626   -3.8488    2.4937 C   0  0  1  0  0  0  0  0  0  0  0  0
   -7.3863   -4.3873    2.5283 O   0  0  0  0  0  0  0  0  0  0  0  0
   -5.9240   -2.3730    2.8173 C   0  0  1  0  0  0  0  0  0  0  0  0
   -6.7033   -1.9941    3.9567 O   0  0  0  0  0  0  0  0  0  0  0  0
   -4.4311   -2.3455    3.1656 C   0  0  2  0  0  0  0  0  0  0  0  0
   -7.5910   -5.5716    1.8122 C   0  0  2  0  0  0  0  0  0  0  0  0
   -8.5758   -5.3059    0.6656 C   0  0  2  0  0  0  0  0  0  0  0  0
   -9.8162   -4.6787    1.1932 N   0  3  0  0  0  0  0  0  0  0  0  0
   -8.8772   -6.5957   -0.1045 C   0  0  1  0  0  0  0  0  0  0  0  0
   -7.7317   -6.9852   -0.8507 O   0  0  0  0  0  0  0  0  0  0  0  0
   -9.2794   -7.7266    0.8472 C   0  0  2  0  0  0  0  0  0  0  0  0
  -10.5458   -7.4524    1.4329 O   0  0  0  0  0  0  0  0  0  0  0  0
   -8.2233   -7.8795    1.9381 C   0  0  1  0  0  0  0  0  0  0  0  0
   -8.0626   -6.6295    2.6366 O   0  0  0  0  0  0  0  0  0  0  0  0
   -8.5690   -8.9470    2.9613 C   0  0  0  0  0  0  0  0  0  0  0  0
   -7.8701  -10.2221    2.6869 N   0  3  0  0  0  0  0  0  0  0  0  0
    3.1000   -0.3485    1.4174 C   0  0  0  0  0  0  0  0  0  0  0  0
    0.2065   -2.5072    0.5838 C   0  0  2  0  0  0  0  0  0  0  0  0
    0.6950   -3.8622    1.0901 C   0  0  2  0  0  0  0  0  0  0  0  0
   -0.4521   -4.7802    1.2876 N   0  3  0  0  0  0  0  0  0  0  0  0
    1.4383   -3.6930    2.4084 C   0  0  1  0  0  0  0  0  0  0  0  0
    1.9537   -4.9469    2.8287 O   0  0  0  0  0  0  0  0  0  0  0  0
    2.5763   -2.6908    2.2284 C   0  0  2  0  0  0  0  0  0  0  0  0
    3.2319   -2.4748    3.4714 O   0  0  0  0  0  0  0  0  0  0  0  0
    3.9517   -0.7676    0.2808 N   0  3  0  0  0  0  0  0  0  0  0  0
    2.0139   -1.3700    1.7065 C   0  0  2  0  0  0  0  0  0  0  0  0
    1.2917   -1.5895    0.4777 O   0  0  0  0  0  0  0  0  0  0  0  0
   -3.4030    1.2558    0.6975 C   0  0  2  0  0  0  0  0  0  0  0  0
   -4.4206    2.1164    0.0516 N   0  3  0  0  0  0  0  0  0  0  0  0
   -2.2386    1.0191   -0.2577 C   0  0  0  0  0  0  0  0  0  0  0  0
   -1.1850    0.1334    0.3926 C   0  0  2  0  0  0  0  0  0  0  0  0
   -0.1049   -0.0520   -0.5661 N   0  3  0  0  0  0  0  0  0  0  0  0
   -1.8042   -1.2071    0.7813 C   0  0  1  0  0  0  0  0  0  0  0  0
   -0.8081   -2.0284    1.4212 O   0  0  0  0  0  0  0  0  0  0  0  0
   -2.9883   -1.0033    1.7366 C   0  0  2  0  0  0  0  0  0  0  0  0
   -3.6129   -2.2742    2.0000 O   0  0  0  0  0  0  0  0  0  0  0  0
   -4.0330   -0.0642    1.1389 C   0  0  1  0  0  0  0  0  0  0  0  0
   -5.0458    0.1935    2.1025 O   0  0  0  0  0  0  0  0  0  0  0  0
  1  2  1  0  0  0  0
  3  2  1  6  0  0  0
  3  5  1  0  0  0  0
  3  4  1  0  0  0  0
  4  9  1  0  0  0  0
  5  7  1  0  0  0  0
  5  6  1  1  0  0  0
  7  9  1  0  0  0  0
  7  8  1  1  0  0  0
  9 40  1  6  0  0  0
 10  6  1  1  0  0  0
 10 11  1  0  0  0  0
 10 18  1  0  0  0  0
 11 13  1  0  0  0  0
 11 12  1  1  0  0  0
 13 15  1  0  0  0  0
 13 14  1  1  0  0  0
 15 17  1  0  0  0  0
 15 16  1  1  0  0  0
 17 19  1  1  0  0  0
 17 18  1  0  0  0  0
 19 20  1  0  0  0  0
 21 29  1  0  0  0  0
 22 23  1  0  0  0  0
 22 31  1  0  0  0  0
 22 38  1  1  0  0  0
 23 25  1  0  0  0  0
 23 24  1  1  0  0  0
 25 27  1  0  0  0  0
 25 26  1  6  0  0  0
 27 30  1  0  0  0  0
 27 28  1  1  0  0  0
 30 21  1  6  0  0  0
 30 31  1  0  0  0  0
 32 34  1  0  0  0  0
 32 41  1  0  0  0  0
 32 33  1  6  0  0  0
 34 35  1  0  0  0  0
 35 37  1  0  0  0  0
 35 36  1  6  0  0  0
 37 39  1  0  0  0  0
 37 38  1  1  0  0  0
 39 41  1  0  0  0  0
 39 40  1  6  0  0  0
 41 42  1  1  0  0  0
M  CHG  6  12   1  20   1  24   1  29   1  33   1  36   1
M  END
>  <CHROM.1>
-79.31715542,72.19308414,-91.38627463,-115.54495036,-44.98896803,-139.24041871
-137.06616114,63.78525681,61.08896080,98.99936647,-134.55502460,67.05826884
-179.77928469,-149.10413014,-33.54136672,-70.01878996,40.93765899,-178.64577192
153.37517724,-70.13356513,160.61612216,60.39322534,-3.67310465,-3.46350262
1.75257940,-2.62629087,-0.06985258,-0.24138346

>  <Name>
1NEM.B

>  <RI>
0

>  <Rbt.Current_Directory>
/home/itssahil/PROJECTS/Mol_Feturizer/New_Systems/rnas/1nem

>  <Rbt.Executable>
rbdock ($Id: //depot/dev/client3/rdock/2013.1/src/exe/rbdock.cxx#4 $)

>  <Rbt.Library>
libRbt.so (2013.1, Build901 2013/11/27)

>  <Rbt.Parameter_File>
/export/apps/rDock/src/rDock_2013.1_src/data/scripts/dock_solv.prm

>  <Rbt.Receptor>
prm/blind_docking_80.prm

>  <SCORE>
-46.5723

>  <SCORE.INTER>
-71.5056

>  <SCORE.INTER.CONST>
1

>  <SCORE.INTER.POLAR>
-11.1219

>  <SCORE.INTER.ROT>
9

>  <SCORE.INTER.SOLV>
46.4899

>  <SCORE.INTER.VDW>
-35.6941

>  <SCORE.INTER.norm>
-1.70252

>  <SCORE.INTRA>
19.9584

>  <SCORE.INTRA.DIHEDRAL>
18.7435

>  <SCORE.INTRA.DIHEDRAL.0>
22.4324

>  <SCORE.INTRA.POLAR>
1.19228

>  <SCORE.INTRA.POLAR.0>
-1.83749

>  <SCORE.INTRA.REPUL>
0

>  <SCORE.INTRA.REPUL.0>
0

>  <SCORE.INTRA.SOLV>
-3.05836

>  <SCORE.INTRA.SOLV.lig_0>
-160.638

>  <SCORE.INTRA.VDW>
8.06208

>  <SCORE.INTRA.VDW.0>
-7.61953

>  <SCORE.INTRA.norm>
0.4752

>  <SCORE.RESTR>
4.97495

>  <SCORE.RESTR.CAVITY>
4.97495

>  <SCORE.RESTR.norm>
0.118451

>  <SCORE.SYSTEM>
0

>  <SCORE.SYSTEM.CONST>
0

>  <SCORE.SYSTEM.DIHEDRAL>
0

>  <SCORE.SYSTEM.SOLV>
0

>  <SCORE.SYSTEM.norm>
0

>  <SCORE.heavy>
42

>  <SCORE.norm>
-1.10886

>  <RMSD>
9.891

$$$$
1NEM.B
 OpenBabel11021811403D
libRbt.so/2013.1/901 2013/11/27
 42 45  0  0  0  0  0  0  0  0999 V2000
   -3.9931   -6.1547    2.7330 O   0  0  0  0  0  0  0  0  0  0  0  0
   -5.1060   -5.8998    3.5924 C   0  0  0  0  0  0  0  0  0  0  0  0
   -5.4657   -4.4174    3.6817 C   0  0  1  0  0  0  0  0  0  0  0  0
   -4.2904   -3.6198    3.7913 O   0  0  0  0  0  0  0  0  0  0  0  0
   -6.1515   -3.8554    2.4467 C   0  0  1  0  0  0  0  0  0  0  0  0
   -7.4809   -4.3803    2.4232 O   0  0  0  0  0  0  0  0  0  0  0  0
   -6.0138   -2.3756    2.7516 C   0  0  1  0  0  0  0  0  0  0  0  0
   -6.8457   -1.9691    3.8433 O   0  0  0  0  0  0  0  0  0  0  0  0
   -4.5402   -2.3565    3.1748 C   0  0  2  0  0  0  0  0  0  0  0  0
   -7.6579   -5.5854    1.7348 C   0  0  2  0  0  0  0  0  0  0  0  0
   -8.6587   -5.3725    0.5910 C   0  0  2  0  0  0  0  0  0  0  0  0
   -9.9120   -4.7687    1.1152 N   0  3  0  0  0  0  0  0  0  0  0  0
   -8.9297   -6.6869   -0.1482 C   0  0  1  0  0  0  0  0  0  0  0  0
   -7.7796   -7.0606   -0.8954 O   0  0  0  0  0  0  0  0  0  0  0  0
   -9.2926   -7.8073    0.8312 C   0  0  2  0  0  0  0  0  0  0  0  0
  -10.5616   -7.5556    1.4214 O   0  0  0  0  0  0  0  0  0  0  0  0
   -8.2242   -7.9066    1.9163 C   0  0  1  0  0  0  0  0  0  0  0  0
   -8.0932   -6.6376    2.5860 O   0  0  0  0  0  0  0  0  0  0  0  0
   -8.5319   -8.9605    2.9654 C   0  0  0  0  0  0  0  0  0  0  0  0
   -9.7591   -8.6395    3.7275 N   0  3  0  0  0  0  0  0  0  0  0  0
    3.0623   -0.4318    1.5974 C   0  0  0  0  0  0  0  0  0  0  0  0
    0.1702   -2.5408    0.6408 C   0  0  2  0  0  0  0  0  0  0  0  0
    0.6370   -3.9140    1.1178 C   0  0  2  0  0  0  0  0  0  0  0  0
   -0.5213   -4.8274    1.2644 N   0  3  0  0  0  0  0  0  0  0  0  0
    1.3534   -3.7891    2.4558 C   0  0  1  0  0  0  0  0  0  0  0  0
    1.8498   -5.0589    2.8504 O   0  0  0  0  0  0  0  0  0  0  0  0
    2.5029   -2.7919    2.3289 C   0  0  2  0  0  0  0  0  0  0  0  0
    3.1336   -2.6175    3.5912 O   0  0  0  0  0  0  0  0  0  0  0  0
    4.0549   -0.4383    2.6963 N   0  3  0  0  0  0  0  0  0  0  0  0
    1.9622   -1.4519    1.8338 C   0  0  2  0  0  0  0  0  0  0  0  0
    1.2646   -1.6298    0.5842 O   0  0  0  0  0  0  0  0  0  0  0  0
   -3.4458    1.2082    0.7285 C   0  0  2  0  0  0  0  0  0  0  0  0
   -4.4616    2.0674    0.0780 N   0  3  0  0  0  0  0  0  0  0  0  0
   -2.2823    0.9634   -0.2257 C   0  0  0  0  0  0  0  0  0  0  0  0
   -1.2305    0.0791    0.4293 C   0  0  2  0  0  0  0  0  0  0  0  0
   -0.1511   -0.1143   -0.5286 N   0  3  0  0  0  0  0  0  0  0  0  0
   -1.8526   -1.2577    0.8258 C   0  0  1  0  0  0  0  0  0  0  0  0
   -0.8582   -2.0777    1.4702 O   0  0  0  0  0  0  0  0  0  0  0  0
   -3.0359   -1.0458    1.7804 C   0  0  2  0  0  0  0  0  0  0  0  0
   -3.6634   -2.3137    2.0512 O   0  0  0  0  0  0  0  0  0  0  0  0
   -4.0787   -0.1078    1.1777 C   0  0  1  0  0  0  0  0  0  0  0  0
   -5.0906    0.1577    2.1400 O   0  0  0  0  0  0  0  0  0  0  0  0
  1  2  1  0  0  0  0
  3  2  1  6  0  0  0
  3  5  1  0  0  0  0
  3  4  1  0  0  0  0
  4  9  1  0  0  0  0
  5  7  1  0  0  0  0
  5  6  1  1  0  0  0
  7  9  1  0  0  0  0
  7  8  1  1  0  0  0
  9 40  1  6  0  0  0
 10  6  1  1  0  0  0
 10 11  1  0  0  0  0
 10 18  1  0  0  0  0
 11 13  1  0  0  0  0
 11 12  1  1  0  0  0
 13 15  1  0  0  0  0
 13 14  1  1  0  0  0
 15 17  1  0  0  0  0
 15 16  1  1  0  0  0
 17 19  1  1  0  0  0
 17 18  1  0  0  0  0
 19 20  1  0  0  0  0
 21 29  1  0  0  0  0
 22 23  1  0  0  0  0
 22 31  1  0  0  0  0
 22 38  1  1  0  0  0
 23 25  1  0  0  0  0
 23 24  1  1  0  0  0
 25 27  1  0  0  0  0
 25 26  1  6  0  0  0
 27 30  1  0  0  0  0
 27 28  1  1  0  0  0
 30 21  1  6  0  0  0
 30 31  1  0  0  0  0
 32 34  1  0  0  0  0
 32 41  1  0  0  0  0
 32 33  1  6  0  0  0
 34 35  1  0  0  0  0
 35 37  1  0  0  0  0
 35 36  1  6  0  0  0
 37 39  1  0  0  0  0
 37 38  1  1  0  0  0
 39 41  1  0  0  0  0
 39 40  1  6  0  0  0
 41 42  1  1  0  0  0
M  CHG  6  12   1  20   1  24   1  29   1  33   1  36   1
M  END
>  <CHROM.1>
91.42234960,-42.48777811,-90.46981951,-119.89133109,-60.72340786,-140.58465755
-32.45638664,62.92981535,51.84245128,-63.84432582,66.80623454,-43.58458631
-51.71009211,-147.58473999,-35.20300728,66.78715222,63.34070139,62.34823800
-84.48017691,-68.86868676,163.99705482,58.88255982,-3.76973741,-3.44447848
1.80647761,-2.66180871,-0.09354727,-0.23131020

>  <Name>
1NEM.B

>  <RI>
0

>  <Rbt.Current_Directory>
/home/itssahil/PROJECTS/Mol_Feturizer/New_Systems/rnas/1nem

>  <Rbt.Executable>
rbdock ($Id: //depot/dev/client3/rdock/2013.1/src/exe/rbdock.cxx#4 $)

>  <Rbt.Library>
libRbt.so (2013.1, Build901 2013/11/27)

>  <Rbt.Parameter_File>
/export/apps/rDock/src/rDock_2013.1_src/data/scripts/dock_solv.prm

>  <Rbt.Receptor>
prm/blind_docking_20.prm

>  <SCORE>
-47.8041

>  <SCORE.INTER>
-68.6887

>  <SCORE.INTER.CONST>
1

>  <SCORE.INTER.POLAR>
-10.4349

>  <SCORE.INTER.ROT>
9

>  <SCORE.INTER.SOLV>
42.6369

>  <SCORE.INTER.VDW>
-34.8216

>  <SCORE.INTER.norm>
-1.63545

>  <SCORE.INTRA>
16.4179

>  <SCORE.INTRA.DIHEDRAL>
10.7931

>  <SCORE.INTRA.DIHEDRAL.0>
22.4324

>  <SCORE.INTRA.POLAR>
0.754953

>  <SCORE.INTRA.POLAR.0>
-1.83749

>  <SCORE.INTRA.REPUL>
0

>  <SCORE.INTRA.REPUL.0>
0

>  <SCORE.INTRA.SOLV>
2.24595

>  <SCORE.INTRA.SOLV.lig_0>
-160.638

>  <SCORE.INTRA.VDW>
7.33149

>  <SCORE.INTRA.VDW.0>
-7.61953

>  <SCORE.INTRA.norm>
0.390902

>  <SCORE.RESTR>
4.46671

>  <SCORE.RESTR.CAVITY>
4.46671

>  <SCORE.RESTR.norm>
0.10635

>  <SCORE.SYSTEM>
0

>  <SCORE.SYSTEM.CONST>
0

>  <SCORE.SYSTEM.DIHEDRAL>
0

>  <SCORE.SYSTEM.SOLV>
0

>  <SCORE.SYSTEM.norm>
0

>  <SCORE.heavy>
42

>  <SCORE.norm>
-1.13819

>  <RMSD>
9.892

$$$$
1NEM.B
 OpenBabel11021811403D
libRbt.so/2013.1/901 2013/11/27
 42 45  0  0  0  0  0  0  0  0999 V2000
   -4.0508   -6.3112    2.7506 O   0  0  0  0  0  0  0  0  0  0  0  0
   -5.1142   -5.9895    3.6494 C   0  0  0  0  0  0  0  0  0  0  0  0
   -5.3910   -4.4893    3.7362 C   0  0  1  0  0  0  0  0  0  0  0  0
   -4.1756   -3.7606    3.8832 O   0  0  0  0  0  0  0  0  0  0  0  0
   -6.0080   -3.8845    2.4852 C   0  0  1  0  0  0  0  0  0  0  0  0
   -7.3640   -4.3324    2.4214 O   0  0  0  0  0  0  0  0  0  0  0  0
   -5.7947   -2.4161    2.8016 C   0  0  1  0  0  0  0  0  0  0  0  0
   -6.6329   -1.9665    3.8714 O   0  0  0  0  0  0  0  0  0  0  0  0
   -4.3352   -2.4829    3.2664 C   0  0  2  0  0  0  0  0  0  0  0  0
   -7.5833   -5.5491    1.7667 C   0  0  2  0  0  0  0  0  0  0  0  0
   -8.5779   -5.3337    0.6179 C   0  0  2  0  0  0  0  0  0  0  0  0
   -9.8090   -4.6730    1.1261 N   0  3  0  0  0  0  0  0  0  0  0  0
   -8.8950   -6.6579   -0.0845 C   0  0  1  0  0  0  0  0  0  0  0  0
   -7.7595   -7.0913   -0.8217 O   0  0  0  0  0  0  0  0  0  0  0  0
   -9.2946   -7.7378    0.9256 C   0  0  2  0  0  0  0  0  0  0  0  0
  -10.5534   -7.4265    1.5094 O   0  0  0  0  0  0  0  0  0  0  0  0
   -8.2286   -7.8437    2.0125 C   0  0  1  0  0  0  0  0  0  0  0  0
   -8.0531   -6.5619    2.6468 O   0  0  0  0  0  0  0  0  0  0  0  0
   -8.5706   -8.8571    3.0904 C   0  0  0  0  0  0  0  0  0  0  0  0
   -8.8631  -10.1914    2.5213 N   0  3  0  0  0  0  0  0  0  0  0  0
    3.0754    0.0775    1.5742 C   0  0  0  0  0  0  0  0  0  0  0  0
    0.4243   -2.3977    0.8177 C   0  0  2  0  0  0  0  0  0  0  0  0
    1.0025   -3.6545    1.4634 C   0  0  2  0  0  0  0  0  0  0  0  0
   -0.0693   -4.6523    1.6945 N   0  3  0  0  0  0  0  0  0  0  0  0
    1.6622   -3.3064    2.7911 C   0  0  1  0  0  0  0  0  0  0  0  0
    2.2628   -4.4679    3.3432 O   0  0  0  0  0  0  0  0  0  0  0  0
    2.7168   -2.2245    2.5694 C   0  0  2  0  0  0  0  0  0  0  0  0
    3.2890   -1.8444    3.8143 O   0  0  0  0  0  0  0  0  0  0  0  0
    2.5419    1.0210    0.5652 N   0  3  0  0  0  0  0  0  0  0  0  0
    2.0687   -1.0096    1.9082 C   0  0  2  0  0  0  0  0  0  0  0  0
    1.4299   -1.3980    0.6750 O   0  0  0  0  0  0  0  0  0  0  0  0
   -3.6731    0.7906    0.3241 C   0  0  2  0  0  0  0  0  0  0  0  0
   -4.7835    1.3881   -0.4527 N   0  3  0  0  0  0  0  0  0  0  0  0
   -2.4637    0.5734   -0.5783 C   0  0  0  0  0  0  0  0  0  0  0  0
   -1.3144   -0.0429    0.2069 C   0  0  2  0  0  0  0  0  0  0  0  0
   -0.1954   -0.2223   -0.7073 N   0  3  0  0  0  0  0  0  0  0  0  0
   -1.7519   -1.3796    0.8011 C   0  0  1  0  0  0  0  0  0  0  0  0
   -0.6681   -1.9427    1.5658 O   0  0  0  0  0  0  0  0  0  0  0  0
   -2.9763   -1.1973    1.7089 C   0  0  2  0  0  0  0  0  0  0  0  0
   -3.4256   -2.4864    2.1682 O   0  0  0  0  0  0  0  0  0  0  0  0
   -4.1255   -0.5194    0.9671 C   0  0  1  0  0  0  0  0  0  0  0  0
   -5.1880   -0.2591    1.8749 O   0  0  0  0  0  0  0  0  0  0  0  0
  1  2  1  0  0  0  0
  3  2  1  6  0  0  0
  3  5  1  0  0  0  0
  3  4  1  0  0  0  0
  4  9  1  0  0  0  0
  5  7  1  0  0  0  0
  5  6  1  1  0  0  0
  7  9  1  0  0  0  0
  7  8  1  1  0  0  0
  9 40  1  6  0  0  0
 10  6  1  1  0  0  0
 10 11  1  0  0  0  0
 10 18  1  0  0  0  0
 11 13  1  0  0  0  0
 11 12  1  1  0  0  0
 13 15  1  0  0  0  0
 13 14  1  1  0  0  0
 15 17  1  0  0  0  0
 15 16  1  1  0  0  0
 17 19  1  1  0  0  0
 17 18  1  0  0  0  0
 19 20  1  0  0  0  0
 21 29  1  0  0  0  0
 22 23  1  0  0  0  0
 22 31  1  0  0  0  0
 22 38  1  1  0  0  0
 23 25  1  0  0  0  0
 23 24  1  1  0  0  0
 25 27  1  0  0  0  0
 25 26  1  6  0  0  0
 27 30  1  0  0  0  0
 27 28  1  1  0  0  0
 30 21  1  6  0  0  0
 30 31  1  0  0  0  0
 32 34  1  0  0  0  0
 32 41  1  0  0  0  0
 32 33  1  6  0  0  0
 34 35  1  0  0  0  0
 35 37  1  0  0  0  0
 35 36  1  6  0  0  0
 37 39  1  0  0  0  0
 37 38  1  1  0  0  0
 39 41  1  0  0  0  0
 39 40  1  6  0  0  0
 41 42  1  1  0  0  0
M  CHG  6  12   1  20   1  24   1  29   1  33   1  36   1
M  END
>  <CHROM.1>
-51.31780453,-46.43349734,-88.08639814,-122.77840288,-44.08843712,-155.65745726
84.68203634,55.40977054,47.78102889,54.36787681,-72.06180505,161.31812452
-63.62358474,-143.81375966,-169.18943370,168.04329707,56.15464914,-175.16610008
157.34070293,-70.05578587,165.16292862,-60.29342529,-3.70746981,-3.41521627
1.74768327,-2.63225173,-0.15285667,-0.32351716

>  <Name>
1NEM.B

>  <RI>
0

>  <Rbt.Current_Directory>
/home/itssahil/PROJECTS/Mol_Feturizer/New_Systems/rnas/1nem

>  <Rbt.Executable>
rbdock ($Id: //depot/dev/client3/rdock/2013.1/src/exe/rbdock.cxx#4 $)

>  <Rbt.Library>
libRbt.so (2013.1, Build901 2013/11/27)

>  <Rbt.Parameter_File>
/export/apps/rDock/src/rDock_2013.1_src/data/scripts/dock_solv.prm

>  <Rbt.Receptor>
prm/blind_docking_20.prm

>  <SCORE>
-37.3907

>  <SCORE.INTER>
-57.7946

>  <SCORE.INTER.CONST>
1

>  <SCORE.INTER.POLAR>
-8.95888

>  <SCORE.INTER.ROT>
9

>  <SCORE.INTER.SOLV>
42.1316

>  <SCORE.INTER.VDW>
-32.3106

>  <SCORE.INTER.norm>
-1.37606

>  <SCORE.INTRA>
16.388

>  <SCORE.INTRA.DIHEDRAL>
5.36065

>  <SCORE.INTRA.DIHEDRAL.0>
22.4324

>  <SCORE.INTRA.POLAR>
1.01369

>  <SCORE.INTRA.POLAR.0>
-1.83749

>  <SCORE.INTRA.REPUL>
0.000648575

>  <SCORE.INTRA.REPUL.0>
0

>  <SCORE.INTRA.SOLV>
1.13865

>  <SCORE.INTRA.SOLV.lig_0>
-160.638

>  <SCORE.INTRA.VDW>
9.6886

>  <SCORE.INTRA.VDW.0>
-7.61953

>  <SCORE.INTRA.norm>
0.390191

>  <SCORE.RESTR>
4.01585

>  <SCORE.RESTR.CAVITY>
4.01585

>  <SCORE.RESTR.norm>
0.0956156

>  <SCORE.SYSTEM>
0

>  <SCORE.SYSTEM.CONST>
0

>  <SCORE.SYSTEM.DIHEDRAL>
0

>  <SCORE.SYSTEM.SOLV>
0

>  <SCORE.SYSTEM.norm>
0

>  <SCORE.heavy>
42

>  <SCORE.norm>
-0.890255

>  <RMSD>
9.902

$$$$
1NEM.B
 OpenBabel11021811403D
libRbt.so/2013.1/901 2013/11/27
 42 45  0  0  0  0  0  0  0  0999 V2000
    7.0723    1.4804   -0.8027 O   0  0  0  0  0  0  0  0  0  0  0  0
    6.4644    2.6833   -0.3278 C   0  0  0  0  0  0  0  0  0  0  0  0
    4.9947    2.5026    0.0490 C   0  0  1  0  0  0  0  0  0  0  0  0
    4.8708    1.7174    1.2312 O   0  0  0  0  0  0  0  0  0  0  0  0
    4.2695    3.7891    0.4104 C   0  0  1  0  0  0  0  0  0  0  0  0
    4.0742    4.5214   -0.8016 O   0  0  0  0  0  0  0  0  0  0  0  0
    3.0289    3.1913    1.0470 C   0  0  1  0  0  0  0  0  0  0  0  0
    2.1803    2.5564    0.0847 O   0  0  0  0  0  0  0  0  0  0  0  0
    3.7016    2.1377    1.9347 C   0  0  2  0  0  0  0  0  0  0  0  0
    3.5740    3.7963   -1.8885 C   0  0  2  0  0  0  0  0  0  0  0  0
    4.3134    4.2220   -3.1642 C   0  0  2  0  0  0  0  0  0  0  0  0
    4.2493    5.6988   -3.3225 N   0  3  0  0  0  0  0  0  0  0  0  0
    3.7488    3.4962   -4.3897 C   0  0  1  0  0  0  0  0  0  0  0  0
    4.1134    2.1232   -4.3418 O   0  0  0  0  0  0  0  0  0  0  0  0
    2.2233    3.6209   -4.4519 C   0  0  2  0  0  0  0  0  0  0  0  0
    1.8485    4.9643   -4.7293 O   0  0  0  0  0  0  0  0  0  0  0  0
    1.6173    3.1749   -3.1242 C   0  0  1  0  0  0  0  0  0  0  0  0
    2.1710    3.9595   -2.0501 O   0  0  0  0  0  0  0  0  0  0  0  0
    0.1062    3.3169   -3.0776 C   0  0  0  0  0  0  0  0  0  0  0  0
   -0.5619    2.4383   -4.0633 N   0  3  0  0  0  0  0  0  0  0  0  0
    9.4784    3.9378    5.1777 C   0  0  0  0  0  0  0  0  0  0  0  0
    7.0424    2.0383    3.1319 C   0  0  2  0  0  0  0  0  0  0  0  0
    7.9774    1.2514    2.2167 C   0  0  2  0  0  0  0  0  0  0  0  0
    7.2655    0.0899    1.6322 N   0  3  0  0  0  0  0  0  0  0  0  0
    9.1871    0.7594    3.0001 C   0  0  1  0  0  0  0  0  0  0  0  0
   10.0851    0.0972    2.1229 O   0  0  0  0  0  0  0  0  0  0  0  0
    9.8815    1.9454    3.6658 C   0  0  2  0  0  0  0  0  0  0  0  0
   10.9713    1.4869    4.4555 O   0  0  0  0  0  0  0  0  0  0  0  0
    9.8065    4.9576    4.1553 N   0  3  0  0  0  0  0  0  0  0  0  0
    8.8826    2.6900    4.5494 C   0  0  2  0  0  0  0  0  0  0  0  0
    7.7424    3.1036    3.7693 O   0  0  0  0  0  0  0  0  0  0  0  0
    3.0715    1.6333    6.5929 C   0  0  2  0  0  0  0  0  0  0  0  0
    2.1042    2.2429    7.5342 N   0  3  0  0  0  0  0  0  0  0  0  0
    4.4599    1.5994    7.2218 C   0  0  0  0  0  0  0  0  0  0  0  0
    5.4659    0.9768    6.2638 C   0  0  2  0  0  0  0  0  0  0  0  0
    6.7648    0.9728    6.9218 N   0  3  0  0  0  0  0  0  0  0  0  0
    5.5142    1.7834    4.9683 C   0  0  1  0  0  0  0  0  0  0  0  0
    6.4474    1.1716    4.0566 O   0  0  0  0  0  0  0  0  0  0  0  0
    4.1273    1.8456    4.3135 C   0  0  2  0  0  0  0  0  0  0  0  0
    4.1851    2.6977    3.1537 O   0  0  0  0  0  0  0  0  0  0  0  0
    3.0807    2.4046    5.2741 C   0  0  1  0  0  0  0  0  0  0  0  0
    1.7953    2.3282    4.6721 O   0  0  0  0  0  0  0  0  0  0  0  0
  1  2  1  0  0  0  0
  3  2  1  1  0  0  0
  3  5  1  0  0  0  0
  3  4  1  0  0  0  0
  4  9  1  0  0  0  0
  5  7  1  0  0  0  0
  5  6  1  6  0  0  0
  7  9  1  0  0  0  0
  7  8  1  6  0  0  0
  9 40  1  1  0  0  0
 10  6  1  1  0  0  0
 10 11  1  0  0  0  0
 10 18  1  0  0  0  0
 11 13  1  0  0  0  0
 11 12  1  6  0  0  0
 13 15  1  0  0  0  0
 13 14  1  1  0  0  0
 15 17  1  0  0  0  0
 15 16  1  1  0  0  0
 17 19  1  6  0  0  0
 17 18  1  0  0  0  0
 19 20  1  0  0  0  0
 21 29  1  0  0  0  0
 22 23  1  0  0  0  0
 22 31  1  0  0  0  0
 22 38  1  1  0  0  0
 23 25  1  0  0  0  0
 23 24  1  1  0  0  0
 25 27  1  0  0  0  0
 25 26  1  6  0  0  0
 27 30  1  0  0  0  0
 27 28  1  1  0  0  0
 30 21  1  6  0  0  0
 30 31  1  0  0  0  0
 32 34  1  0  0  0  0
 32 41  1  0  0  0  0
 32 33  1  1  0  0  0
 34 35  1  0  0  0  0
 35 37  1  0  0  0  0
 35 36  1  1  0  0  0
 37 39  1  0  0  0  0
 37 38  1  6  0  0  0
 39 41  1  0  0  0  0
 39 40  1  6  0  0  0
 41 42  1  6  0  0  0
M  CHG  6  12   1  20   1  24   1  29   1  33   1  36   1
M  END
>  <CHROM.1>
-175.66498891,70.33941978,47.01064122,-138.60573676,-174.37096673,-99.35305641
-70.40069185,-63.52582156,176.70033527,63.98204645,63.16653234,66.01053459
64.19552768,-178.73306784,33.95658162,-171.55040822,68.33315739,59.75741534
-57.29856248,-152.87311252,126.94109510,-56.97099338,5.08814855,2.55472251
1.47358371,-2.09961753,-0.06669044,1.74015749

>  <Name>
1NEM.B

>  <RI>
0

>  <Rbt.Current_Directory>
/home/itssahil/PROJECTS/Mol_Feturizer/New_Systems/rnas/1nem

>  <Rbt.Executable>
rbdock ($Id: //depot/dev/client3/rdock/2013.1/src/exe/rbdock.cxx#4 $)

>  <Rbt.Library>
libRbt.so (2013.1, Build901 2013/11/27)

>  <Rbt.Parameter_File>
/export/apps/rDock/src/rDock_2013.1_src/data/scripts/dock_solv.prm

>  <Rbt.Receptor>
prm/pocket_docking_7.prm

>  <SCORE>
-16.2245

>  <SCORE.INTER>
-18.7903

>  <SCORE.INTER.CONST>
1

>  <SCORE.INTER.POLAR>
-3.78182

>  <SCORE.INTER.ROT>
9

>  <SCORE.INTER.SOLV>
16.6796

>  <SCORE.INTER.VDW>
-15.0807

>  <SCORE.INTER.norm>
-0.447389

>  <SCORE.INTRA>
2.56582

>  <SCORE.INTRA.DIHEDRAL>
3.46566

>  <SCORE.INTRA.DIHEDRAL.0>
22.4324

>  <SCORE.INTRA.POLAR>
-0.132543

>  <SCORE.INTRA.POLAR.0>
-1.83749

>  <SCORE.INTRA.REPUL>
0

>  <SCORE.INTRA.REPUL.0>
0

>  <SCORE.INTRA.SOLV>
-0.740813

>  <SCORE.INTRA.SOLV.lig_0>
-160.638

>  <SCORE.INTRA.VDW>
1.65405

>  <SCORE.INTRA.VDW.0>
-7.61953

>  <SCORE.INTRA.norm>
0.0610911

>  <SCORE.RESTR>
0

>  <SCORE.RESTR.CAVITY>
0

>  <SCORE.RESTR.norm>
0

>  <SCORE.SYSTEM>
0

>  <SCORE.SYSTEM.CONST>
0

>  <SCORE.SYSTEM.DIHEDRAL>
0

>  <SCORE.SYSTEM.SOLV>
0

>  <SCORE.SYSTEM.norm>
0

>  <SCORE.heavy>
42

>  <SCORE.norm>
-0.386298

>  <RMSD>
9.905

$$$$
1NEM.B
 OpenBabel11021811403D
libRbt.so/2013.1/901 2013/11/27
 42 45  0  0  0  0  0  0  0  0999 V2000
   -5.7128   -8.4616    4.3403 O   0  0  0  0  0  0  0  0  0  0  0  0
   -4.7067   -7.7000    5.0109 C   0  0  0  0  0  0  0  0  0  0  0  0
   -5.1821   -6.3053    5.4152 C   0  0  1  0  0  0  0  0  0  0  0  0
   -4.0724   -5.4501    5.6735 O   0  0  0  0  0  0  0  0  0  0  0  0
   -5.9503   -5.5592    4.3359 C   0  0  1  0  0  0  0  0  0  0  0  0
   -7.2328   -6.1798    4.2214 O   0  0  0  0  0  0  0  0  0  0  0  0
   -5.9231   -4.1692    4.9434 C   0  0  1  0  0  0  0  0  0  0  0  0
   -6.7500   -4.0721    6.1078 O   0  0  0  0  0  0  0  0  0  0  0  0
   -4.4432   -4.1123    5.3401 C   0  0  2  0  0  0  0  0  0  0  0  0
   -8.0384   -5.7443    3.1637 C   0  0  2  0  0  0  0  0  0  0  0  0
   -8.9943   -6.8740    2.7572 C   0  0  2  0  0  0  0  0  0  0  0  0
   -8.2270   -8.1170    2.4804 N   0  3  0  0  0  0  0  0  0  0  0  0
   -9.8506   -6.4583    1.5566 C   0  0  1  0  0  0  0  0  0  0  0  0
  -10.7929   -5.4735    1.9602 O   0  0  0  0  0  0  0  0  0  0  0  0
   -8.9819   -5.9043    0.4232 C   0  0  2  0  0  0  0  0  0  0  0  0
   -8.1927   -6.9411   -0.1462 O   0  0  0  0  0  0  0  0  0  0  0  0
   -8.0785   -4.7987    0.9624 C   0  0  1  0  0  0  0  0  0  0  0  0
   -7.2767   -5.3115    2.0441 O   0  0  0  0  0  0  0  0  0  0  0  0
   -7.1405   -4.2269   -0.0861 C   0  0  0  0  0  0  0  0  0  0  0  0
   -6.3274   -3.1124    0.4492 N   0  3  0  0  0  0  0  0  0  0  0  0
    2.5777   -1.4259    2.5179 C   0  0  0  0  0  0  0  0  0  0  0  0
   -0.7632   -2.6119    1.4413 C   0  0  2  0  0  0  0  0  0  0  0  0
   -0.4369   -4.0299    0.9788 C   0  0  2  0  0  0  0  0  0  0  0  0
   -1.6691   -4.8530    0.9388 N   0  3  0  0  0  0  0  0  0  0  0  0
    0.5682   -4.6724    1.9254 C   0  0  1  0  0  0  0  0  0  0  0  0
    0.9218   -5.9593    1.4423 O   0  0  0  0  0  0  0  0  0  0  0  0
    1.8103   -3.7900    2.0276 C   0  0  2  0  0  0  0  0  0  0  0  0
    2.7246   -4.3479    2.9626 O   0  0  0  0  0  0  0  0  0  0  0  0
    3.4712   -1.7052    3.6654 N   0  3  0  0  0  0  0  0  0  0  0  0
    1.4035   -2.3884    2.4785 C   0  0  2  0  0  0  0  0  0  0  0  0
    0.4273   -1.8391    1.5703 O   0  0  0  0  0  0  0  0  0  0  0  0
   -4.9549   -0.3348    3.4322 C   0  0  2  0  0  0  0  0  0  0  0  0
   -6.3445    0.1720    3.3594 N   0  3  0  0  0  0  0  0  0  0  0  0
   -4.2786   -0.1984    2.0728 C   0  0  0  0  0  0  0  0  0  0  0  0
   -2.8489   -0.7179    2.1321 C   0  0  2  0  0  0  0  0  0  0  0  0
   -2.2613   -0.5587    0.8095 N   0  3  0  0  0  0  0  0  0  0  0  0
   -2.8488   -2.1851    2.5550 C   0  0  1  0  0  0  0  0  0  0  0  0
   -1.4912   -2.6611    2.6362 O   0  0  0  0  0  0  0  0  0  0  0  0
   -3.5329   -2.3589    3.9182 C   0  0  2  0  0  0  0  0  0  0  0  0
   -3.6090   -3.7611    4.2383 O   0  0  0  0  0  0  0  0  0  0  0  0
   -4.9479   -1.7859    3.9101 C   0  0  1  0  0  0  0  0  0  0  0  0
   -5.4954   -1.8557    5.2200 O   0  0  0  0  0  0  0  0  0  0  0  0
  1  2  1  0  0  0  0
  3  2  1  6  0  0  0
  3  5  1  0  0  0  0
  3  4  1  0  0  0  0
  4  9  1  0  0  0  0
  5  7  1  0  0  0  0
  5  6  1  1  0  0  0
  7  9  1  0  0  0  0
  7  8  1  1  0  0  0
  9 40  1  6  0  0  0
 10  6  1  1  0  0  0
 10 11  1  0  0  0  0
 10 18  1  0  0  0  0
 11 13  1  0  0  0  0
 11 12  1  6  0  0  0
 13 15  1  0  0  0  0
 13 14  1  1  0  0  0
 15 17  1  0  0  0  0
 15 16  1  1  0  0  0
 17 19  1  6  0  0  0
 17 18  1  0  0  0  0
 19 20  1  0  0  0  0
 21 29  1  0  0  0  0
 22 23  1  0  0  0  0
 22 31  1  0  0  0  0
 22 38  1  1  0  0  0
 23 25  1  0  0  0  0
 23 24  1  1  0  0  0
 25 27  1  0  0  0  0
 25 26  1  6  0  0  0
 27 30  1  0  0  0  0
 27 28  1  1  0  0  0
 30 21  1  6  0  0  0
 30 31  1  0  0  0  0
 32 34  1  0  0  0  0
 32 41  1  0  0  0  0
 32 33  1  6  0  0  0
 34 35  1  0  0  0  0
 35 37  1  0  0  0  0
 35 36  1  6  0  0  0
 37 39  1  0  0  0  0
 37 38  1  1  0  0  0
 39 41  1  0  0  0  0
 39 40  1  6  0  0  0
 41 42  1  1  0  0  0
M  CHG  6  12   1  20   1  24   1  29   1  33   1  36   1
M  END
>  <CHROM.1>
-160.27776292,-161.24454397,-172.42439296,152.91064344,50.21217392,-164.76901398
41.54663392,-51.58891107,-176.52637288,177.11027225,32.24032964,-73.38436812
127.22051851,-114.03010232,-94.47364037,56.04404008,48.66688108,-102.73588492
41.73284669,-60.94218485,-168.18324500,-45.53445618,-4.12104099,-4.04380479
2.78780454,-2.79729149,-0.01088657,-0.09988350

>  <Name>
1NEM.B

>  <RI>
0

>  <Rbt.Current_Directory>
/home/itssahil/PROJECTS/Mol_Feturizer/New_Systems/rnas/1nem

>  <Rbt.Executable>
rbdock ($Id: //depot/dev/client3/rdock/2013.1/src/exe/rbdock.cxx#4 $)

>  <Rbt.Library>
libRbt.so (2013.1, Build901 2013/11/27)

>  <Rbt.Parameter_File>
/export/apps/rDock/src/rDock_2013.1_src/data/scripts/dock_solv.prm

>  <Rbt.Receptor>
prm/blind_docking_100.prm

>  <SCORE>
-26.9607

>  <SCORE.INTER>
-46.5013

>  <SCORE.INTER.CONST>
1

>  <SCORE.INTER.POLAR>
-6.35109

>  <SCORE.INTER.ROT>
9

>  <SCORE.INTER.SOLV>
45.6503

>  <SCORE.INTER.VDW>
-34.6473

>  <SCORE.INTER.norm>
-1.10717

>  <SCORE.INTRA>
18.2497

>  <SCORE.INTRA.DIHEDRAL>
8.31557

>  <SCORE.INTRA.DIHEDRAL.0>
22.4324

>  <SCORE.INTRA.POLAR>
-1.58789

>  <SCORE.INTRA.POLAR.0>
-1.83749

>  <SCORE.INTRA.REPUL>
0

>  <SCORE.INTRA.REPUL.0>
0

>  <SCORE.INTRA.SOLV>
2.25051

>  <SCORE.INTRA.SOLV.lig_0>
-160.638

>  <SCORE.INTRA.VDW>
18.3655

>  <SCORE.INTRA.VDW.0>
-7.61953

>  <SCORE.INTRA.norm>
0.434516

>  <SCORE.RESTR>
1.29097

>  <SCORE.RESTR.CAVITY>
1.29097

>  <SCORE.RESTR.norm>
0.0307374

>  <SCORE.SYSTEM>
0

>  <SCORE.SYSTEM.CONST>
0

>  <SCORE.SYSTEM.DIHEDRAL>
0

>  <SCORE.SYSTEM.SOLV>
0

>  <SCORE.SYSTEM.norm>
0

>  <SCORE.heavy>
42

>  <SCORE.norm>
-0.641921

>  <RMSD>
9.912

$$$$
1NEM.B
 OpenBabel11021811403D
libRbt.so/2013.1/901 2013/11/27
 42 45  0  0  0  0  0  0  0  0999 V2000
    3.8222   -0.1926    5.0695 O   0  0  0  0  0  0  0  0  0  0  0  0
    4.6844   -1.1603    4.4676 C   0  0  0  0  0  0  0  0  0  0  0  0
    5.8993   -0.5357    3.7831 C   0  0  1  0  0  0  0  0  0  0  0  0
    5.4958    0.4827    2.8723 O   0  0  0  0  0  0  0  0  0  0  0  0
    6.8496    0.1938    4.7192 C   0  0  1  0  0  0  0  0  0  0  0  0
    7.5407   -0.7989    5.4810 O   0  0  0  0  0  0  0  0  0  0  0  0
    7.6686    0.9458    3.6869 C   0  0  1  0  0  0  0  0  0  0  0  0
    8.5103    0.0738    2.9252 O   0  0  0  0  0  0  0  0  0  0  0  0
    6.5239    1.4716    2.8128 C   0  0  2  0  0  0  0  0  0  0  0  0
    8.4788   -0.3269    6.4054 C   0  0  2  0  0  0  0  0  0  0  0  0
    9.2624   -1.5138    6.9820 C   0  0  2  0  0  0  0  0  0  0  0  0
    8.3228   -2.5334    7.5186 N   0  3  0  0  0  0  0  0  0  0  0  0
   10.2573   -1.0441    8.0484 C   0  0  1  0  0  0  0  0  0  0  0  0
   11.3178   -0.3277    7.4297 O   0  0  0  0  0  0  0  0  0  0  0  0
    9.5727   -0.1520    9.0885 C   0  0  2  0  0  0  0  0  0  0  0  0
    8.6659   -0.9154    9.8739 O   0  0  0  0  0  0  0  0  0  0  0  0
    8.8275    0.9785    8.3843 C   0  0  1  0  0  0  0  0  0  0  0  0
    7.8787    0.4267    7.4509 O   0  0  0  0  0  0  0  0  0  0  0  0
    8.0718    1.8845    9.3403 C   0  0  0  0  0  0  0  0  0  0  0  0
    7.3803    2.9831    8.6299 N   0  3  0  0  0  0  0  0  0  0  0  0
   10.6883    3.7327    0.0279 C   0  0  0  0  0  0  0  0  0  0  0  0
    7.8819    4.1870    2.4037 C   0  0  2  0  0  0  0  0  0  0  0  0
    8.4477    5.2653    3.3245 C   0  0  2  0  0  0  0  0  0  0  0  0
    7.3515    5.9364    4.0632 N   0  3  0  0  0  0  0  0  0  0  0  0
    9.2152    6.2995    2.5119 C   0  0  1  0  0  0  0  0  0  0  0  0
    9.8009    7.2524    3.3856 O   0  0  0  0  0  0  0  0  0  0  0  0
   10.2987    5.6032    1.6915 C   0  0  2  0  0  0  0  0  0  0  0  0
   10.9746    6.5529    0.8774 O   0  0  0  0  0  0  0  0  0  0  0  0
   11.3304    4.5552   -1.0230 N   0  3  0  0  0  0  0  0  0  0  0  0
    9.6603    4.5312    0.8103 C   0  0  2  0  0  0  0  0  0  0  0  0
    8.9186    3.5986    1.6226 O   0  0  0  0  0  0  0  0  0  0  0  0
    2.9614    3.1415    1.0958 C   0  0  2  0  0  0  0  0  0  0  0  0
    1.8673    2.2195    0.7133 N   0  3  0  0  0  0  0  0  0  0  0  0
    3.7510    3.5546   -0.1412 C   0  0  0  0  0  0  0  0  0  0  0  0
    4.8812    4.5014    0.2374 C   0  0  2  0  0  0  0  0  0  0  0  0
    5.5920    4.8577   -0.9825 N   0  3  0  0  0  0  0  0  0  0  0  0
    5.8163    3.8190    1.2329 C   0  0  1  0  0  0  0  0  0  0  0  0
    6.8670    4.7312    1.6076 O   0  0  0  0  0  0  0  0  0  0  0  0
    5.0492    3.3808    2.4882 C   0  0  2  0  0  0  0  0  0  0  0  0
    5.9350    2.6503    3.3579 O   0  0  0  0  0  0  0  0  0  0  0  0
    3.8667    2.4822    2.1349 C   0  0  1  0  0  0  0  0  0  0  0  0
    3.1153    2.2035    3.3089 O   0  0  0  0  0  0  0  0  0  0  0  0
  1  2  1  0  0  0  0
  3  2  1  1  0  0  0
  3  5  1  0  0  0  0
  3  4  1  0  0  0  0
  4  9  1  0  0  0  0
  5  7  1  0  0  0  0
  5  6  1  6  0  0  0
  7  9  1  0  0  0  0
  7  8  1  6  0  0  0
  9 40  1  1  0  0  0
 10  6  1  6  0  0  0
 10 11  1  0  0  0  0
 10 18  1  0  0  0  0
 11 13  1  0  0  0  0
 11 12  1  1  0  0  0
 13 15  1  0  0  0  0
 13 14  1  6  0  0  0
 15 17  1  0  0  0  0
 15 16  1  6  0  0  0
 17 19  1  1  0  0  0
 17 18  1  0  0  0  0
 19 20  1  0  0  0  0
 21 29  1  0  0  0  0
 22 23  1  0  0  0  0
 22 31  1  0  0  0  0
 22 38  1  6  0  0  0
 23 25  1  0  0  0  0
 23 24  1  6  0  0  0
 25 27  1  0  0  0  0
 25 26  1  1  0  0  0
 27 30  1  0  0  0  0
 27 28  1  6  0  0  0
 30 21  1  1  0  0  0
 30 31  1  0  0  0  0
 32 34  1  0  0  0  0
 32 41  1  0  0  0  0
 32 33  1  6  0  0  0
 34 35  1  0  0  0  0
 35 37  1  0  0  0  0
 35 36  1  6  0  0  0
 37 39  1  0  0  0  0
 37 38  1  1  0  0  0
 39 41  1  0  0  0  0
 39 40  1  1  0  0  0
 41 42  1  1  0  0  0
M  CHG  6  12   1  20   1  24   1  29   1  33   1  36   1
M  END
>  <CHROM.1>
55.89263473,-52.48847552,179.58842582,-171.90701311,50.72028408,-77.93087433
-71.69506767,-61.52161349,62.42849338,178.99259215,-66.60909334,-69.39773357
-74.22192645,-149.08876310,-65.26082359,60.13260374,60.69588382,-176.84632389
76.09772368,-173.21264131,-59.49075380,-68.40266898,7.36680240,2.26997754
3.81170934,1.40468473,0.38723117,2.27059551

>  <Name>
1NEM.B

>  <RI>
0

>  <Rbt.Current_Directory>
/home/itssahil/PROJECTS/Mol_Feturizer/New_Systems/rnas/1nem

>  <Rbt.Executable>
rbdock ($Id: //depot/dev/client3/rdock/2013.1/src/exe/rbdock.cxx#4 $)

>  <Rbt.Library>
libRbt.so (2013.1, Build901 2013/11/27)

>  <Rbt.Parameter_File>
/export/apps/rDock/src/rDock_2013.1_src/data/scripts/dock_solv.prm

>  <Rbt.Receptor>
prm/pocket_docking_8.prm

>  <SCORE>
-25.4473

>  <SCORE.INTER>
-18.6297

>  <SCORE.INTER.CONST>
1

>  <SCORE.INTER.POLAR>
-3.30325

>  <SCORE.INTER.ROT>
9

>  <SCORE.INTER.SOLV>
16.9836

>  <SCORE.INTER.VDW>
-16.6701

>  <SCORE.INTER.norm>
-0.443564

>  <SCORE.INTRA>
-6.81766

>  <SCORE.INTRA.DIHEDRAL>
-12.7414

>  <SCORE.INTRA.DIHEDRAL.0>
22.4324

>  <SCORE.INTRA.POLAR>
-0.490958

>  <SCORE.INTRA.POLAR.0>
-1.83749

>  <SCORE.INTRA.REPUL>
0

>  <SCORE.INTRA.REPUL.0>
0

>  <SCORE.INTRA.SOLV>
-5.85138

>  <SCORE.INTRA.SOLV.lig_0>
-160.638

>  <SCORE.INTRA.VDW>
4.14796

>  <SCORE.INTRA.VDW.0>
-7.61953

>  <SCORE.INTRA.norm>
-0.162325

>  <SCORE.RESTR>
0

>  <SCORE.RESTR.CAVITY>
0

>  <SCORE.RESTR.norm>
0

>  <SCORE.SYSTEM>
0

>  <SCORE.SYSTEM.CONST>
0

>  <SCORE.SYSTEM.DIHEDRAL>
0

>  <SCORE.SYSTEM.SOLV>
0

>  <SCORE.SYSTEM.norm>
0

>  <SCORE.heavy>
42

>  <SCORE.norm>
-0.605889

>  <RMSD>
9.916

$$$$
1NEM.B
 OpenBabel11021811403D
libRbt.so/2013.1/901 2013/11/27
 42 45  0  0  0  0  0  0  0  0999 V2000
   -4.3902   -6.6608    2.9714 O   0  0  0  0  0  0  0  0  0  0  0  0
   -4.5909   -6.0968    4.2689 C   0  0  0  0  0  0  0  0  0  0  0  0
   -5.0970   -4.6558    4.2232 C   0  0  1  0  0  0  0  0  0  0  0  0
   -4.0065   -3.7392    4.2121 O   0  0  0  0  0  0  0  0  0  0  0  0
   -5.8666   -4.2934    2.9631 C   0  0  1  0  0  0  0  0  0  0  0  0
   -7.1360   -4.9464    3.0380 O   0  0  0  0  0  0  0  0  0  0  0  0
   -5.8725   -2.7838    3.1146 C   0  0  1  0  0  0  0  0  0  0  0  0
   -6.7143   -2.3518    4.1889 O   0  0  0  0  0  0  0  0  0  0  0  0
   -4.3985   -2.5763    3.4823 C   0  0  2  0  0  0  0  0  0  0  0  0
   -7.3791   -5.9374    2.0810 C   0  0  2  0  0  0  0  0  0  0  0  0
   -8.2462   -5.3539    0.9572 C   0  0  2  0  0  0  0  0  0  0  0  0
   -9.4693   -4.7304    1.5278 N   0  3  0  0  0  0  0  0  0  0  0  0
   -8.5896   -6.4277   -0.0803 C   0  0  1  0  0  0  0  0  0  0  0  0
   -7.4245   -6.7664   -0.8207 O   0  0  0  0  0  0  0  0  0  0  0  0
   -9.1554   -7.6834    0.5902 C   0  0  2  0  0  0  0  0  0  0  0  0
  -10.4375   -7.4131    1.1428 O   0  0  0  0  0  0  0  0  0  0  0  0
   -8.2039   -8.1525    1.6872 C   0  0  1  0  0  0  0  0  0  0  0  0
   -7.9979   -7.0897    2.6381 O   0  0  0  0  0  0  0  0  0  0  0  0
   -8.7141   -9.3661    2.4441 C   0  0  0  0  0  0  0  0  0  0  0  0
   -9.9730   -9.0776    3.1664 N   0  3  0  0  0  0  0  0  0  0  0  0
    2.8167    0.2544    1.3076 C   0  0  0  0  0  0  0  0  0  0  0  0
    0.1972   -2.3232    0.8375 C   0  0  2  0  0  0  0  0  0  0  0  0
    0.8354   -3.5218    1.5353 C   0  0  2  0  0  0  0  0  0  0  0  0
   -0.1994   -4.5257    1.8802 N   0  3  0  0  0  0  0  0  0  0  0  0
    1.5456   -3.0727    2.8053 C   0  0  1  0  0  0  0  0  0  0  0  0
    2.1995   -4.1818    3.4027 O   0  0  0  0  0  0  0  0  0  0  0  0
    2.5615   -1.9846    2.4652 C   0  0  2  0  0  0  0  0  0  0  0  0
    3.1797   -1.5110    3.6548 O   0  0  0  0  0  0  0  0  0  0  0  0
    3.9175   -0.3018    0.4880 N   0  3  0  0  0  0  0  0  0  0  0  0
    1.8538   -0.8304    1.7579 C   0  0  2  0  0  0  0  0  0  0  0  0
    1.1699   -1.3130    0.5836 O   0  0  0  0  0  0  0  0  0  0  0  0
   -4.1130    0.6036    0.3631 C   0  0  2  0  0  0  0  0  0  0  0  0
   -5.2905    1.0833   -0.3963 N   0  3  0  0  0  0  0  0  0  0  0  0
   -2.9217    0.4367   -0.5734 C   0  0  0  0  0  0  0  0  0  0  0  0
   -1.7037   -0.0585    0.1937 C   0  0  2  0  0  0  0  0  0  0  0  0
   -0.6057   -0.1951   -0.7529 N   0  3  0  0  0  0  0  0  0  0  0  0
   -2.0194   -1.3965    0.8581 C   0  0  1  0  0  0  0  0  0  0  0  0
   -0.8714   -1.8443    1.6049 O   0  0  0  0  0  0  0  0  0  0  0  0
   -3.2228   -1.2652    1.8019 C   0  0  2  0  0  0  0  0  0  0  0  0
   -3.5585   -2.5624    2.3302 O   0  0  0  0  0  0  0  0  0  0  0  0
   -4.4440   -0.7067    1.0757 C   0  0  1  0  0  0  0  0  0  0  0  0
   -5.4918   -0.4857    2.0104 O   0  0  0  0  0  0  0  0  0  0  0  0
  1  2  1  0  0  0  0
  3  2  1  6  0  0  0
  3  5  1  0  0  0  0
  3  4  1  0  0  0  0
  4  9  1  0  0  0  0
  5  7  1  0  0  0  0
  5  6  1  1  0  0  0
  7  9  1  0  0  0  0
  7  8  1  1  0  0  0
  9 40  1  6  0  0  0
 10  6  1  1  0  0  0
 10 11  1  0  0  0  0
 10 18  1  0  0  0  0
 11 13  1  0  0  0  0
 11 12  1  1  0  0  0
 13 15  1  0  0  0  0
 13 14  1  1  0  0  0
 15 17  1  0  0  0  0
 15 16  1  1  0  0  0
 17 19  1  1  0  0  0
 17 18  1  0  0  0  0
 19 20  1  0  0  0  0
 21 29  1  0  0  0  0
 22 23  1  0  0  0  0
 22 31  1  0  0  0  0
 22 38  1  1  0  0  0
 23 25  1  0  0  0  0
 23 24  1  1  0  0  0
 25 27  1  0  0  0  0
 25 26  1  6  0  0  0
 27 30  1  0  0  0  0
 27 28  1  1  0  0  0
 30 21  1  6  0  0  0
 30 31  1  0  0  0  0
 32 34  1  0  0  0  0
 32 41  1  0  0  0  0
 32 33  1  6  0  0  0
 34 35  1  0  0  0  0
 35 37  1  0  0  0  0
 35 36  1  6  0  0  0
 37 39  1  0  0  0  0
 37 38  1  1  0  0  0
 39 41  1  0  0  0  0
 39 40  1  6  0  0  0
 41 42  1  1  0  0  0
M  CHG  6  12   1  20   1  24   1  29   1  33   1  36   1
M  END
>  <CHROM.1>
-60.23949637,-90.06514393,-114.46924021,-99.78095913,-61.39674061,-148.98664623
-78.74713497,177.00920384,71.04403872,-63.02260627,173.74821255,53.37127585
67.15988631,-141.91349205,-170.36599120,162.85076984,-64.54199708,131.36198335
39.78062341,-73.62407702,163.49036662,-52.38329639,-3.77290568,-3.48817952
1.84013683,-2.64525185,-0.16929277,-0.38463762

>  <Name>
1NEM.B

>  <RI>
0

>  <Rbt.Current_Directory>
/home/itssahil/PROJECTS/Mol_Feturizer/New_Systems/rnas/1nem

>  <Rbt.Executable>
rbdock ($Id: //depot/dev/client3/rdock/2013.1/src/exe/rbdock.cxx#4 $)

>  <Rbt.Library>
libRbt.so (2013.1, Build901 2013/11/27)

>  <Rbt.Parameter_File>
/export/apps/rDock/src/rDock_2013.1_src/data/scripts/dock_solv.prm

>  <Rbt.Receptor>
prm/blind_docking_20.prm

>  <SCORE>
-27.5192

>  <SCORE.INTER>
-44.1461

>  <SCORE.INTER.CONST>
1

>  <SCORE.INTER.POLAR>
-7.92421

>  <SCORE.INTER.ROT>
9

>  <SCORE.INTER.SOLV>
43.1453

>  <SCORE.INTER.VDW>
-26.9984

>  <SCORE.INTER.norm>
-1.0511

>  <SCORE.INTRA>
12.2992

>  <SCORE.INTRA.DIHEDRAL>
11.7217

>  <SCORE.INTRA.DIHEDRAL.0>
22.4324

>  <SCORE.INTRA.POLAR>
-0.402046

>  <SCORE.INTRA.POLAR.0>
-1.83749

>  <SCORE.INTRA.REPUL>
0

>  <SCORE.INTRA.REPUL.0>
0

>  <SCORE.INTRA.SOLV>
1.1175

>  <SCORE.INTRA.SOLV.lig_0>
-160.638

>  <SCORE.INTRA.VDW>
7.24656

>  <SCORE.INTRA.VDW.0>
-7.61953

>  <SCORE.INTRA.norm>
0.292838

>  <SCORE.RESTR>
4.32764

>  <SCORE.RESTR.CAVITY>
4.32764

>  <SCORE.RESTR.norm>
0.103039

>  <SCORE.SYSTEM>
0

>  <SCORE.SYSTEM.CONST>
0

>  <SCORE.SYSTEM.DIHEDRAL>
0

>  <SCORE.SYSTEM.SOLV>
0

>  <SCORE.SYSTEM.norm>
0

>  <SCORE.heavy>
42

>  <SCORE.norm>
-0.655219

>  <RMSD>
9.920

$$$$
1NEM.B
 OpenBabel11021811403D
libRbt.so/2013.1/901 2013/11/27
 42 45  0  0  0  0  0  0  0  0999 V2000
    6.2090    3.0923   -4.0518 O   0  0  0  0  0  0  0  0  0  0  0  0
    5.0611    3.2529   -3.2159 C   0  0  0  0  0  0  0  0  0  0  0  0
    4.5544    1.9336   -2.6352 C   0  0  1  0  0  0  0  0  0  0  0  0
    5.5655    1.3072   -1.8510 O   0  0  0  0  0  0  0  0  0  0  0  0
    3.3965    2.0728   -1.6599 C   0  0  1  0  0  0  0  0  0  0  0  0
    2.2364    2.4112   -2.4234 O   0  0  0  0  0  0  0  0  0  0  0  0
    3.4266    0.6814   -1.0558 C   0  0  1  0  0  0  0  0  0  0  0  0
    2.9983   -0.3203   -1.9844 O   0  0  0  0  0  0  0  0  0  0  0  0
    4.9351    0.5623   -0.8088 C   0  0  2  0  0  0  0  0  0  0  0  0
    1.0447    2.5581   -1.7054 C   0  0  2  0  0  0  0  0  0  0  0  0
   -0.0642    3.0290   -2.6562 C   0  0  2  0  0  0  0  0  0  0  0  0
    0.3733    4.2478   -3.3865 N   0  3  0  0  0  0  0  0  0  0  0  0
   -1.3723    3.2648   -1.8941 C   0  0  1  0  0  0  0  0  0  0  0  0
   -1.9163    2.0179   -1.4819 O   0  0  0  0  0  0  0  0  0  0  0  0
   -1.1457    4.1566   -0.6695 C   0  0  2  0  0  0  0  0  0  0  0  0
   -0.8203    5.4800   -1.0756 O   0  0  0  0  0  0  0  0  0  0  0  0
   -0.0181    3.5814    0.1828 C   0  0  1  0  0  0  0  0  0  0  0  0
    1.1769    3.4578   -0.6127 O   0  0  0  0  0  0  0  0  0  0  0  0
    0.3119    4.4347    1.3948 C   0  0  0  0  0  0  0  0  0  0  0  0
    1.4391    3.8755    2.1737 N   0  3  0  0  0  0  0  0  0  0  0  0
    6.8936    5.4050    2.4178 C   0  0  0  0  0  0  0  0  0  0  0  0
    7.7913    2.2725    0.6548 C   0  0  2  0  0  0  0  0  0  0  0  0
    9.1834    2.6181    0.1315 C   0  0  2  0  0  0  0  0  0  0  0  0
    9.9273    1.3806   -0.2040 N   0  3  0  0  0  0  0  0  0  0  0  0
    9.9584    3.4035    1.1810 C   0  0  1  0  0  0  0  0  0  0  0  0
   11.2199    3.7853    0.6545 O   0  0  0  0  0  0  0  0  0  0  0  0
    9.1611    4.6417    1.5847 C   0  0  2  0  0  0  0  0  0  0  0  0
    9.8457    5.3437    2.6142 O   0  0  0  0  0  0  0  0  0  0  0  0
    7.0153    5.7865    3.8435 N   0  3  0  0  0  0  0  0  0  0  0  0
    7.7797    4.2185    2.0806 C   0  0  2  0  0  0  0  0  0  0  0  0
    7.1022    3.4504    1.0654 O   0  0  0  0  0  0  0  0  0  0  0  0
    4.7259   -0.8275    3.5114 C   0  0  2  0  0  0  0  0  0  0  0  0
    3.4799   -1.1166    4.2579 N   0  3  0  0  0  0  0  0  0  0  0  0
    5.7054   -0.0743    4.4043 C   0  0  0  0  0  0  0  0  0  0  0  0
    6.9910    0.2318    3.6487 C   0  0  2  0  0  0  0  0  0  0  0  0
    7.8803    0.9470    4.5531 N   0  3  0  0  0  0  0  0  0  0  0  0
    6.6776    1.0740    2.4143 C   0  0  1  0  0  0  0  0  0  0  0  0
    7.8954    1.3354    1.6898 O   0  0  0  0  0  0  0  0  0  0  0  0
    5.6842    0.3471    1.4972 C   0  0  2  0  0  0  0  0  0  0  0  0
    5.3303    1.2092    0.3989 O   0  0  0  0  0  0  0  0  0  0  0  0
    4.4090   -0.0334    2.2452 C   0  0  1  0  0  0  0  0  0  0  0  0
    3.5745   -0.8098    1.3959 O   0  0  0  0  0  0  0  0  0  0  0  0
  1  2  1  0  0  0  0
  3  2  1  1  0  0  0
  3  5  1  0  0  0  0
  3  4  1  0  0  0  0
  4  9  1  0  0  0  0
  5  7  1  0  0  0  0
  5  6  1  6  0  0  0
  7  9  1  0  0  0  0
  7  8  1  6  0  0  0
  9 40  1  1  0  0  0
 10  6  1  6  0  0  0
 10 11  1  0  0  0  0
 10 18  1  0  0  0  0
 11 13  1  0  0  0  0
 11 12  1  1  0  0  0
 13 15  1  0  0  0  0
 13 14  1  1  0  0  0
 15 17  1  0  0  0  0
 15 16  1  6  0  0  0
 17 19  1  1  0  0  0
 17 18  1  0  0  0  0
 19 20  1  0  0  0  0
 21 29  1  0  0  0  0
 22 23  1  0  0  0  0
 22 31  1  0  0  0  0
 22 38  1  1  0  0  0
 23 25  1  0  0  0  0
 23 24  1  1  0  0  0
 25 27  1  0  0  0  0
 25 26  1  6  0  0  0
 27 30  1  0  0  0  0
 27 28  1  1  0  0  0
 30 21  1  6  0  0  0
 30 31  1  0  0  0  0
 32 34  1  0  0  0  0
 32 41  1  0  0  0  0
 32 33  1  1  0  0  0
 34 35  1  0  0  0  0
 35 37  1  0  0  0  0
 35 36  1  1  0  0  0
 37 39  1  0  0  0  0
 37 38  1  6  0  0  0
 39 41  1  0  0  0  0
 39 40  1  6  0  0  0
 41 42  1  6  0  0  0
M  CHG  6  12   1  20   1  24   1  29   1  33   1  36   1
M  END
>  <CHROM.1>
176.48665249,59.57045250,178.71299319,175.46226171,-59.83629755,-138.19875124
50.56880367,-176.31441738,61.53357227,-178.01464282,164.47582217,-91.74436121
-178.00117655,170.79548053,54.05863805,60.31822148,167.37404007,176.12069179
176.32824430,-170.21987974,152.95894963,-55.66229890,4.66606415,2.39617544
0.39638281,-2.78941192,0.18382665,2.16053794

>  <Name>
1NEM.B

>  <RI>
0

>  <Rbt.Current_Directory>
/home/itssahil/PROJECTS/Mol_Feturizer/New_Systems/rnas/1nem

>  <Rbt.Executable>
rbdock ($Id: //depot/dev/client3/rdock/2013.1/src/exe/rbdock.cxx#4 $)

>  <Rbt.Library>
libRbt.so (2013.1, Build901 2013/11/27)

>  <Rbt.Parameter_File>
/export/apps/rDock/src/rDock_2013.1_src/data/scripts/dock_solv.prm

>  <Rbt.Receptor>
prm/pocket_docking_8.prm

>  <SCORE>
-24.5604

>  <SCORE.INTER>
-23.5248

>  <SCORE.INTER.CONST>
1

>  <SCORE.INTER.POLAR>
-3.99081

>  <SCORE.INTER.ROT>
9

>  <SCORE.INTER.SOLV>
24.1012

>  <SCORE.INTER.VDW>
-20.0142

>  <SCORE.INTER.norm>
-0.560115

>  <SCORE.INTRA>
-1.03559

>  <SCORE.INTRA.DIHEDRAL>
-7.05466

>  <SCORE.INTRA.DIHEDRAL.0>
22.4324

>  <SCORE.INTRA.POLAR>
1.348

>  <SCORE.INTRA.POLAR.0>
-1.83749

>  <SCORE.INTRA.REPUL>
0

>  <SCORE.INTRA.REPUL.0>
0

>  <SCORE.INTRA.SOLV>
-8.82469

>  <SCORE.INTRA.SOLV.lig_0>
-160.638

>  <SCORE.INTRA.VDW>
2.32088

>  <SCORE.INTRA.VDW.0>
-7.61953

>  <SCORE.INTRA.norm>
-0.0246569

>  <SCORE.RESTR>
0

>  <SCORE.RESTR.CAVITY>
0

>  <SCORE.RESTR.norm>
0

>  <SCORE.SYSTEM>
0

>  <SCORE.SYSTEM.CONST>
0

>  <SCORE.SYSTEM.DIHEDRAL>
0

>  <SCORE.SYSTEM.SOLV>
0

>  <SCORE.SYSTEM.norm>
0

>  <SCORE.heavy>
42

>  <SCORE.norm>
-0.584772

>  <RMSD>
9.923

$$$$
1NEM.B
 OpenBabel11021811403D
libRbt.so/2013.1/901 2013/11/27
 42 45  0  0  0  0  0  0  0  0999 V2000
   -5.2924   -8.5957    4.5805 O   0  0  0  0  0  0  0  0  0  0  0  0
   -4.5774   -7.4454    4.1247 C   0  0  0  0  0  0  0  0  0  0  0  0
   -4.9945   -6.1602    4.8382 C   0  0  1  0  0  0  0  0  0  0  0  0
   -3.8800   -5.2868    4.9948 O   0  0  0  0  0  0  0  0  0  0  0  0
   -5.9973   -5.3085    4.0763 C   0  0  1  0  0  0  0  0  0  0  0  0
   -7.2564   -5.9830    4.1321 O   0  0  0  0  0  0  0  0  0  0  0  0
   -5.8800   -4.0274    4.8807 C   0  0  1  0  0  0  0  0  0  0  0  0
   -6.4400   -4.1592    6.1915 O   0  0  0  0  0  0  0  0  0  0  0  0
   -4.3517   -3.9395    4.9656 C   0  0  2  0  0  0  0  0  0  0  0  0
   -8.1018   -5.8065    3.0314 C   0  0  2  0  0  0  0  0  0  0  0  0
   -9.0815   -6.9851    2.9517 C   0  0  2  0  0  0  0  0  0  0  0  0
   -8.3349   -8.2707    2.9594 N   0  3  0  0  0  0  0  0  0  0  0  0
   -9.9837   -6.8619    1.7194 C   0  0  1  0  0  0  0  0  0  0  0  0
  -10.9016   -5.7925    1.9045 O   0  0  0  0  0  0  0  0  0  0  0  0
   -9.1585   -6.6173    0.4523 C   0  0  2  0  0  0  0  0  0  0  0  0
   -8.4007   -7.7753    0.1252 O   0  0  0  0  0  0  0  0  0  0  0  0
   -8.2261   -5.4288    0.6685 C   0  0  1  0  0  0  0  0  0  0  0  0
   -7.3839   -5.6742    1.8115 O   0  0  0  0  0  0  0  0  0  0  0  0
   -7.3281   -5.1473   -0.5234 C   0  0  0  0  0  0  0  0  0  0  0  0
   -6.6632   -3.8296   -0.4151 N   0  3  0  0  0  0  0  0  0  0  0  0
    2.0582   -2.5732    1.9685 C   0  0  0  0  0  0  0  0  0  0  0  0
   -1.4388   -1.8345    0.9924 C   0  0  2  0  0  0  0  0  0  0  0  0
   -1.8582   -3.1650    0.3719 C   0  0  2  0  0  0  0  0  0  0  0  0
   -3.3364   -3.2676    0.3283 N   0  3  0  0  0  0  0  0  0  0  0  0
   -1.2960   -4.3235    1.1848 C   0  0  1  0  0  0  0  0  0  0  0  0
   -1.6270   -5.5517    0.5552 O   0  0  0  0  0  0  0  0  0  0  0  0
    0.2204   -4.1818    1.2955 C   0  0  2  0  0  0  0  0  0  0  0  0
    0.7453   -5.2214    2.1111 O   0  0  0  0  0  0  0  0  0  0  0  0
    2.8277   -3.8249    1.7844 N   0  3  0  0  0  0  0  0  0  0  0  0
    0.5616   -2.8247    1.9079 C   0  0  2  0  0  0  0  0  0  0  0  0
   -0.0212   -1.7653    1.1221 O   0  0  0  0  0  0  0  0  0  0  0  0
   -6.0672   -0.4570    3.0965 C   0  0  2  0  0  0  0  0  0  0  0  0
   -7.5446   -0.3699    3.0417 N   0  3  0  0  0  0  0  0  0  0  0  0
   -5.4729   -0.0883    1.7418 C   0  0  0  0  0  0  0  0  0  0  0  0
   -3.9537   -0.1757    1.7826 C   0  0  2  0  0  0  0  0  0  0  0  0
   -3.4506    0.1882    0.4656 N   0  3  0  0  0  0  0  0  0  0  0  0
   -3.5270   -1.5934    2.1560 C   0  0  1  0  0  0  0  0  0  0  0  0
   -2.0890   -1.6606    2.2200 O   0  0  0  0  0  0  0  0  0  0  0  0
   -4.1178   -2.0003    3.5130 C   0  0  2  0  0  0  0  0  0  0  0  0
   -3.7838   -3.3745    3.7859 O   0  0  0  0  0  0  0  0  0  0  0  0
   -5.6379   -1.8592    3.5253 C   0  0  1  0  0  0  0  0  0  0  0  0
   -6.1285   -2.1255    4.8325 O   0  0  0  0  0  0  0  0  0  0  0  0
  1  2  1  0  0  0  0
  3  2  1  6  0  0  0
  3  5  1  0  0  0  0
  3  4  1  0  0  0  0
  4  9  1  0  0  0  0
  5  7  1  0  0  0  0
  5  6  1  1  0  0  0
  7  9  1  0  0  0  0
  7  8  1  1  0  0  0
  9 40  1  6  0  0  0
 10  6  1  1  0  0  0
 10 11  1  0  0  0  0
 10 18  1  0  0  0  0
 11 13  1  0  0  0  0
 11 12  1  6  0  0  0
 13 15  1  0  0  0  0
 13 14  1  1  0  0  0
 15 17  1  0  0  0  0
 15 16  1  1  0  0  0
 17 19  1  6  0  0  0
 17 18  1  0  0  0  0
 19 20  1  0  0  0  0
 21 29  1  0  0  0  0
 22 23  1  0  0  0  0
 22 31  1  0  0  0  0
 22 38  1  1  0  0  0
 23 25  1  0  0  0  0
 23 24  1  1  0  0  0
 25 27  1  0  0  0  0
 25 26  1  6  0  0  0
 27 30  1  0  0  0  0
 27 28  1  1  0  0  0
 30 21  1  6  0  0  0
 30 31  1  0  0  0  0
 32 34  1  0  0  0  0
 32 41  1  0  0  0  0
 32 33  1  6  0  0  0
 34 35  1  0  0  0  0
 35 37  1  0  0  0  0
 35 36  1  6  0  0  0
 37 39  1  0  0  0  0
 37 38  1  1  0  0  0
 39 41  1  0  0  0  0
 39 40  1  6  0  0  0
 41 42  1  1  0  0  0
M  CHG  6  12   1  20   1  24   1  29   1  33   1  36   1
M  END
>  <CHROM.1>
77.93911735,145.74688037,-148.74098532,156.54846713,179.26812641,179.56399661
99.89879039,76.37545798,-72.29422363,167.14150233,-147.03379921,-16.10561950
-172.17413085,-62.18287956,-37.27725321,94.09648239,74.43349260,135.82633658
-65.06014655,-82.40097756,-175.16576133,-45.06848198,-4.69166066,-4.10468283
2.40405367,-2.72451086,0.05868169,-0.10412929

>  <Name>
1NEM.B

>  <RI>
0

>  <Rbt.Current_Directory>
/home/itssahil/PROJECTS/Mol_Feturizer/New_Systems/rnas/1nem

>  <Rbt.Executable>
rbdock ($Id: //depot/dev/client3/rdock/2013.1/src/exe/rbdock.cxx#4 $)

>  <Rbt.Library>
libRbt.so (2013.1, Build901 2013/11/27)

>  <Rbt.Parameter_File>
/export/apps/rDock/src/rDock_2013.1_src/data/scripts/dock_solv.prm

>  <Rbt.Receptor>
prm/blind_docking_40.prm

>  <SCORE>
38.5577

>  <SCORE.INTER>
-21.1438

>  <SCORE.INTER.CONST>
1

>  <SCORE.INTER.POLAR>
-5.10517

>  <SCORE.INTER.ROT>
9

>  <SCORE.INTER.SOLV>
44.3614

>  <SCORE.INTER.VDW>
-21.4658

>  <SCORE.INTER.norm>
-0.503424

>  <SCORE.INTRA>
56.359

>  <SCORE.INTRA.DIHEDRAL>
13.7922

>  <SCORE.INTRA.DIHEDRAL.0>
22.4324

>  <SCORE.INTRA.POLAR>
1.44776

>  <SCORE.INTRA.POLAR.0>
-1.83749

>  <SCORE.INTRA.REPUL>
0

>  <SCORE.INTRA.REPUL.0>
0

>  <SCORE.INTRA.SOLV>
9.67202

>  <SCORE.INTRA.SOLV.lig_0>
-160.638

>  <SCORE.INTRA.VDW>
39.7044

>  <SCORE.INTRA.VDW.0>
-7.61953

>  <SCORE.INTRA.norm>
1.34188

>  <SCORE.RESTR>
3.34251

>  <SCORE.RESTR.CAVITY>
3.34251

>  <SCORE.RESTR.norm>
0.0795836

>  <SCORE.SYSTEM>
0

>  <SCORE.SYSTEM.CONST>
0

>  <SCORE.SYSTEM.DIHEDRAL>
0

>  <SCORE.SYSTEM.SOLV>
0

>  <SCORE.SYSTEM.norm>
0

>  <SCORE.heavy>
42

>  <SCORE.norm>
0.918039

>  <RMSD>
9.941

$$$$
1NEM.B
 OpenBabel11021811403D
libRbt.so/2013.1/901 2013/11/27
 42 45  0  0  0  0  0  0  0  0999 V2000
    3.2238   -2.0948    3.3464 O   0  0  0  0  0  0  0  0  0  0  0  0
    3.7061   -0.7598    3.1813 C   0  0  0  0  0  0  0  0  0  0  0  0
    3.1464    0.2112    4.2199 C   0  0  1  0  0  0  0  0  0  0  0  0
    3.3286   -0.3002    5.5370 O   0  0  0  0  0  0  0  0  0  0  0  0
    3.8484    1.5588    4.2716 C   0  0  1  0  0  0  0  0  0  0  0  0
    3.4665    2.2819    3.0991 O   0  0  0  0  0  0  0  0  0  0  0  0
    3.2928    2.0652    5.5895 C   0  0  1  0  0  0  0  0  0  0  0  0
    1.9006    2.3862    5.5014 O   0  0  0  0  0  0  0  0  0  0  0  0
    3.4909    0.8000    6.4325 C   0  0  2  0  0  0  0  0  0  0  0  0
    4.0320    1.8498    1.8946 C   0  0  2  0  0  0  0  0  0  0  0  0
    5.2408    2.7333    1.5574 C   0  0  2  0  0  0  0  0  0  0  0  0
    4.8467    4.1667    1.5778 N   0  3  0  0  0  0  0  0  0  0  0  0
    5.8500    2.3329    0.2098 C   0  0  1  0  0  0  0  0  0  0  0  0
    6.4948    1.0721    0.3329 O   0  0  0  0  0  0  0  0  0  0  0  0
    4.7774    2.2571   -0.8811 C   0  0  2  0  0  0  0  0  0  0  0  0
    4.2815    3.5565   -1.1774 O   0  0  0  0  0  0  0  0  0  0  0  0
    3.6356    1.3574   -0.4167 C   0  0  1  0  0  0  0  0  0  0  0  0
    3.0977    1.8569    0.8231 O   0  0  0  0  0  0  0  0  0  0  0  0
    2.4980    1.2677   -1.4187 C   0  0  0  0  0  0  0  0  0  0  0  0
    2.6437    0.1005   -2.3167 N   0  3  0  0  0  0  0  0  0  0  0  0
    8.2431   -0.4401    6.4422 C   0  0  0  0  0  0  0  0  0  0  0  0
    7.4469    3.1158    7.1121 C   0  0  2  0  0  0  0  0  0  0  0  0
    8.3825    3.8167    6.1301 C   0  0  2  0  0  0  0  0  0  0  0  0
    7.9225    5.2044    5.8844 N   0  3  0  0  0  0  0  0  0  0  0  0
    8.4225    3.0576    4.8105 C   0  0  1  0  0  0  0  0  0  0  0  0
    9.3535    3.6744    3.9345 O   0  0  0  0  0  0  0  0  0  0  0  0
    8.8242    1.6070    5.0674 C   0  0  2  0  0  0  0  0  0  0  0  0
    8.7967    0.8743    3.8493 O   0  0  0  0  0  0  0  0  0  0  0  0
    7.3158   -1.0101    7.4463 N   0  3  0  0  0  0  0  0  0  0  0  0
    7.8551    0.9797    6.0677 C   0  0  2  0  0  0  0  0  0  0  0  0
    7.8283    1.7535    7.2843 O   0  0  0  0  0  0  0  0  0  0  0  0
    4.3693    2.1163   10.3753 C   0  0  2  0  0  0  0  0  0  0  0  0
    3.3466    1.8465   11.4120 N   0  3  0  0  0  0  0  0  0  0  0  0
    4.3079    3.5793    9.9512 C   0  0  0  0  0  0  0  0  0  0  0  0
    5.3530    3.8709    8.8834 C   0  0  2  0  0  0  0  0  0  0  0  0
    5.2435    5.2778    8.5246 N   0  3  0  0  0  0  0  0  0  0  0  0
    5.1134    2.9786    7.6677 C   0  0  1  0  0  0  0  0  0  0  0  0
    6.1231    3.2406    6.6736 O   0  0  0  0  0  0  0  0  0  0  0  0
    5.1589    1.4961    8.0630 C   0  0  2  0  0  0  0  0  0  0  0  0
    4.8266    0.6869    6.9187 O   0  0  0  0  0  0  0  0  0  0  0  0
    4.1668    1.1854    9.1809 C   0  0  1  0  0  0  0  0  0  0  0  0
    4.3301   -0.1634    9.5989 O   0  0  0  0  0  0  0  0  0  0  0  0
  1  2  1  0  0  0  0
  3  2  1  6  0  0  0
  3  5  1  0  0  0  0
  3  4  1  0  0  0  0
  4  9  1  0  0  0  0
  5  7  1  0  0  0  0
  5  6  1  6  0  0  0
  7  9  1  0  0  0  0
  7  8  1  6  0  0  0
  9 40  1  6  0  0  0
 10  6  1  1  0  0  0
 10 11  1  0  0  0  0
 10 18  1  0  0  0  0
 11 13  1  0  0  0  0
 11 12  1  6  0  0  0
 13 15  1  0  0  0  0
 13 14  1  1  0  0  0
 15 17  1  0  0  0  0
 15 16  1  1  0  0  0
 17 19  1  6  0  0  0
 17 18  1  0  0  0  0
 19 20  1  0  0  0  0
 21 29  1  0  0  0  0
 22 23  1  0  0  0  0
 22 31  1  0  0  0  0
 22 38  1  6  0  0  0
 23 25  1  0  0  0  0
 23 24  1  6  0  0  0
 25 27  1  0  0  0  0
 25 26  1  6  0  0  0
 27 30  1  0  0  0  0
 27 28  1  6  0  0  0
 30 21  1  1  0  0  0
 30 31  1  0  0  0  0
 32 34  1  0  0  0  0
 32 41  1  0  0  0  0
 32 33  1  1  0  0  0
 34 35  1  0  0  0  0
 35 37  1  0  0  0  0
 35 36  1  6  0  0  0
 37 39  1  0  0  0  0
 37 38  1  6  0  0  0
 39 41  1  0  0  0  0
 39 40  1  6  0  0  0
 41 42  1  1  0  0  0
M  CHG  6  12   1  20   1  24   1  29   1  33   1  36   1
M  END
>  <CHROM.1>
-171.70850318,51.36915053,-73.18753850,-97.82311623,-62.44559909,-166.63395886
160.63763674,-174.29633733,73.76096468,93.99435382,66.05159617,178.08151315
136.85447320,-162.73414174,177.32864319,57.29480091,54.46388500,67.24694061
89.14701826,54.93985252,-66.41169483,170.80975401,5.22300077,1.83952755,4.79375555
1.74628129,-0.45475551,-1.55626282

>  <Name>
1NEM.B

>  <RI>
0

>  <Rbt.Current_Directory>
/home/itssahil/PROJECTS/Mol_Feturizer/New_Systems/rnas/1nem

>  <Rbt.Executable>
rbdock ($Id: //depot/dev/client3/rdock/2013.1/src/exe/rbdock.cxx#4 $)

>  <Rbt.Library>
libRbt.so (2013.1, Build901 2013/11/27)

>  <Rbt.Parameter_File>
/export/apps/rDock/src/rDock_2013.1_src/data/scripts/dock_solv.prm

>  <Rbt.Receptor>
prm/pocket_docking_6.prm

>  <SCORE>
-27.4657

>  <SCORE.INTER>
-28.7927

>  <SCORE.INTER.CONST>
1

>  <SCORE.INTER.POLAR>
-5.45211

>  <SCORE.INTER.ROT>
9

>  <SCORE.INTER.SOLV>
21.0791

>  <SCORE.INTER.VDW>
-17.6478

>  <SCORE.INTER.norm>
-0.685541

>  <SCORE.INTRA>
1.32705

>  <SCORE.INTRA.DIHEDRAL>
-1.99043

>  <SCORE.INTRA.DIHEDRAL.0>
22.4324

>  <SCORE.INTRA.POLAR>
-0.0231193

>  <SCORE.INTRA.POLAR.0>
-1.83749

>  <SCORE.INTRA.REPUL>
0.00224598

>  <SCORE.INTRA.REPUL.0>
0

>  <SCORE.INTRA.SOLV>
-4.51209

>  <SCORE.INTRA.SOLV.lig_0>
-160.638

>  <SCORE.INTRA.VDW>
4.64569

>  <SCORE.INTRA.VDW.0>
-7.61953

>  <SCORE.INTRA.norm>
0.0315965

>  <SCORE.RESTR>
0

>  <SCORE.RESTR.CAVITY>
0

>  <SCORE.RESTR.norm>
0

>  <SCORE.SYSTEM>
0

>  <SCORE.SYSTEM.CONST>
0

>  <SCORE.SYSTEM.DIHEDRAL>
0

>  <SCORE.SYSTEM.SOLV>
0

>  <SCORE.SYSTEM.norm>
0

>  <SCORE.heavy>
42

>  <SCORE.norm>
-0.653945

>  <RMSD>
9.951

$$$$
1NEM.B
 OpenBabel11021811403D
libRbt.so/2013.1/901 2013/11/27
 42 45  0  0  0  0  0  0  0  0999 V2000
   -7.3212   -1.1730    3.1808 O   0  0  0  0  0  0  0  0  0  0  0  0
   -7.9127   -1.9067    2.1066 C   0  0  0  0  0  0  0  0  0  0  0  0
   -6.9335   -2.8590    1.4218 C   0  0  1  0  0  0  0  0  0  0  0  0
   -5.7836   -2.1544    0.9626 O   0  0  0  0  0  0  0  0  0  0  0  0
   -6.3453   -3.9261    2.3312 C   0  0  1  0  0  0  0  0  0  0  0  0
   -7.3827   -4.8712    2.6032 O   0  0  0  0  0  0  0  0  0  0  0  0
   -5.2143   -4.4013    1.4386 C   0  0  1  0  0  0  0  0  0  0  0  0
   -5.6924   -5.1221    0.2980 O   0  0  0  0  0  0  0  0  0  0  0  0
   -4.6624   -3.0371    1.0081 C   0  0  2  0  0  0  0  0  0  0  0  0
   -7.5575   -5.8870    1.6572 C   0  0  2  0  0  0  0  0  0  0  0  0
   -8.5141   -5.3985    0.5610 C   0  0  2  0  0  0  0  0  0  0  0  0
   -9.7737   -4.8956    1.1699 N   0  3  0  0  0  0  0  0  0  0  0  0
   -8.7830   -6.5071   -0.4618 C   0  0  1  0  0  0  0  0  0  0  0  0
   -7.6147   -6.7333   -1.2393 O   0  0  0  0  0  0  0  0  0  0  0  0
   -9.1997   -7.8085    0.2301 C   0  0  2  0  0  0  0  0  0  0  0  0
  -10.4837   -7.6631    0.8238 O   0  0  0  0  0  0  0  0  0  0  0  0
   -8.1715   -8.1749    1.2966 C   0  0  1  0  0  0  0  0  0  0  0  0
   -8.0409   -7.0915    2.2373 O   0  0  0  0  0  0  0  0  0  0  0  0
   -8.5342   -9.4285    2.0730 C   0  0  0  0  0  0  0  0  0  0  0  0
   -8.0308   -9.3820    3.4637 N   0  3  0  0  0  0  0  0  0  0  0  0
    2.7467   -0.1839    1.6542 C   0  0  0  0  0  0  0  0  0  0  0  0
    0.1052   -2.5667    0.6191 C   0  0  2  0  0  0  0  0  0  0  0  0
    0.6804   -3.8846    1.1323 C   0  0  2  0  0  0  0  0  0  0  0  0
   -0.3916   -4.9019    1.2480 N   0  3  0  0  0  0  0  0  0  0  0  0
    1.3294   -3.6788    2.4945 C   0  0  1  0  0  0  0  0  0  0  0  0
    1.9275   -4.8918    2.9250 O   0  0  0  0  0  0  0  0  0  0  0  0
    2.3840   -2.5787    2.3970 C   0  0  2  0  0  0  0  0  0  0  0  0
    2.9461   -2.3323    3.6795 O   0  0  0  0  0  0  0  0  0  0  0  0
    3.1011    0.4748    2.9322 N   0  3  0  0  0  0  0  0  0  0  0  0
    1.7392   -1.3010    1.8633 C   0  0  2  0  0  0  0  0  0  0  0  0
    1.1104   -1.5569    0.5909 O   0  0  0  0  0  0  0  0  0  0  0  0
   -3.6650    0.9888    0.5231 C   0  0  2  0  0  0  0  0  0  0  0  0
   -4.7018    1.7933   -0.1633 N   0  3  0  0  0  0  0  0  0  0  0  0
   -2.4937    0.7351   -0.4192 C   0  0  0  0  0  0  0  0  0  0  0  0
   -1.4204   -0.0933    0.2727 C   0  0  2  0  0  0  0  0  0  0  0  0
   -0.3345   -0.2979   -0.6756 N   0  3  0  0  0  0  0  0  0  0  0  0
   -2.0080   -1.4283    0.7241 C   0  0  1  0  0  0  0  0  0  0  0  0
   -0.9936   -2.1944    1.4027 O   0  0  0  0  0  0  0  0  0  0  0  0
   -3.1981   -1.2080    1.6681 C   0  0  2  0  0  0  0  0  0  0  0  0
   -3.7927   -2.4796    1.9910 O   0  0  0  0  0  0  0  0  0  0  0  0
   -4.2641   -0.3236    1.0262 C   0  0  1  0  0  0  0  0  0  0  0  0
   -5.2843   -0.0449    1.9759 O   0  0  0  0  0  0  0  0  0  0  0  0
  1  2  1  0  0  0  0
  3  2  1  1  0  0  0
  3  5  1  0  0  0  0
  3  4  1  0  0  0  0
  4  9  1  0  0  0  0
  5  7  1  0  0  0  0
  5  6  1  6  0  0  0
  7  9  1  0  0  0  0
  7  8  1  6  0  0  0
  9 40  1  1  0  0  0
 10  6  1  1  0  0  0
 10 11  1  0  0  0  0
 10 18  1  0  0  0  0
 11 13  1  0  0  0  0
 11 12  1  1  0  0  0
 13 15  1  0  0  0  0
 13 14  1  1  0  0  0
 15 17  1  0  0  0  0
 15 16  1  1  0  0  0
 17 19  1  1  0  0  0
 17 18  1  0  0  0  0
 19 20  1  0  0  0  0
 21 29  1  0  0  0  0
 22 23  1  0  0  0  0
 22 31  1  0  0  0  0
 22 38  1  1  0  0  0
 23 25  1  0  0  0  0
 23 24  1  1  0  0  0
 25 27  1  0  0  0  0
 25 26  1  6  0  0  0
 27 30  1  0  0  0  0
 27 28  1  1  0  0  0
 30 21  1  6  0  0  0
 30 31  1  0  0  0  0
 32 34  1  0  0  0  0
 32 41  1  0  0  0  0
 32 33  1  6  0  0  0
 34 35  1  0  0  0  0
 35 37  1  0  0  0  0
 35 36  1  6  0  0  0
 37 39  1  0  0  0  0
 37 38  1  1  0  0  0
 39 41  1  0  0  0  0
 39 40  1  6  0  0  0
 41 42  1  1  0  0  0
M  CHG  6  12   1  20   1  24   1  29   1  33   1  36   1
M  END
>  <CHROM.1>
69.63477060,-55.77059954,85.00869061,-87.30889184,82.68051991,-66.63627821
-149.66096194,43.18642946,-168.98209053,-149.06357182,164.34846924,-78.50613462
85.51585057,-150.18497546,-161.71998740,-62.97077289,64.85087387,75.43249536
33.56297057,-63.61114604,-79.53540779,-46.23951596,-3.96904903,-3.35005087
1.38200143,2.65070581,0.12187658,2.98025353

>  <Name>
1NEM.B

>  <RI>
0

>  <Rbt.Current_Directory>
/home/itssahil/PROJECTS/Mol_Feturizer/New_Systems/rnas/1nem

>  <Rbt.Executable>
rbdock ($Id: //depot/dev/client3/rdock/2013.1/src/exe/rbdock.cxx#4 $)

>  <Rbt.Library>
libRbt.so (2013.1, Build901 2013/11/27)

>  <Rbt.Parameter_File>
/export/apps/rDock/src/rDock_2013.1_src/data/scripts/dock_solv.prm

>  <Rbt.Receptor>
prm/blind_docking_20.prm

>  <SCORE>
-26.4694

>  <SCORE.INTER>
-52.9955

>  <SCORE.INTER.CONST>
1

>  <SCORE.INTER.POLAR>
-9.00079

>  <SCORE.INTER.ROT>
9

>  <SCORE.INTER.SOLV>
45.8276

>  <SCORE.INTER.VDW>
-30.2035

>  <SCORE.INTER.norm>
-1.2618

>  <SCORE.INTRA>
23.4473

>  <SCORE.INTRA.DIHEDRAL>
5.49405

>  <SCORE.INTRA.DIHEDRAL.0>
22.4324

>  <SCORE.INTRA.POLAR>
-0.328793

>  <SCORE.INTRA.POLAR.0>
-1.83749

>  <SCORE.INTRA.REPUL>
0

>  <SCORE.INTRA.REPUL.0>
0

>  <SCORE.INTRA.SOLV>
2.11463

>  <SCORE.INTRA.SOLV.lig_0>
-160.638

>  <SCORE.INTRA.VDW>
20.7608

>  <SCORE.INTRA.VDW.0>
-7.61953

>  <SCORE.INTRA.norm>
0.558268

>  <SCORE.RESTR>
3.07887

>  <SCORE.RESTR.CAVITY>
3.07887

>  <SCORE.RESTR.norm>
0.0733065

>  <SCORE.SYSTEM>
0

>  <SCORE.SYSTEM.CONST>
0

>  <SCORE.SYSTEM.DIHEDRAL>
0

>  <SCORE.SYSTEM.SOLV>
0

>  <SCORE.SYSTEM.norm>
0

>  <SCORE.heavy>
42

>  <SCORE.norm>
-0.630223

>  <RMSD>
9.984

$$$$
1NEM.B
 OpenBabel11021811403D
libRbt.so/2013.1/901 2013/11/27
 42 45  0  0  0  0  0  0  0  0999 V2000
   -5.7858   -8.4321    4.5585 O   0  0  0  0  0  0  0  0  0  0  0  0
   -4.6488   -7.6188    4.8552 C   0  0  0  0  0  0  0  0  0  0  0  0
   -5.0195   -6.1812    5.2167 C   0  0  1  0  0  0  0  0  0  0  0  0
   -3.8547   -5.3644    5.2911 O   0  0  0  0  0  0  0  0  0  0  0  0
   -5.8770   -5.4682    4.1833 C   0  0  1  0  0  0  0  0  0  0  0  0
   -7.1875   -6.0343    4.2552 O   0  0  0  0  0  0  0  0  0  0  0  0
   -5.7256   -4.0461    4.6899 C   0  0  1  0  0  0  0  0  0  0  0  0
   -6.4084   -3.8390    5.9309 O   0  0  0  0  0  0  0  0  0  0  0  0
   -4.2087   -4.0338    4.9132 C   0  0  2  0  0  0  0  0  0  0  0  0
   -8.0185   -5.8123    3.1518 C   0  0  2  0  0  0  0  0  0  0  0  0
   -9.0938   -6.9061    3.0998 C   0  0  2  0  0  0  0  0  0  0  0  0
   -8.4574   -8.2493    3.1358 N   0  3  0  0  0  0  0  0  0  0  0  0
   -9.9862   -6.7354    1.8662 C   0  0  1  0  0  0  0  0  0  0  0  0
  -10.8107   -5.5889    2.0281 O   0  0  0  0  0  0  0  0  0  0  0  0
   -9.1473   -6.5893    0.5929 C   0  0  2  0  0  0  0  0  0  0  0  0
   -8.4902   -7.8137    0.2911 O   0  0  0  0  0  0  0  0  0  0  0  0
   -8.1179   -5.4785    0.7811 C   0  0  1  0  0  0  0  0  0  0  0  0
   -7.2958   -5.7680    1.9284 O   0  0  0  0  0  0  0  0  0  0  0  0
   -7.2032   -5.3001   -0.4179 C   0  0  0  0  0  0  0  0  0  0  0  0
   -6.4864   -4.0060   -0.3780 N   0  3  0  0  0  0  0  0  0  0  0  0
    2.4822   -0.7408    1.9053 C   0  0  0  0  0  0  0  0  0  0  0  0
   -0.3283   -3.0355    1.1551 C   0  0  2  0  0  0  0  0  0  0  0  0
    0.3866   -4.3846    1.1511 C   0  0  2  0  0  0  0  0  0  0  0  0
   -0.5912   -5.4841    1.3312 N   0  3  0  0  0  0  0  0  0  0  0  0
    1.4159   -4.4364    2.2722 C   0  0  1  0  0  0  0  0  0  0  0  0
    2.1267   -5.6633    2.2096 O   0  0  0  0  0  0  0  0  0  0  0  0
    2.3820   -3.2619    2.1336 C   0  0  2  0  0  0  0  0  0  0  0  0
    3.3040   -3.2635    3.2159 O   0  0  0  0  0  0  0  0  0  0  0  0
    3.2963   -0.8830    0.6765 N   0  3  0  0  0  0  0  0  0  0  0  0
    1.5949   -1.9528    2.1296 C   0  0  2  0  0  0  0  0  0  0  0  0
    0.6125   -1.9681    1.0739 O   0  0  0  0  0  0  0  0  0  0  0  0
   -4.4184   -0.2693    2.7304 C   0  0  2  0  0  0  0  0  0  0  0  0
   -5.7393    0.3672    2.5220 N   0  3  0  0  0  0  0  0  0  0  0  0
   -3.6110   -0.2291    1.4379 C   0  0  0  0  0  0  0  0  0  0  0  0
   -2.2505   -0.8825    1.6367 C   0  0  2  0  0  0  0  0  0  0  0  0
   -1.5321   -0.8102    0.3723 N   0  3  0  0  0  0  0  0  0  0  0  0
   -2.4327   -2.3330    2.0773 C   0  0  1  0  0  0  0  0  0  0  0  0
   -1.1413   -2.9357    2.2905 O   0  0  0  0  0  0  0  0  0  0  0  0
   -3.2518   -2.4096    3.3733 C   0  0  2  0  0  0  0  0  0  0  0  0
   -3.4938   -3.7905    3.7037 O   0  0  0  0  0  0  0  0  0  0  0  0
   -4.5972   -1.7033    3.2262 C   0  0  1  0  0  0  0  0  0  0  0  0
   -5.2660   -1.6907    4.4804 O   0  0  0  0  0  0  0  0  0  0  0  0
  1  2  1  0  0  0  0
  3  2  1  6  0  0  0
  3  5  1  0  0  0  0
  3  4  1  0  0  0  0
  4  9  1  0  0  0  0
  5  7  1  0  0  0  0
  5  6  1  1  0  0  0
  7  9  1  0  0  0  0
  7  8  1  1  0  0  0
  9 40  1  6  0  0  0
 10  6  1  1  0  0  0
 10 11  1  0  0  0  0
 10 18  1  0  0  0  0
 11 13  1  0  0  0  0
 11 12  1  6  0  0  0
 13 15  1  0  0  0  0
 13 14  1  1  0  0  0
 15 17  1  0  0  0  0
 15 16  1  1  0  0  0
 17 19  1  6  0  0  0
 17 18  1  0  0  0  0
 19 20  1  0  0  0  0
 21 29  1  0  0  0  0
 22 23  1  0  0  0  0
 22 31  1  0  0  0  0
 22 38  1  1  0  0  0
 23 25  1  0  0  0  0
 23 24  1  1  0  0  0
 25 27  1  0  0  0  0
 25 26  1  6  0  0  0
 27 30  1  0  0  0  0
 27 28  1  1  0  0  0
 30 21  1  6  0  0  0
 30 31  1  0  0  0  0
 32 34  1  0  0  0  0
 32 41  1  0  0  0  0
 32 33  1  6  0  0  0
 34 35  1  0  0  0  0
 35 37  1  0  0  0  0
 35 36  1  6  0  0  0
 37 39  1  0  0  0  0
 37 38  1  1  0  0  0
 39 41  1  0  0  0  0
 39 40  1  6  0  0  0
 41 42  1  1  0  0  0
M  CHG  6  12   1  20   1  24   1  29   1  33   1  36   1
M  END
>  <CHROM.1>
-62.98661478,-170.62736921,-161.90674780,156.59669019,74.47577634,-157.08882868
162.86696419,75.54082929,-178.27203949,163.95317106,-139.93950878,54.07635214
63.14030578,-139.24281512,103.50542965,-86.20305308,-55.78994494,-155.17210514
41.87303058,-63.56552097,177.96224660,-32.36593229,-3.87100604,-4.09011390
2.54420177,-2.74274721,-0.03755947,-0.28541101

>  <Name>
1NEM.B

>  <RI>
0

>  <Rbt.Current_Directory>
/home/itssahil/PROJECTS/Mol_Feturizer/New_Systems/rnas/1nem

>  <Rbt.Executable>
rbdock ($Id: //depot/dev/client3/rdock/2013.1/src/exe/rbdock.cxx#4 $)

>  <Rbt.Library>
libRbt.so (2013.1, Build901 2013/11/27)

>  <Rbt.Parameter_File>
/export/apps/rDock/src/rDock_2013.1_src/data/scripts/dock_solv.prm

>  <Rbt.Receptor>
prm/blind_docking_100.prm

>  <SCORE>
-44.2806

>  <SCORE.INTER>
-58.7395

>  <SCORE.INTER.CONST>
1

>  <SCORE.INTER.POLAR>
-7.75356

>  <SCORE.INTER.ROT>
9

>  <SCORE.INTER.SOLV>
41.8528

>  <SCORE.INTER.VDW>
-36.8654

>  <SCORE.INTER.norm>
-1.39856

>  <SCORE.INTRA>
13.5792

>  <SCORE.INTRA.DIHEDRAL>
8.01139

>  <SCORE.INTRA.DIHEDRAL.0>
22.4324

>  <SCORE.INTRA.POLAR>
-1.26686

>  <SCORE.INTRA.POLAR.0>
-1.83749

>  <SCORE.INTRA.REPUL>
0

>  <SCORE.INTRA.REPUL.0>
0

>  <SCORE.INTRA.SOLV>
-0.556271

>  <SCORE.INTRA.SOLV.lig_0>
-160.638

>  <SCORE.INTRA.VDW>
14.1589

>  <SCORE.INTRA.VDW.0>
-7.61953

>  <SCORE.INTRA.norm>
0.323314

>  <SCORE.RESTR>
0.879749

>  <SCORE.RESTR.CAVITY>
0.879749

>  <SCORE.RESTR.norm>
0.0209464

>  <SCORE.SYSTEM>
0

>  <SCORE.SYSTEM.CONST>
0

>  <SCORE.SYSTEM.DIHEDRAL>
0

>  <SCORE.SYSTEM.SOLV>
0

>  <SCORE.SYSTEM.norm>
0

>  <SCORE.heavy>
42

>  <SCORE.norm>
-1.0543

>  <RMSD>
9.992

$$$$
1NEM.B
 OpenBabel11021811403D
libRbt.so/2013.1/901 2013/11/27
 42 45  0  0  0  0  0  0  0  0999 V2000
   -9.0707   -3.3683    0.3537 O   0  0  0  0  0  0  0  0  0  0  0  0
   -8.4637   -4.4846   -0.3001 C   0  0  0  0  0  0  0  0  0  0  0  0
   -6.9518   -4.5521   -0.0892 C   0  0  1  0  0  0  0  0  0  0  0  0
   -6.3068   -3.4439   -0.7100 O   0  0  0  0  0  0  0  0  0  0  0  0
   -6.5081   -4.4429    1.3609 C   0  0  1  0  0  0  0  0  0  0  0  0
   -6.8525   -5.6721    2.0041 O   0  0  0  0  0  0  0  0  0  0  0  0
   -5.0293   -4.1872    1.1378 C   0  0  1  0  0  0  0  0  0  0  0  0
   -4.3502   -5.3441    0.6384 O   0  0  0  0  0  0  0  0  0  0  0  0
   -5.1355   -3.1220    0.0402 C   0  0  2  0  0  0  0  0  0  0  0  0
   -8.1710   -6.1092    1.8373 C   0  0  2  0  0  0  0  0  0  0  0  0
   -8.7383   -6.5368    3.1977 C   0  0  2  0  0  0  0  0  0  0  0  0
   -7.8339   -7.5270    3.8394 N   0  3  0  0  0  0  0  0  0  0  0  0
  -10.1614   -7.0841    3.0475 C   0  0  1  0  0  0  0  0  0  0  0  0
  -11.0514   -6.0209    2.7341 O   0  0  0  0  0  0  0  0  0  0  0  0
  -10.2302   -8.1518    1.9513 C   0  0  2  0  0  0  0  0  0  0  0  0
   -9.5263   -9.3197    2.3545 O   0  0  0  0  0  0  0  0  0  0  0  0
   -9.6301   -7.6017    0.6605 C   0  0  1  0  0  0  0  0  0  0  0  0
   -8.2756   -7.1724    0.8995 O   0  0  0  0  0  0  0  0  0  0  0  0
   -9.6079   -8.6158   -0.4696 C   0  0  0  0  0  0  0  0  0  0  0  0
   -8.8067   -8.1429   -1.6204 N   0  3  0  0  0  0  0  0  0  0  0  0
   -6.4604   -1.3373    3.8986 C   0  0  0  0  0  0  0  0  0  0  0  0
   -2.9126   -2.0735    3.1250 C   0  0  2  0  0  0  0  0  0  0  0  0
   -2.5837   -3.1024    4.2041 C   0  0  2  0  0  0  0  0  0  0  0  0
   -1.3806   -3.8797    3.8223 N   0  3  0  0  0  0  0  0  0  0  0  0
   -3.7576   -4.0529    4.3981 C   0  0  1  0  0  0  0  0  0  0  0  0
   -3.4703   -4.9545    5.4559 O   0  0  0  0  0  0  0  0  0  0  0  0
   -5.0169   -3.2508    4.7188 C   0  0  2  0  0  0  0  0  0  0  0  0
   -6.1317   -4.1258    4.8332 O   0  0  0  0  0  0  0  0  0  0  0  0
   -7.4483   -1.3674    2.7959 N   0  3  0  0  0  0  0  0  0  0  0  0
   -5.2711   -2.2355    3.6063 C   0  0  2  0  0  0  0  0  0  0  0  0
   -4.1194   -1.3837    3.4396 O   0  0  0  0  0  0  0  0  0  0  0  0
   -2.9601    0.8938   -0.3829 C   0  0  2  0  0  0  0  0  0  0  0  0
   -2.9414    1.8155   -1.5420 N   0  3  0  0  0  0  0  0  0  0  0  0
   -1.7128    0.0172   -0.3941 C   0  0  0  0  0  0  0  0  0  0  0  0
   -1.7195   -0.9377    0.7914 C   0  0  2  0  0  0  0  0  0  0  0  0
   -0.5072   -1.7413    0.7236 N   0  3  0  0  0  0  0  0  0  0  0  0
   -2.9629   -1.8222    0.7361 C   0  0  1  0  0  0  0  0  0  0  0  0
   -2.9762   -2.7033    1.8763 O   0  0  0  0  0  0  0  0  0  0  0  0
   -4.2387   -0.9686    0.7359 C   0  0  2  0  0  0  0  0  0  0  0  0
   -5.3858   -1.8253    0.5780 O   0  0  0  0  0  0  0  0  0  0  0  0
   -4.2313    0.0466   -0.4042 C   0  0  1  0  0  0  0  0  0  0  0  0
   -5.3669    0.8941   -0.2922 O   0  0  0  0  0  0  0  0  0  0  0  0
  1  2  1  0  0  0  0
  3  2  1  1  0  0  0
  3  5  1  0  0  0  0
  3  4  1  0  0  0  0
  4  9  1  0  0  0  0
  5  7  1  0  0  0  0
  5  6  1  1  0  0  0
  7  9  1  0  0  0  0
  7  8  1  6  0  0  0
  9 40  1  1  0  0  0
 10  6  1  1  0  0  0
 10 11  1  0  0  0  0
 10 18  1  0  0  0  0
 11 13  1  0  0  0  0
 11 12  1  6  0  0  0
 13 15  1  0  0  0  0
 13 14  1  6  0  0  0
 15 17  1  0  0  0  0
 15 16  1  1  0  0  0
 17 19  1  6  0  0  0
 17 18  1  0  0  0  0
 19 20  1  0  0  0  0
 21 29  1  0  0  0  0
 22 23  1  0  0  0  0
 22 31  1  0  0  0  0
 22 38  1  6  0  0  0
 23 25  1  0  0  0  0
 23 24  1  6  0  0  0
 25 27  1  0  0  0  0
 25 26  1  1  0  0  0
 27 30  1  0  0  0  0
 27 28  1  6  0  0  0
 30 21  1  1  0  0  0
 30 31  1  0  0  0  0
 32 34  1  0  0  0  0
 32 41  1  0  0  0  0
 32 33  1  6  0  0  0
 34 35  1  0  0  0  0
 35 37  1  0  0  0  0
 35 36  1  6  0  0  0
 37 39  1  0  0  0  0
 37 38  1  1  0  0  0
 39 41  1  0  0  0  0
 39 40  1  6  0  0  0
 41 42  1  1  0  0  0
M  CHG  6  12   1  20   1  24   1  29   1  33   1  36   1
M  END
>  <CHROM.1>
-56.15234164,-65.69020559,-50.69613291,-133.39174769,-166.55372061,-147.48317264
-137.71534710,-72.92254172,-74.84469888,-169.64869464,-40.26207001,-125.52027566
-21.57169322,-165.88876647,48.23116541,-47.43110994,52.86566644,-35.63289850
-38.40168738,56.22801432,-19.42902422,71.07975593,-5.82190530,-3.80768563
1.65682391,2.65122286,0.66330837,2.19631165

>  <Name>
1NEM.B

>  <RI>
0

>  <Rbt.Current_Directory>
/home/itssahil/PROJECTS/Mol_Feturizer/New_Systems/rnas/1nem

>  <Rbt.Executable>
rbdock ($Id: //depot/dev/client3/rdock/2013.1/src/exe/rbdock.cxx#4 $)

>  <Rbt.Library>
libRbt.so (2013.1, Build901 2013/11/27)

>  <Rbt.Parameter_File>
/export/apps/rDock/src/rDock_2013.1_src/data/scripts/dock_solv.prm

>  <Rbt.Receptor>
prm/blind_docking_100.prm

>  <SCORE>
-25.8155

>  <SCORE.INTER>
-46.4569

>  <SCORE.INTER.CONST>
1

>  <SCORE.INTER.POLAR>
-5.68616

>  <SCORE.INTER.ROT>
9

>  <SCORE.INTER.SOLV>
46.8577

>  <SCORE.INTER.VDW>
-37.2366

>  <SCORE.INTER.norm>
-1.10612

>  <SCORE.INTRA>
19.4447

>  <SCORE.INTRA.DIHEDRAL>
14.518

>  <SCORE.INTRA.DIHEDRAL.0>
22.4324

>  <SCORE.INTRA.POLAR>
0.652102

>  <SCORE.INTRA.POLAR.0>
-1.83749

>  <SCORE.INTRA.REPUL>
0.000818842

>  <SCORE.INTRA.REPUL.0>
0

>  <SCORE.INTRA.SOLV>
2.46949

>  <SCORE.INTRA.SOLV.lig_0>
-160.638

>  <SCORE.INTRA.VDW>
8.72969

>  <SCORE.INTRA.VDW.0>
-7.61953

>  <SCORE.INTRA.norm>
0.462968

>  <SCORE.RESTR>
1.19678

>  <SCORE.RESTR.CAVITY>
1.19678

>  <SCORE.RESTR.norm>
0.0284948

>  <SCORE.SYSTEM>
0

>  <SCORE.SYSTEM.CONST>
0

>  <SCORE.SYSTEM.DIHEDRAL>
0

>  <SCORE.SYSTEM.SOLV>
0

>  <SCORE.SYSTEM.norm>
0

>  <SCORE.heavy>
42

>  <SCORE.norm>
-0.614654

>  <RMSD>
9.992

$$$$
1NEM.B
 OpenBabel11021811403D
libRbt.so/2013.1/901 2013/11/27
 42 45  0  0  0  0  0  0  0  0999 V2000
   -5.6424   -7.4041    4.4885 O   0  0  0  0  0  0  0  0  0  0  0  0
   -4.9229   -6.5503    3.5966 C   0  0  0  0  0  0  0  0  0  0  0  0
   -5.2307   -5.0687    3.8080 C   0  0  1  0  0  0  0  0  0  0  0  0
   -4.0269   -4.3113    3.8920 O   0  0  0  0  0  0  0  0  0  0  0  0
   -5.9774   -4.4059    2.6614 C   0  0  1  0  0  0  0  0  0  0  0  0
   -7.3209   -4.8931    2.6916 O   0  0  0  0  0  0  0  0  0  0  0  0
   -5.7751   -2.9545    3.0542 C   0  0  1  0  0  0  0  0  0  0  0  0
   -6.5220   -2.6019    4.2233 O   0  0  0  0  0  0  0  0  0  0  0  0
   -4.2774   -3.0028    3.3787 C   0  0  2  0  0  0  0  0  0  0  0  0
   -7.5750   -6.0525    1.9510 C   0  0  2  0  0  0  0  0  0  0  0  0
   -8.6290   -5.7468    0.8781 C   0  0  2  0  0  0  0  0  0  0  0  0
   -9.8311   -5.1351    1.5033 N   0  3  0  0  0  0  0  0  0  0  0  0
   -8.9834   -7.0096    0.0862 C   0  0  1  0  0  0  0  0  0  0  0  0
   -7.8887   -7.3763   -0.7432 O   0  0  0  0  0  0  0  0  0  0  0  0
   -9.3295   -8.1708    1.0233 C   0  0  2  0  0  0  0  0  0  0  0  0
  -10.5555   -7.9137    1.6964 O   0  0  0  0  0  0  0  0  0  0  0  0
   -8.2075   -8.3620    2.0399 C   0  0  1  0  0  0  0  0  0  0  0  0
   -7.9982   -7.1364    2.7678 O   0  0  0  0  0  0  0  0  0  0  0  0
   -8.4925   -9.4623    3.0469 C   0  0  0  0  0  0  0  0  0  0  0  0
   -7.5353   -9.4401    4.1752 N   0  3  0  0  0  0  0  0  0  0  0  0
    3.0930   -0.4535    1.6348 C   0  0  0  0  0  0  0  0  0  0  0  0
    0.2617   -2.6331    0.6548 C   0  0  2  0  0  0  0  0  0  0  0  0
    0.7662   -3.9972    1.1193 C   0  0  2  0  0  0  0  0  0  0  0  0
   -0.3663   -4.9439    1.2559 N   0  3  0  0  0  0  0  0  0  0  0  0
    1.4775   -3.8651    2.4594 C   0  0  1  0  0  0  0  0  0  0  0  0
    2.0087   -5.1243    2.8424 O   0  0  0  0  0  0  0  0  0  0  0  0
    2.5989   -2.8351    2.3433 C   0  0  2  0  0  0  0  0  0  0  0  0
    3.2233   -2.6552    3.6079 O   0  0  0  0  0  0  0  0  0  0  0  0
    3.9587   -0.7970    0.4834 N   0  3  0  0  0  0  0  0  0  0  0  0
    2.0215   -1.5060    1.8603 C   0  0  2  0  0  0  0  0  0  0  0  0
    1.3304   -1.6914    0.6082 O   0  0  0  0  0  0  0  0  0  0  0  0
   -3.9637    0.4455    0.5532 C   0  0  2  0  0  0  0  0  0  0  0  0
   -5.1399    1.0302   -0.1310 N   0  3  0  0  0  0  0  0  0  0  0  0
   -2.7977    0.3302   -0.4220 C   0  0  0  0  0  0  0  0  0  0  0  0
   -1.5813   -0.2718    0.2675 C   0  0  2  0  0  0  0  0  0  0  0  0
   -0.5077   -0.3530   -0.7127 N   0  3  0  0  0  0  0  0  0  0  0  0
   -1.9275   -1.6557    0.8119 C   0  0  1  0  0  0  0  0  0  0  0  0
   -0.7800   -2.2066    1.4873 O   0  0  0  0  0  0  0  0  0  0  0  0
   -3.1066   -1.5762    1.7915 C   0  0  2  0  0  0  0  0  0  0  0  0
   -3.4741   -2.9062    2.2046 O   0  0  0  0  0  0  0  0  0  0  0  0
   -4.3232   -0.9149    1.1486 C   0  0  1  0  0  0  0  0  0  0  0  0
   -5.3442   -0.7501    2.1237 O   0  0  0  0  0  0  0  0  0  0  0  0
  1  2  1  0  0  0  0
  3  2  1  6  0  0  0
  3  5  1  0  0  0  0
  3  4  1  0  0  0  0
  4  9  1  0  0  0  0
  5  7  1  0  0  0  0
  5  6  1  1  0  0  0
  7  9  1  0  0  0  0
  7  8  1  1  0  0  0
  9 40  1  6  0  0  0
 10  6  1  1  0  0  0
 10 11  1  0  0  0  0
 10 18  1  0  0  0  0
 11 13  1  0  0  0  0
 11 12  1  1  0  0  0
 13 15  1  0  0  0  0
 13 14  1  1  0  0  0
 15 17  1  0  0  0  0
 15 16  1  1  0  0  0
 17 19  1  1  0  0  0
 17 18  1  0  0  0  0
 19 20  1  0  0  0  0
 21 29  1  0  0  0  0
 22 23  1  0  0  0  0
 22 31  1  0  0  0  0
 22 38  1  1  0  0  0
 23 25  1  0  0  0  0
 23 24  1  1  0  0  0
 25 27  1  0  0  0  0
 25 26  1  6  0  0  0
 27 30  1  0  0  0  0
 27 28  1  1  0  0  0
 30 21  1  6  0  0  0
 30 31  1  0  0  0  0
 32 34  1  0  0  0  0
 32 41  1  0  0  0  0
 32 33  1  6  0  0  0
 34 35  1  0  0  0  0
 35 37  1  0  0  0  0
 35 36  1  6  0  0  0
 37 39  1  0  0  0  0
 37 38  1  1  0  0  0
 39 41  1  0  0  0  0
 39 40  1  6  0  0  0
 41 42  1  1  0  0  0
M  CHG  6  12   1  20   1  24   1  29   1  33   1  36   1
M  END
>  <CHROM.1>
-167.83325001,131.27692561,-89.72360322,-119.50340900,-170.15786792,-155.79130413
-42.85044110,-51.51065351,-176.28354630,-168.16429906,-84.61769712,68.31064762
-63.17966548,-135.12495728,-40.93098747,63.05694264,-74.53879375,104.64868317
-73.18059585,-73.06378838,162.76424443,-53.82695410,-3.74959450,-3.88493048
1.87867424,-2.63412395,-0.11086147,-0.35521511

>  <Name>
1NEM.B

>  <RI>
0

>  <Rbt.Current_Directory>
/home/itssahil/PROJECTS/Mol_Feturizer/New_Systems/rnas/1nem

>  <Rbt.Executable>
rbdock ($Id: //depot/dev/client3/rdock/2013.1/src/exe/rbdock.cxx#4 $)

>  <Rbt.Library>
libRbt.so (2013.1, Build901 2013/11/27)

>  <Rbt.Parameter_File>
/export/apps/rDock/src/rDock_2013.1_src/data/scripts/dock_solv.prm

>  <Rbt.Receptor>
prm/blind_docking_100.prm

>  <SCORE>
-35.3346

>  <SCORE.INTER>
-51.2792

>  <SCORE.INTER.CONST>
1

>  <SCORE.INTER.POLAR>
-8.11159

>  <SCORE.INTER.ROT>
9

>  <SCORE.INTER.SOLV>
44.6377

>  <SCORE.INTER.VDW>
-31.6267

>  <SCORE.INTER.norm>
-1.22093

>  <SCORE.INTRA>
14.3011

>  <SCORE.INTRA.DIHEDRAL>
14.1473

>  <SCORE.INTRA.DIHEDRAL.0>
22.4324

>  <SCORE.INTRA.POLAR>
-0.394869

>  <SCORE.INTRA.POLAR.0>
-1.83749

>  <SCORE.INTRA.REPUL>
0

>  <SCORE.INTRA.REPUL.0>
0

>  <SCORE.INTRA.SOLV>
0.899462

>  <SCORE.INTRA.SOLV.lig_0>
-160.638

>  <SCORE.INTRA.VDW>
8.12024

>  <SCORE.INTRA.VDW.0>
-7.61953

>  <SCORE.INTRA.norm>
0.340502

>  <SCORE.RESTR>
1.64348

>  <SCORE.RESTR.CAVITY>
1.64348

>  <SCORE.RESTR.norm>
0.0391304

>  <SCORE.SYSTEM>
0

>  <SCORE.SYSTEM.CONST>
0

>  <SCORE.SYSTEM.DIHEDRAL>
0

>  <SCORE.SYSTEM.SOLV>
0

>  <SCORE.SYSTEM.norm>
0

>  <SCORE.heavy>
42

>  <SCORE.norm>
-0.8413

>  <RMSD>
10.013

$$$$
1NEM.B
 OpenBabel11021811403D
libRbt.so/2013.1/901 2013/11/27
 42 45  0  0  0  0  0  0  0  0999 V2000
    5.3386   -2.0667    3.9971 O   0  0  0  0  0  0  0  0  0  0  0  0
    3.9936   -1.5840    3.9927 C   0  0  0  0  0  0  0  0  0  0  0  0
    3.8235   -0.2799    4.7706 C   0  0  1  0  0  0  0  0  0  0  0  0
    4.3900   -0.3928    6.0729 O   0  0  0  0  0  0  0  0  0  0  0  0
    4.5554    0.9131    4.1769 C   0  0  1  0  0  0  0  0  0  0  0  0
    3.8526    1.2963    2.9926 O   0  0  0  0  0  0  0  0  0  0  0  0
    4.4596    1.8616    5.3572 C   0  0  1  0  0  0  0  0  0  0  0  0
    3.1226    2.3270    5.5692 O   0  0  0  0  0  0  0  0  0  0  0  0
    4.8649    0.8925    6.4741 C   0  0  2  0  0  0  0  0  0  0  0  0
    4.1761    0.5936    1.8269 C   0  0  2  0  0  0  0  0  0  0  0  0
    4.4768    1.5923    0.7011 C   0  0  2  0  0  0  0  0  0  0  0  0
    3.3496    2.5504    0.5542 N   0  3  0  0  0  0  0  0  0  0  0  0
    4.7727    0.8608   -0.6123 C   0  0  1  0  0  0  0  0  0  0  0  0
    6.0317    0.2072   -0.5218 O   0  0  0  0  0  0  0  0  0  0  0  0
    3.6821   -0.1666   -0.9306 C   0  0  2  0  0  0  0  0  0  0  0  0
    2.4621    0.4908   -1.2494 O   0  0  0  0  0  0  0  0  0  0  0  0
    3.4791   -1.0881    0.2688 C   0  0  1  0  0  0  0  0  0  0  0  0
    3.1477   -0.3049    1.4318 O   0  0  0  0  0  0  0  0  0  0  0  0
    2.3737   -2.1082    0.0602 C   0  0  0  0  0  0  0  0  0  0  0  0
    2.3868   -3.1578    1.1033 N   0  3  0  0  0  0  0  0  0  0  0  0
    8.0089    3.6842    0.9284 C   0  0  0  0  0  0  0  0  0  0  0  0
    7.2853    1.7615    4.0117 C   0  0  2  0  0  0  0  0  0  0  0  0
    8.0123    0.4513    3.7187 C   0  0  2  0  0  0  0  0  0  0  0  0
    8.2556   -0.2932    4.9773 N   0  3  0  0  0  0  0  0  0  0  0  0
    9.3430    0.7316    3.0333 C   0  0  1  0  0  0  0  0  0  0  0  0
    9.9728   -0.4951    2.6968 O   0  0  0  0  0  0  0  0  0  0  0  0
    9.1045    1.5624    1.7745 C   0  0  2  0  0  0  0  0  0  0  0  0
   10.3479    1.8871    1.1663 O   0  0  0  0  0  0  0  0  0  0  0  0
    7.6487    5.0690    1.3099 N   0  3  0  0  0  0  0  0  0  0  0  0
    8.3615    2.8449    2.1441 C   0  0  2  0  0  0  0  0  0  0  0  0
    7.1279    2.5263    2.8195 O   0  0  0  0  0  0  0  0  0  0  0  0
    6.8407    3.6328    8.9310 C   0  0  2  0  0  0  0  0  0  0  0  0
    6.0234    4.1408   10.0567 N   0  3  0  0  0  0  0  0  0  0  0  0
    6.9798    4.7094    7.8607 C   0  0  0  0  0  0  0  0  0  0  0  0
    7.8163    4.2001    6.6953 C   0  0  2  0  0  0  0  0  0  0  0  0
    7.9119    5.2710    5.7134 N   0  3  0  0  0  0  0  0  0  0  0  0
    7.1594    2.9623    6.0889 C   0  0  1  0  0  0  0  0  0  0  0  0
    7.9715    2.4701    5.0052 O   0  0  0  0  0  0  0  0  0  0  0  0
    6.9952    1.8605    7.1449 C   0  0  2  0  0  0  0  0  0  0  0  0
    6.2805    0.7504    6.5690 O   0  0  0  0  0  0  0  0  0  0  0  0
    6.2161    2.3614    8.3584 C   0  0  1  0  0  0  0  0  0  0  0  0
    6.1958    1.3519    9.3589 O   0  0  0  0  0  0  0  0  0  0  0  0
  1  2  1  0  0  0  0
  3  2  1  6  0  0  0
  3  5  1  0  0  0  0
  3  4  1  0  0  0  0
  4  9  1  0  0  0  0
  5  7  1  0  0  0  0
  5  6  1  6  0  0  0
  7  9  1  0  0  0  0
  7  8  1  1  0  0  0
  9 40  1  6  0  0  0
 10  6  1  1  0  0  0
 10 11  1  0  0  0  0
 10 18  1  0  0  0  0
 11 13  1  0  0  0  0
 11 12  1  6  0  0  0
 13 15  1  0  0  0  0
 13 14  1  1  0  0  0
 15 17  1  0  0  0  0
 15 16  1  1  0  0  0
 17 19  1  6  0  0  0
 17 18  1  0  0  0  0
 19 20  1  0  0  0  0
 21 29  1  0  0  0  0
 22 23  1  0  0  0  0
 22 31  1  0  0  0  0
 22 38  1  1  0  0  0
 23 25  1  0  0  0  0
 23 24  1  1  0  0  0
 25 27  1  0  0  0  0
 25 26  1  6  0  0  0
 27 30  1  0  0  0  0
 27 28  1  1  0  0  0
 30 21  1  6  0  0  0
 30 31  1  0  0  0  0
 32 34  1  0  0  0  0
 32 41  1  0  0  0  0
 32 33  1  1  0  0  0
 34 35  1  0  0  0  0
 35 37  1  0  0  0  0
 35 36  1  6  0  0  0
 37 39  1  0  0  0  0
 37 38  1  6  0  0  0
 39 41  1  0  0  0  0
 39 40  1  6  0  0  0
 41 42  1  1  0  0  0
M  CHG  6  12   1  20   1  24   1  29   1  33   1  36   1
M  END
>  <CHROM.1>
152.66385685,-50.95309554,-84.05378629,-129.62669678,55.78719649,-171.43092283
42.53271604,-175.08634143,176.38771801,167.99688514,90.26953271,-163.80206898
58.22948543,-131.29257929,-77.45672486,-175.18358972,65.24505720,-60.79620989
176.79786735,-153.19769928,-79.26321981,170.11156336,5.91297633,1.31730137
3.70864963,2.01287810,-0.57452001,-1.75072554

>  <Name>
1NEM.B

>  <RI>
0

>  <Rbt.Current_Directory>
/home/itssahil/PROJECTS/Mol_Feturizer/New_Systems/rnas/1nem

>  <Rbt.Executable>
rbdock ($Id: //depot/dev/client3/rdock/2013.1/src/exe/rbdock.cxx#4 $)

>  <Rbt.Library>
libRbt.so (2013.1, Build901 2013/11/27)

>  <Rbt.Parameter_File>
/export/apps/rDock/src/rDock_2013.1_src/data/scripts/dock_solv.prm

>  <Rbt.Receptor>
prm/pocket_docking_8.prm

>  <SCORE>
-25.2541

>  <SCORE.INTER>
-28.9146

>  <SCORE.INTER.CONST>
1

>  <SCORE.INTER.POLAR>
-4.72035

>  <SCORE.INTER.ROT>
9

>  <SCORE.INTER.SOLV>
17.8378

>  <SCORE.INTER.VDW>
-19.0878

>  <SCORE.INTER.norm>
-0.688442

>  <SCORE.INTRA>
3.66048

>  <SCORE.INTRA.DIHEDRAL>
8.11873

>  <SCORE.INTRA.DIHEDRAL.0>
22.4324

>  <SCORE.INTRA.POLAR>
-0.183064

>  <SCORE.INTRA.POLAR.0>
-1.83749

>  <SCORE.INTRA.REPUL>
0.00680218

>  <SCORE.INTRA.REPUL.0>
0

>  <SCORE.INTRA.SOLV>
-3.19294

>  <SCORE.INTRA.SOLV.lig_0>
-160.638

>  <SCORE.INTRA.VDW>
1.78599

>  <SCORE.INTRA.VDW.0>
-7.61953

>  <SCORE.INTRA.norm>
0.0871544

>  <SCORE.RESTR>
0

>  <SCORE.RESTR.CAVITY>
0

>  <SCORE.RESTR.norm>
0

>  <SCORE.SYSTEM>
0

>  <SCORE.SYSTEM.CONST>
0

>  <SCORE.SYSTEM.DIHEDRAL>
0

>  <SCORE.SYSTEM.SOLV>
0

>  <SCORE.SYSTEM.norm>
0

>  <SCORE.heavy>
42

>  <SCORE.norm>
-0.601287

>  <RMSD>
10.022

$$$$
1NEM.B
 OpenBabel11021811403D
libRbt.so/2013.1/901 2013/11/27
 42 45  0  0  0  0  0  0  0  0999 V2000
   -4.2282   -7.8595    3.7521 O   0  0  0  0  0  0  0  0  0  0  0  0
   -4.4752   -7.5088    5.1152 C   0  0  0  0  0  0  0  0  0  0  0  0
   -4.9609   -6.0699    5.2842 C   0  0  1  0  0  0  0  0  0  0  0  0
   -3.8666   -5.1594    5.2293 O   0  0  0  0  0  0  0  0  0  0  0  0
   -5.8783   -5.5758    4.1771 C   0  0  1  0  0  0  0  0  0  0  0  0
   -7.1378   -6.2305    4.3452 O   0  0  0  0  0  0  0  0  0  0  0  0
   -5.8417   -4.0904    4.4840 C   0  0  1  0  0  0  0  0  0  0  0  0
   -6.5339   -3.7718    5.6958 O   0  0  0  0  0  0  0  0  0  0  0  0
   -4.3300   -3.9256    4.6801 C   0  0  2  0  0  0  0  0  0  0  0  0
   -8.0908   -6.0039    3.3464 C   0  0  2  0  0  0  0  0  0  0  0  0
   -9.1699   -7.0927    3.4202 C   0  0  2  0  0  0  0  0  0  0  0  0
   -8.5401   -8.4389    3.3816 N   0  3  0  0  0  0  0  0  0  0  0  0
  -10.1994   -6.9171    2.2991 C   0  0  1  0  0  0  0  0  0  0  0  0
  -10.9940   -5.7669    2.5562 O   0  0  0  0  0  0  0  0  0  0  0  0
   -9.5141   -6.7742    0.9366 C   0  0  2  0  0  0  0  0  0  0  0  0
   -8.9025   -8.0016    0.5602 O   0  0  0  0  0  0  0  0  0  0  0  0
   -8.4645   -5.6684    1.0034 C   0  0  1  0  0  0  0  0  0  0  0  0
   -7.5156   -5.9624    2.0470 O   0  0  0  0  0  0  0  0  0  0  0  0
   -7.6951   -5.4936   -0.2941 C   0  0  0  0  0  0  0  0  0  0  0  0
   -6.9054   -4.2421   -0.3036 N   0  3  0  0  0  0  0  0  0  0  0  0
    2.3796   -0.7344    1.8650 C   0  0  0  0  0  0  0  0  0  0  0  0
   -0.3213   -3.1383    1.0566 C   0  0  2  0  0  0  0  0  0  0  0  0
    0.4104   -4.4684    1.2193 C   0  0  2  0  0  0  0  0  0  0  0  0
   -0.5636   -5.5713    1.3996 N   0  3  0  0  0  0  0  0  0  0  0  0
    1.3383   -4.4128    2.4255 C   0  0  1  0  0  0  0  0  0  0  0  0
    2.0693   -5.6258    2.5201 O   0  0  0  0  0  0  0  0  0  0  0  0
    2.2959   -3.2323    2.2795 C   0  0  2  0  0  0  0  0  0  0  0  0
    3.1196   -3.1319    3.4341 O   0  0  0  0  0  0  0  0  0  0  0  0
    3.2092   -0.9015    0.6498 N   0  3  0  0  0  0  0  0  0  0  0  0
    1.4935   -1.9442    2.1058 C   0  0  2  0  0  0  0  0  0  0  0  0
    0.6076   -2.0607    0.9738 O   0  0  0  0  0  0  0  0  0  0  0  0
   -4.6676   -0.4751    1.9736 C   0  0  2  0  0  0  0  0  0  0  0  0
   -5.9988    0.0502    1.5922 N   0  3  0  0  0  0  0  0  0  0  0  0
   -3.7623   -0.5392    0.7486 C   0  0  0  0  0  0  0  0  0  0  0  0
   -2.3901   -1.0799    1.1255 C   0  0  2  0  0  0  0  0  0  0  0  0
   -1.5774   -1.1145   -0.0822 N   0  3  0  0  0  0  0  0  0  0  0  0
   -2.5316   -2.4763    1.7268 C   0  0  1  0  0  0  0  0  0  0  0  0
   -1.2319   -2.9692    2.1065 O   0  0  0  0  0  0  0  0  0  0  0  0
   -3.4468   -2.4485    2.9587 C   0  0  2  0  0  0  0  0  0  0  0  0
   -3.6426   -3.7926    3.4380 O   0  0  0  0  0  0  0  0  0  0  0  0
   -4.8110   -1.8483    2.6276 C   0  0  1  0  0  0  0  0  0  0  0  0
   -5.5779   -1.7278    3.8184 O   0  0  0  0  0  0  0  0  0  0  0  0
  1  2  1  0  0  0  0
  3  2  1  6  0  0  0
  3  5  1  0  0  0  0
  3  4  1  0  0  0  0
  4  9  1  0  0  0  0
  5  7  1  0  0  0  0
  5  6  1  1  0  0  0
  7  9  1  0  0  0  0
  7  8  1  1  0  0  0
  9 40  1  6  0  0  0
 10  6  1  1  0  0  0
 10 11  1  0  0  0  0
 10 18  1  0  0  0  0
 11 13  1  0  0  0  0
 11 12  1  6  0  0  0
 13 15  1  0  0  0  0
 13 14  1  1  0  0  0
 15 17  1  0  0  0  0
 15 16  1  1  0  0  0
 17 19  1  6  0  0  0
 17 18  1  0  0  0  0
 19 20  1  0  0  0  0
 21 29  1  0  0  0  0
 22 23  1  0  0  0  0
 22 31  1  0  0  0  0
 22 38  1  1  0  0  0
 23 25  1  0  0  0  0
 23 24  1  1  0  0  0
 25 27  1  0  0  0  0
 25 26  1  6  0  0  0
 27 30  1  0  0  0  0
 27 28  1  1  0  0  0
 30 21  1  6  0  0  0
 30 31  1  0  0  0  0
 32 34  1  0  0  0  0
 32 41  1  0  0  0  0
 32 33  1  6  0  0  0
 34 35  1  0  0  0  0
 35 37  1  0  0  0  0
 35 36  1  6  0  0  0
 37 39  1  0  0  0  0
 37 38  1  1  0  0  0
 39 41  1  0  0  0  0
 39 40  1  6  0  0  0
 41 42  1  1  0  0  0
M  CHG  6  12   1  20   1  24   1  29   1  33   1  36   1
M  END
>  <CHROM.1>
-177.28350066,-79.89136299,-174.29057481,161.78412130,69.27265914,-153.55938699
54.71952768,-48.20155066,-179.99103642,167.50713029,-163.98653464,59.44669224
175.15267434,-136.19365192,89.04941437,69.40635447,152.28754391,-65.18017370
-79.27559928,-62.84726986,172.21665310,72.88057846,-3.95894431,-4.16590878
2.45654831,-2.76000216,-0.08665432,-0.43915001

>  <Name>
1NEM.B

>  <RI>
0

>  <Rbt.Current_Directory>
/home/itssahil/PROJECTS/Mol_Feturizer/New_Systems/rnas/1nem

>  <Rbt.Executable>
rbdock ($Id: //depot/dev/client3/rdock/2013.1/src/exe/rbdock.cxx#4 $)

>  <Rbt.Library>
libRbt.so (2013.1, Build901 2013/11/27)

>  <Rbt.Parameter_File>
/export/apps/rDock/src/rDock_2013.1_src/data/scripts/dock_solv.prm

>  <Rbt.Receptor>
prm/blind_docking_100.prm

>  <SCORE>
-40.9183

>  <SCORE.INTER>
-51.8441

>  <SCORE.INTER.CONST>
1

>  <SCORE.INTER.POLAR>
-7.95168

>  <SCORE.INTER.ROT>
9

>  <SCORE.INTER.SOLV>
42.6453

>  <SCORE.INTER.VDW>
-31.8723

>  <SCORE.INTER.norm>
-1.23438

>  <SCORE.INTRA>
9.92319

>  <SCORE.INTRA.DIHEDRAL>
-0.0496895

>  <SCORE.INTRA.DIHEDRAL.0>
22.4324

>  <SCORE.INTRA.POLAR>
0.101229

>  <SCORE.INTRA.POLAR.0>
-1.83749

>  <SCORE.INTRA.REPUL>
0.0297027

>  <SCORE.INTRA.REPUL.0>
0

>  <SCORE.INTRA.SOLV>
-2.1291

>  <SCORE.INTRA.SOLV.lig_0>
-160.638

>  <SCORE.INTRA.VDW>
10.5199

>  <SCORE.INTRA.VDW.0>
-7.61953

>  <SCORE.INTRA.norm>
0.236266

>  <SCORE.RESTR>
1.00263

>  <SCORE.RESTR.CAVITY>
1.00263

>  <SCORE.RESTR.norm>
0.023872

>  <SCORE.SYSTEM>
0

>  <SCORE.SYSTEM.CONST>
0

>  <SCORE.SYSTEM.DIHEDRAL>
0

>  <SCORE.SYSTEM.SOLV>
0

>  <SCORE.SYSTEM.norm>
0

>  <SCORE.heavy>
42

>  <SCORE.norm>
-0.974246

>  <RMSD>
10.023

$$$$
1NEM.B
 OpenBabel11021811403D
libRbt.so/2013.1/901 2013/11/27
 42 45  0  0  0  0  0  0  0  0999 V2000
   -5.3410   -7.1223    4.2864 O   0  0  0  0  0  0  0  0  0  0  0  0
   -4.7541   -6.3830    3.2135 C   0  0  0  0  0  0  0  0  0  0  0  0
   -4.6106   -4.8933    3.5217 C   0  0  1  0  0  0  0  0  0  0  0  0
   -3.3672   -4.3960    3.0355 O   0  0  0  0  0  0  0  0  0  0  0  0
   -5.6325   -4.0019    2.8342 C   0  0  1  0  0  0  0  0  0  0  0  0
   -6.8883   -4.2176    3.4820 O   0  0  0  0  0  0  0  0  0  0  0  0
   -4.9714   -2.6569    3.0709 C   0  0  1  0  0  0  0  0  0  0  0  0
   -5.0190   -2.2662    4.4472 O   0  0  0  0  0  0  0  0  0  0  0  0
   -3.5365   -3.0248    2.6755 C   0  0  2  0  0  0  0  0  0  0  0  0
   -7.6641   -5.2733    2.9911 C   0  0  2  0  0  0  0  0  0  0  0  0
   -7.9656   -5.0317    1.5058 C   0  0  2  0  0  0  0  0  0  0  0  0
   -8.5647   -3.6839    1.3194 N   0  3  0  0  0  0  0  0  0  0  0  0
   -8.8694   -6.1352    0.9464 C   0  0  1  0  0  0  0  0  0  0  0  0
   -8.1379   -7.3504    0.8533 O   0  0  0  0  0  0  0  0  0  0  0  0
  -10.1011   -6.3436    1.8329 C   0  0  2  0  0  0  0  0  0  0  0  0
  -10.9625   -5.2149    1.7548 O   0  0  0  0  0  0  0  0  0  0  0  0
   -9.6622   -6.5646    3.2776 C   0  0  1  0  0  0  0  0  0  0  0  0
   -8.8717   -5.4446    3.7214 O   0  0  0  0  0  0  0  0  0  0  0  0
  -10.8262   -6.7269    4.2392 C   0  0  0  0  0  0  0  0  0  0  0  0
  -11.5912   -7.9660    3.9762 N   0  3  0  0  0  0  0  0  0  0  0  0
   -5.2686   -2.0696   -0.7573 C   0  0  0  0  0  0  0  0  0  0  0  0
   -1.8833   -0.6062   -0.4033 C   0  0  2  0  0  0  0  0  0  0  0  0
   -2.1512    0.8490   -0.7795 C   0  0  2  0  0  0  0  0  0  0  0  0
   -1.0630    1.7187   -0.2726 N   0  3  0  0  0  0  0  0  0  0  0  0
   -3.4787    1.3074   -0.1907 C   0  0  1  0  0  0  0  0  0  0  0  0
   -3.7531    2.6348   -0.6115 O   0  0  0  0  0  0  0  0  0  0  0  0
   -4.5927    0.3696   -0.6507 C   0  0  2  0  0  0  0  0  0  0  0  0
   -5.8240    0.7497   -0.0499 O   0  0  0  0  0  0  0  0  0  0  0  0
   -4.6921   -3.4306   -0.8497 N   0  3  0  0  0  0  0  0  0  0  0  0
   -4.2472   -1.0645   -0.2542 C   0  0  2  0  0  0  0  0  0  0  0  0
   -2.9684   -1.4374   -0.8068 O   0  0  0  0  0  0  0  0  0  0  0  0
    0.0310   -4.6070    0.8499 C   0  0  2  0  0  0  0  0  0  0  0  0
    0.5400   -5.9232    1.2993 N   0  3  0  0  0  0  0  0  0  0  0  0
    0.8400   -3.4875    1.4952 C   0  0  0  0  0  0  0  0  0  0  0  0
    0.3260   -2.1276    1.0438 C   0  0  2  0  0  0  0  0  0  0  0  0
    1.1377   -1.1067    1.6912 N   0  3  0  0  0  0  0  0  0  0  0  0
   -1.1446   -1.9774    1.4261 C   0  0  1  0  0  0  0  0  0  0  0  0
   -1.6309   -0.6998    0.9706 O   0  0  0  0  0  0  0  0  0  0  0  0
   -1.9871   -3.0971    0.7994 C   0  0  2  0  0  0  0  0  0  0  0  0
   -3.3465   -2.9874    1.2628 O   0  0  0  0  0  0  0  0  0  0  0  0
   -1.4550   -4.4764    1.1802 C   0  0  1  0  0  0  0  0  0  0  0  0
   -2.1849   -5.4760    0.4814 O   0  0  0  0  0  0  0  0  0  0  0  0
  1  2  1  0  0  0  0
  3  2  1  6  0  0  0
  3  5  1  0  0  0  0
  3  4  1  0  0  0  0
  4  9  1  0  0  0  0
  5  7  1  0  0  0  0
  5  6  1  1  0  0  0
  7  9  1  0  0  0  0
  7  8  1  1  0  0  0
  9 40  1  6  0  0  0
 10  6  1  1  0  0  0
 10 11  1  0  0  0  0
 10 18  1  0  0  0  0
 11 13  1  0  0  0  0
 11 12  1  1  0  0  0
 13 15  1  0  0  0  0
 13 14  1  1  0  0  0
 15 17  1  0  0  0  0
 15 16  1  1  0  0  0
 17 19  1  1  0  0  0
 17 18  1  0  0  0  0
 19 20  1  0  0  0  0
 21 29  1  0  0  0  0
 22 23  1  0  0  0  0
 22 31  1  0  0  0  0
 22 38  1  1  0  0  0
 23 25  1  0  0  0  0
 23 24  1  1  0  0  0
 25 27  1  0  0  0  0
 25 26  1  6  0  0  0
 27 30  1  0  0  0  0
 27 28  1  1  0  0  0
 30 21  1  6  0  0  0
 30 31  1  0  0  0  0
 32 34  1  0  0  0  0
 32 41  1  0  0  0  0
 32 33  1  1  0  0  0
 34 35  1  0  0  0  0
 35 37  1  0  0  0  0
 35 36  1  1  0  0  0
 37 39  1  0  0  0  0
 37 38  1  6  0  0  0
 39 41  1  0  0  0  0
 39 40  1  1  0  0  0
 41 42  1  6  0  0  0
M  CHG  6  12   1  20   1  24   1  29   1  33   1  36   1
M  END
>  <CHROM.1>
76.00750894,139.73614497,-87.16091662,-59.05586661,-168.80199426,-75.38413494
-78.98943120,64.22510545,-178.22283571,66.27765467,-46.57702241,157.53858216
162.80926219,-170.09534532,63.77801358,153.23399153,-61.34108131,-155.86094827
54.61033721,75.80098303,-57.17207883,68.33747392,-4.69902612,-3.38056328
1.53263406,-2.50322472,0.01438371,-0.42291909

>  <Name>
1NEM.B

>  <RI>
0

>  <Rbt.Current_Directory>
/home/itssahil/PROJECTS/Mol_Feturizer/New_Systems/rnas/1nem

>  <Rbt.Executable>
rbdock ($Id: //depot/dev/client3/rdock/2013.1/src/exe/rbdock.cxx#4 $)

>  <Rbt.Library>
libRbt.so (2013.1, Build901 2013/11/27)

>  <Rbt.Parameter_File>
/export/apps/rDock/src/rDock_2013.1_src/data/scripts/dock_solv.prm

>  <Rbt.Receptor>
prm/blind_docking_60.prm

>  <SCORE>
-11.594

>  <SCORE.INTER>
-26.4285

>  <SCORE.INTER.CONST>
1

>  <SCORE.INTER.POLAR>
-6.20464

>  <SCORE.INTER.ROT>
9

>  <SCORE.INTER.SOLV>
45.5068

>  <SCORE.INTER.VDW>
-21.7058

>  <SCORE.INTER.norm>
-0.629249

>  <SCORE.INTRA>
7.2873

>  <SCORE.INTRA.DIHEDRAL>
-1.7794

>  <SCORE.INTRA.DIHEDRAL.0>
22.4324

>  <SCORE.INTRA.POLAR>
-0.066237

>  <SCORE.INTRA.POLAR.0>
-1.83749

>  <SCORE.INTRA.REPUL>
0

>  <SCORE.INTRA.REPUL.0>
0

>  <SCORE.INTRA.SOLV>
0.422069

>  <SCORE.INTRA.SOLV.lig_0>
-160.638

>  <SCORE.INTRA.VDW>
8.19118

>  <SCORE.INTRA.VDW.0>
-7.61953

>  <SCORE.INTRA.norm>
0.173507

>  <SCORE.RESTR>
7.54715

>  <SCORE.RESTR.CAVITY>
7.54715

>  <SCORE.RESTR.norm>
0.179694

>  <SCORE.SYSTEM>
0

>  <SCORE.SYSTEM.CONST>
0

>  <SCORE.SYSTEM.DIHEDRAL>
0

>  <SCORE.SYSTEM.SOLV>
0

>  <SCORE.SYSTEM.norm>
0

>  <SCORE.heavy>
42

>  <SCORE.norm>
-0.276048

>  <RMSD>
10.054

$$$$
1NEM.B
 OpenBabel11021811403D
libRbt.so/2013.1/901 2013/11/27
 42 45  0  0  0  0  0  0  0  0999 V2000
   -6.2234   -3.1417   -0.0162 O   0  0  0  0  0  0  0  0  0  0  0  0
   -6.4011   -3.2343    1.3987 C   0  0  0  0  0  0  0  0  0  0  0  0
   -5.5885   -4.3631    2.0312 C   0  0  1  0  0  0  0  0  0  0  0  0
   -4.2032   -4.0318    2.0592 O   0  0  0  0  0  0  0  0  0  0  0  0
   -5.9093   -4.6341    3.4924 C   0  0  1  0  0  0  0  0  0  0  0  0
   -7.1912   -5.2650    3.5359 O   0  0  0  0  0  0  0  0  0  0  0  0
   -4.7153   -5.5033    3.8401 C   0  0  1  0  0  0  0  0  0  0  0  0
   -4.7808   -6.7878    3.2117 O   0  0  0  0  0  0  0  0  0  0  0  0
   -3.6102   -4.6566    3.1978 C   0  0  2  0  0  0  0  0  0  0  0  0
   -7.4452   -6.2183    2.5440 C   0  0  2  0  0  0  0  0  0  0  0  0
   -8.6288   -5.7521    1.6854 C   0  0  2  0  0  0  0  0  0  0  0  0
   -9.7942   -5.4343    2.5522 N   0  3  0  0  0  0  0  0  0  0  0  0
   -8.9809   -6.8016    0.6261 C   0  0  1  0  0  0  0  0  0  0  0  0
   -7.9613   -6.8420   -0.3636 O   0  0  0  0  0  0  0  0  0  0  0  0
   -9.1421   -8.1891    1.2546 C   0  0  2  0  0  0  0  0  0  0  0  0
  -10.3016   -8.2271    2.0770 O   0  0  0  0  0  0  0  0  0  0  0  0
   -7.9050   -8.5243    2.0829 C   0  0  1  0  0  0  0  0  0  0  0  0
   -7.7013   -7.5082    3.0839 O   0  0  0  0  0  0  0  0  0  0  0  0
   -8.0021   -9.8652    2.7891 C   0  0  0  0  0  0  0  0  0  0  0  0
   -8.9278   -9.8161    3.9427 N   0  3  0  0  0  0  0  0  0  0  0  0
    2.5862   -0.5078    2.0798 C   0  0  0  0  0  0  0  0  0  0  0  0
   -0.1160   -2.9185    1.2960 C   0  0  2  0  0  0  0  0  0  0  0  0
    0.6453   -4.2408    1.3485 C   0  0  2  0  0  0  0  0  0  0  0  0
   -0.2990   -5.3700    1.5240 N   0  3  0  0  0  0  0  0  0  0  0  0
    1.6380   -4.2294    2.5032 C   0  0  1  0  0  0  0  0  0  0  0  0
    2.3928   -5.4314    2.4940 O   0  0  0  0  0  0  0  0  0  0  0  0
    2.5666   -3.0248    2.3670 C   0  0  2  0  0  0  0  0  0  0  0  0
    3.4516   -2.9680    3.4783 O   0  0  0  0  0  0  0  0  0  0  0  0
    3.5419   -0.2958    3.1909 N   0  3  0  0  0  0  0  0  0  0  0  0
    1.7348   -1.7452    2.3051 C   0  0  2  0  0  0  0  0  0  0  0  0
    0.7891   -1.8204    1.2189 O   0  0  0  0  0  0  0  0  0  0  0  0
   -4.4968   -0.4549    2.3785 C   0  0  2  0  0  0  0  0  0  0  0  0
   -5.8783   -0.0094    2.0848 N   0  3  0  0  0  0  0  0  0  0  0  0
   -3.7131   -0.6125    1.0804 C   0  0  0  0  0  0  0  0  0  0  0  0
   -2.2906   -1.0726    1.3670 C   0  0  2  0  0  0  0  0  0  0  0  0
   -1.5983   -1.2016    0.0926 N   0  3  0  0  0  0  0  0  0  0  0  0
   -2.3180   -2.4066    2.1094 C   0  0  1  0  0  0  0  0  0  0  0  0
   -0.9692   -2.8210    2.4017 O   0  0  0  0  0  0  0  0  0  0  0  0
   -3.1096   -2.2848    3.4189 C   0  0  2  0  0  0  0  0  0  0  0  0
   -3.2050   -3.5804    4.0409 O   0  0  0  0  0  0  0  0  0  0  0  0
   -4.5219   -1.7608    3.1711 C   0  0  1  0  0  0  0  0  0  0  0  0
   -5.1736   -1.5465    4.4161 O   0  0  0  0  0  0  0  0  0  0  0  0
  1  2  1  0  0  0  0
  3  2  1  1  0  0  0
  3  5  1  0  0  0  0
  3  4  1  0  0  0  0
  4  9  1  0  0  0  0
  5  7  1  0  0  0  0
  5  6  1  6  0  0  0
  7  9  1  0  0  0  0
  7  8  1  6  0  0  0
  9 40  1  1  0  0  0
 10  6  1  1  0  0  0
 10 11  1  0  0  0  0
 10 18  1  0  0  0  0
 11 13  1  0  0  0  0
 11 12  1  1  0  0  0
 13 15  1  0  0  0  0
 13 14  1  6  0  0  0
 15 17  1  0  0  0  0
 15 16  1  1  0  0  0
 17 19  1  1  0  0  0
 17 18  1  0  0  0  0
 19 20  1  0  0  0  0
 21 29  1  0  0  0  0
 22 23  1  0  0  0  0
 22 31  1  0  0  0  0
 22 38  1  1  0  0  0
 23 25  1  0  0  0  0
 23 24  1  1  0  0  0
 25 27  1  0  0  0  0
 25 26  1  6  0  0  0
 27 30  1  0  0  0  0
 27 28  1  1  0  0  0
 30 21  1  6  0  0  0
 30 31  1  0  0  0  0
 32 34  1  0  0  0  0
 32 41  1  0  0  0  0
 32 33  1  6  0  0  0
 34 35  1  0  0  0  0
 35 37  1  0  0  0  0
 35 36  1  6  0  0  0
 37 39  1  0  0  0  0
 37 38  1  1  0  0  0
 39 41  1  0  0  0  0
 39 40  1  6  0  0  0
 41 42  1  1  0  0  0
M  CHG  6  12   1  20   1  24   1  29   1  33   1  36   1
M  END
>  <CHROM.1>
68.29546084,72.77167891,40.31860100,-117.78729339,-160.77058784,-17.68943195
38.32142546,61.55104291,87.21469853,-73.75376586,-60.25847137,-62.05966490
-77.42796866,-132.83099637,-117.49675267,-68.64251864,92.08438500,-177.10944412
33.46007997,-55.88084758,-48.17720719,-173.53738222,-3.86017997,-4.19003973
2.27870165,2.67374513,0.06038784,3.02817065

>  <Name>
1NEM.B

>  <RI>
0

>  <Rbt.Current_Directory>
/home/itssahil/PROJECTS/Mol_Feturizer/New_Systems/rnas/1nem

>  <Rbt.Executable>
rbdock ($Id: //depot/dev/client3/rdock/2013.1/src/exe/rbdock.cxx#4 $)

>  <Rbt.Library>
libRbt.so (2013.1, Build901 2013/11/27)

>  <Rbt.Parameter_File>
/export/apps/rDock/src/rDock_2013.1_src/data/scripts/dock_solv.prm

>  <Rbt.Receptor>
prm/blind_docking_100.prm

>  <SCORE>
-17.1731

>  <SCORE.INTER>
-41.7828

>  <SCORE.INTER.CONST>
1

>  <SCORE.INTER.POLAR>
-5.65648

>  <SCORE.INTER.ROT>
9

>  <SCORE.INTER.SOLV>
39.2595

>  <SCORE.INTER.VDW>
-31.6868

>  <SCORE.INTER.norm>
-0.994828

>  <SCORE.INTRA>
22.6304

>  <SCORE.INTRA.DIHEDRAL>
17.5293

>  <SCORE.INTRA.DIHEDRAL.0>
22.4324

>  <SCORE.INTRA.POLAR>
-1.26559

>  <SCORE.INTRA.POLAR.0>
-1.83749

>  <SCORE.INTRA.REPUL>
0

>  <SCORE.INTRA.REPUL.0>
0

>  <SCORE.INTRA.SOLV>
4.31904

>  <SCORE.INTRA.SOLV.lig_0>
-160.638

>  <SCORE.INTRA.VDW>
16.0093

>  <SCORE.INTRA.VDW.0>
-7.61953

>  <SCORE.INTRA.norm>
0.53882

>  <SCORE.RESTR>
1.97928

>  <SCORE.RESTR.CAVITY>
1.97928

>  <SCORE.RESTR.norm>
0.0471258

>  <SCORE.SYSTEM>
0

>  <SCORE.SYSTEM.CONST>
0

>  <SCORE.SYSTEM.DIHEDRAL>
0

>  <SCORE.SYSTEM.SOLV>
0

>  <SCORE.SYSTEM.norm>
0

>  <SCORE.heavy>
42

>  <SCORE.norm>
-0.408882

>  <RMSD>
10.098

$$$$
1NEM.B
 OpenBabel11021811403D
libRbt.so/2013.1/901 2013/11/27
 42 45  0  0  0  0  0  0  0  0999 V2000
   -4.6665   -7.7666    3.4586 O   0  0  0  0  0  0  0  0  0  0  0  0
   -4.7881   -7.6108    4.8739 C   0  0  0  0  0  0  0  0  0  0  0  0
   -5.0225   -6.1618    5.2984 C   0  0  1  0  0  0  0  0  0  0  0  0
   -3.8121   -5.4139    5.2264 O   0  0  0  0  0  0  0  0  0  0  0  0
   -5.9658   -5.3813    4.3971 C   0  0  1  0  0  0  0  0  0  0  0  0
   -7.2863   -5.8735    4.6365 O   0  0  0  0  0  0  0  0  0  0  0  0
   -5.6653   -3.9803    4.8956 C   0  0  1  0  0  0  0  0  0  0  0  0
   -6.1644   -3.7589    6.2189 O   0  0  0  0  0  0  0  0  0  0  0  0
   -4.1342   -4.0583    4.9147 C   0  0  2  0  0  0  0  0  0  0  0  0
   -8.1678   -5.8328    3.5509 C   0  0  2  0  0  0  0  0  0  0  0  0
   -9.1614   -6.9972    3.6618 C   0  0  2  0  0  0  0  0  0  0  0  0
   -8.4278   -8.2811    3.8164 N   0  3  0  0  0  0  0  0  0  0  0  0
  -10.1047   -7.0260    2.4549 C   0  0  1  0  0  0  0  0  0  0  0  0
  -11.0050   -5.9283    2.5259 O   0  0  0  0  0  0  0  0  0  0  0  0
   -9.3219   -6.9643    1.1397 C   0  0  2  0  0  0  0  0  0  0  0  0
   -8.5875   -8.1664    0.9451 O   0  0  0  0  0  0  0  0  0  0  0  0
   -8.3706   -5.7712    1.1641 C   0  0  1  0  0  0  0  0  0  0  0  0
   -7.4916   -5.8746    2.3010 O   0  0  0  0  0  0  0  0  0  0  0  0
   -7.5121   -5.6640   -0.0839 C   0  0  0  0  0  0  0  0  0  0  0  0
   -8.3096   -5.8312   -1.3191 N   0  3  0  0  0  0  0  0  0  0  0  0
    2.3287   -0.7176    1.8125 C   0  0  0  0  0  0  0  0  0  0  0  0
   -0.3510   -3.1719    1.0894 C   0  0  2  0  0  0  0  0  0  0  0  0
    0.4315   -4.4823    1.1309 C   0  0  2  0  0  0  0  0  0  0  0  0
   -0.4917   -5.6252    1.3284 N   0  3  0  0  0  0  0  0  0  0  0  0
    1.4464   -4.4518    2.2658 C   0  0  1  0  0  0  0  0  0  0  0  0
    2.2193   -5.6421    2.2453 O   0  0  0  0  0  0  0  0  0  0  0  0
    2.3534   -3.2336    2.1076 C   0  0  2  0  0  0  0  0  0  0  0  0
    3.2592   -3.1596    3.2011 O   0  0  0  0  0  0  0  0  0  0  0  0
    3.2759   -0.9051    0.6897 N   0  3  0  0  0  0  0  0  0  0  0  0
    1.5010   -1.9670    2.0583 C   0  0  2  0  0  0  0  0  0  0  0  0
    0.5355   -2.0603    0.9912 O   0  0  0  0  0  0  0  0  0  0  0  0
   -4.3420   -0.2763    2.6421 C   0  0  2  0  0  0  0  0  0  0  0  0
   -5.6337    0.4167    2.4310 N   0  3  0  0  0  0  0  0  0  0  0  0
   -3.5322   -0.2740    1.3505 C   0  0  0  0  0  0  0  0  0  0  0  0
   -2.2017   -0.9857    1.5521 C   0  0  2  0  0  0  0  0  0  0  0  0
   -1.4795   -0.9474    0.2884 N   0  3  0  0  0  0  0  0  0  0  0  0
   -2.4474   -2.4259    1.9955 C   0  0  1  0  0  0  0  0  0  0  0  0
   -1.1837   -3.0839    2.2114 O   0  0  0  0  0  0  0  0  0  0  0  0
   -3.2704   -2.4641    3.2907 C   0  0  2  0  0  0  0  0  0  0  0  0
   -3.5728   -3.8324    3.6236 O   0  0  0  0  0  0  0  0  0  0  0  0
   -4.5836   -1.7002    3.1406 C   0  0  1  0  0  0  0  0  0  0  0  0
   -5.2525   -1.6558    4.3941 O   0  0  0  0  0  0  0  0  0  0  0  0
  1  2  1  0  0  0  0
  3  2  1  6  0  0  0
  3  5  1  0  0  0  0
  3  4  1  0  0  0  0
  4  9  1  0  0  0  0
  5  7  1  0  0  0  0
  5  6  1  1  0  0  0
  7  9  1  0  0  0  0
  7  8  1  1  0  0  0
  9 40  1  6  0  0  0
 10  6  1  1  0  0  0
 10 11  1  0  0  0  0
 10 18  1  0  0  0  0
 11 13  1  0  0  0  0
 11 12  1  6  0  0  0
 13 15  1  0  0  0  0
 13 14  1  1  0  0  0
 15 17  1  0  0  0  0
 15 16  1  1  0  0  0
 17 19  1  6  0  0  0
 17 18  1  0  0  0  0
 19 20  1  0  0  0  0
 21 29  1  0  0  0  0
 22 23  1  0  0  0  0
 22 31  1  0  0  0  0
 22 38  1  1  0  0  0
 23 25  1  0  0  0  0
 23 24  1  1  0  0  0
 25 27  1  0  0  0  0
 25 26  1  6  0  0  0
 27 30  1  0  0  0  0
 27 28  1  1  0  0  0
 30 21  1  6  0  0  0
 30 31  1  0  0  0  0
 32 34  1  0  0  0  0
 32 41  1  0  0  0  0
 32 33  1  6  0  0  0
 34 35  1  0  0  0  0
 35 37  1  0  0  0  0
 35 36  1  6  0  0  0
 37 39  1  0  0  0  0
 37 38  1  1  0  0  0
 39 41  1  0  0  0  0
 39 40  1  6  0  0  0
 41 42  1  1  0  0  0
M  CHG  6  12   1  20   1  24   1  29   1  33   1  36   1
M  END
>  <CHROM.1>
-59.30536736,-76.32318427,-149.05769561,148.97156177,65.89980535,-155.85985028
52.00244398,174.52952113,-162.39810599,46.68004739,62.46503460,47.70252059
-62.73410238,-145.49207459,-19.95377551,65.49338775,-47.71658190,76.34039836
33.74619558,-61.01739970,169.68108833,-27.92334403,-3.92207631,-4.18894477
2.59889432,-2.73357795,0.01485375,-0.19127704

>  <Name>
1NEM.B

>  <RI>
0

>  <Rbt.Current_Directory>
/home/itssahil/PROJECTS/Mol_Feturizer/New_Systems/rnas/1nem

>  <Rbt.Executable>
rbdock ($Id: //depot/dev/client3/rdock/2013.1/src/exe/rbdock.cxx#4 $)

>  <Rbt.Library>
libRbt.so (2013.1, Build901 2013/11/27)

>  <Rbt.Parameter_File>
/export/apps/rDock/src/rDock_2013.1_src/data/scripts/dock_solv.prm

>  <Rbt.Receptor>
prm/blind_docking_100.prm

>  <SCORE>
-33.5344

>  <SCORE.INTER>
-53.8835

>  <SCORE.INTER.CONST>
1

>  <SCORE.INTER.POLAR>
-6.5692

>  <SCORE.INTER.ROT>
9

>  <SCORE.INTER.SOLV>
43.4149

>  <SCORE.INTER.VDW>
-38.0966

>  <SCORE.INTER.norm>
-1.28294

>  <SCORE.INTRA>
19.4253

>  <SCORE.INTRA.DIHEDRAL>
6.66372

>  <SCORE.INTRA.DIHEDRAL.0>
22.4324

>  <SCORE.INTRA.POLAR>
0.459882

>  <SCORE.INTRA.POLAR.0>
-1.83749

>  <SCORE.INTRA.REPUL>
0

>  <SCORE.INTRA.REPUL.0>
0

>  <SCORE.INTRA.SOLV>
0.736128

>  <SCORE.INTRA.SOLV.lig_0>
-160.638

>  <SCORE.INTRA.VDW>
14.1618

>  <SCORE.INTRA.VDW.0>
-7.61953

>  <SCORE.INTRA.norm>
0.462506

>  <SCORE.RESTR>
0.92383

>  <SCORE.RESTR.CAVITY>
0.92383

>  <SCORE.RESTR.norm>
0.0219959

>  <SCORE.SYSTEM>
0

>  <SCORE.SYSTEM.CONST>
0

>  <SCORE.SYSTEM.DIHEDRAL>
0

>  <SCORE.SYSTEM.SOLV>
0

>  <SCORE.SYSTEM.norm>
0

>  <SCORE.heavy>
42

>  <SCORE.norm>
-0.798438

>  <RMSD>
10.099

$$$$
1NEM.B
 OpenBabel11021811403D
libRbt.so/2013.1/901 2013/11/27
 42 45  0  0  0  0  0  0  0  0999 V2000
   -5.0561   -7.2024    4.7352 O   0  0  0  0  0  0  0  0  0  0  0  0
   -5.0020   -6.4619    3.5142 C   0  0  0  0  0  0  0  0  0  0  0  0
   -5.3452   -4.9839    3.6950 C   0  0  1  0  0  0  0  0  0  0  0  0
   -4.1600   -4.2026    3.8136 O   0  0  0  0  0  0  0  0  0  0  0  0
   -6.0612   -4.3497    2.5132 C   0  0  1  0  0  0  0  0  0  0  0  0
   -7.3955   -4.8623    2.5000 O   0  0  0  0  0  0  0  0  0  0  0  0
   -5.9011   -2.8900    2.8945 C   0  0  1  0  0  0  0  0  0  0  0  0
   -6.6974   -2.5377    4.0307 O   0  0  0  0  0  0  0  0  0  0  0  0
   -4.4158   -2.9054    3.2747 C   0  0  2  0  0  0  0  0  0  0  0  0
   -7.6451   -5.9142    1.6120 C   0  0  2  0  0  0  0  0  0  0  0  0
   -8.6543   -5.4527    0.5518 C   0  0  2  0  0  0  0  0  0  0  0  0
   -9.8661   -4.8959    1.2089 N   0  3  0  0  0  0  0  0  0  0  0  0
   -9.0042   -6.5985   -0.4033 C   0  0  1  0  0  0  0  0  0  0  0  0
   -7.8879   -6.8843   -1.2356 O   0  0  0  0  0  0  0  0  0  0  0  0
   -9.4054   -7.8590    0.3690 C   0  0  2  0  0  0  0  0  0  0  0  0
  -10.6494   -7.6594    1.0283 O   0  0  0  0  0  0  0  0  0  0  0  0
   -8.3241   -8.2014    1.3899 C   0  0  1  0  0  0  0  0  0  0  0  0
   -8.1175   -7.0812    2.2723 O   0  0  0  0  0  0  0  0  0  0  0  0
   -8.6655   -9.4117    2.2412 C   0  0  0  0  0  0  0  0  0  0  0  0
   -8.6546  -10.6632    1.4516 N   0  3  0  0  0  0  0  0  0  0  0  0
    3.0080   -0.3624    1.1240 C   0  0  0  0  0  0  0  0  0  0  0  0
    0.1477   -2.6834    0.7252 C   0  0  2  0  0  0  0  0  0  0  0  0
    0.6882   -3.9365    1.4098 C   0  0  2  0  0  0  0  0  0  0  0  0
   -0.4270   -4.8391    1.7827 N   0  3  0  0  0  0  0  0  0  0  0  0
    1.4688   -3.5558    2.6607 C   0  0  1  0  0  0  0  0  0  0  0  0
    2.0307   -4.7212    3.2443 O   0  0  0  0  0  0  0  0  0  0  0  0
    2.5733   -2.5676    2.2929 C   0  0  2  0  0  0  0  0  0  0  0  0
    3.2626   -2.1539    3.4656 O   0  0  0  0  0  0  0  0  0  0  0  0
    3.9073   -0.9670    0.1147 N   0  3  0  0  0  0  0  0  0  0  0  0
    1.9593   -1.3522    1.6007 C   0  0  2  0  0  0  0  0  0  0  0  0
    1.2041   -1.7687    0.4449 O   0  0  0  0  0  0  0  0  0  0  0  0
   -3.9981    0.5448    0.4626 C   0  0  2  0  0  0  0  0  0  0  0  0
   -5.1471    1.1294   -0.2664 N   0  3  0  0  0  0  0  0  0  0  0  0
   -2.7951    0.4305   -0.4668 C   0  0  0  0  0  0  0  0  0  0  0  0
   -1.6061   -0.1714    0.2689 C   0  0  2  0  0  0  0  0  0  0  0  0
   -0.4953   -0.2516   -0.6690 N   0  3  0  0  0  0  0  0  0  0  0  0
   -1.9725   -1.5558    0.7988 C   0  0  1  0  0  0  0  0  0  0  0  0
   -0.8518   -2.1066    1.5178 O   0  0  0  0  0  0  0  0  0  0  0  0
   -3.1888   -1.4772    1.7319 C   0  0  2  0  0  0  0  0  0  0  0  0
   -3.5714   -2.8076    2.1298 O   0  0  0  0  0  0  0  0  0  0  0  0
   -4.3798   -0.8160    1.0428 C   0  0  1  0  0  0  0  0  0  0  0  0
   -5.4379   -0.6521    1.9777 O   0  0  0  0  0  0  0  0  0  0  0  0
  1  2  1  0  0  0  0
  3  2  1  6  0  0  0
  3  5  1  0  0  0  0
  3  4  1  0  0  0  0
  4  9  1  0  0  0  0
  5  7  1  0  0  0  0
  5  6  1  1  0  0  0
  7  9  1  0  0  0  0
  7  8  1  1  0  0  0
  9 40  1  6  0  0  0
 10  6  1  1  0  0  0
 10 11  1  0  0  0  0
 10 18  1  0  0  0  0
 11 13  1  0  0  0  0
 11 12  1  1  0  0  0
 13 15  1  0  0  0  0
 13 14  1  1  0  0  0
 15 17  1  0  0  0  0
 15 16  1  1  0  0  0
 17 19  1  1  0  0  0
 17 18  1  0  0  0  0
 19 20  1  0  0  0  0
 21 29  1  0  0  0  0
 22 23  1  0  0  0  0
 22 31  1  0  0  0  0
 22 38  1  1  0  0  0
 23 25  1  0  0  0  0
 23 24  1  1  0  0  0
 25 27  1  0  0  0  0
 25 26  1  6  0  0  0
 27 30  1  0  0  0  0
 27 28  1  1  0  0  0
 30 21  1  6  0  0  0
 30 31  1  0  0  0  0
 32 34  1  0  0  0  0
 32 41  1  0  0  0  0
 32 33  1  6  0  0  0
 34 35  1  0  0  0  0
 35 37  1  0  0  0  0
 35 36  1  6  0  0  0
 37 39  1  0  0  0  0
 37 38  1  1  0  0  0
 39 41  1  0  0  0  0
 39 40  1  6  0  0  0
 41 42  1  1  0  0  0
M  CHG  6  12   1  20   1  24   1  29   1  33   1  36   1
M  END
>  <CHROM.1>
65.59337516,97.08812133,-98.89476207,-115.64824872,-51.94663818,-154.40294434
-28.34092489,57.87282831,-72.78780951,68.73036963,62.47829848,62.19608591
-62.30135966,-141.78735655,-59.93321019,-57.82852219,160.83636690,105.06525614
-70.35482621,-80.69886874,162.55472107,-54.48086729,-3.83050683,-3.78008196
1.65034738,-2.64815138,-0.14476516,-0.30185280

>  <Name>
1NEM.B

>  <RI>
0

>  <Rbt.Current_Directory>
/home/itssahil/PROJECTS/Mol_Feturizer/New_Systems/rnas/1nem

>  <Rbt.Executable>
rbdock ($Id: //depot/dev/client3/rdock/2013.1/src/exe/rbdock.cxx#4 $)

>  <Rbt.Library>
libRbt.so (2013.1, Build901 2013/11/27)

>  <Rbt.Parameter_File>
/export/apps/rDock/src/rDock_2013.1_src/data/scripts/dock_solv.prm

>  <Rbt.Receptor>
prm/blind_docking_60.prm

>  <SCORE>
-24.7676

>  <SCORE.INTER>
-48.4722

>  <SCORE.INTER.CONST>
1

>  <SCORE.INTER.POLAR>
-7.73913

>  <SCORE.INTER.ROT>
9

>  <SCORE.INTER.SOLV>
44.8336

>  <SCORE.INTER.VDW>
-31.0622

>  <SCORE.INTER.norm>
-1.1541

>  <SCORE.INTRA>
16.2206

>  <SCORE.INTRA.DIHEDRAL>
13.6181

>  <SCORE.INTRA.DIHEDRAL.0>
22.4324

>  <SCORE.INTRA.POLAR>
0.849081

>  <SCORE.INTRA.POLAR.0>
-1.83749

>  <SCORE.INTRA.REPUL>
0

>  <SCORE.INTRA.REPUL.0>
0

>  <SCORE.INTRA.SOLV>
-2.4712

>  <SCORE.INTRA.SOLV.lig_0>
-160.638

>  <SCORE.INTRA.VDW>
7.76028

>  <SCORE.INTRA.VDW.0>
-7.61953

>  <SCORE.INTRA.norm>
0.386205

>  <SCORE.RESTR>
7.4839

>  <SCORE.RESTR.CAVITY>
7.4839

>  <SCORE.RESTR.norm>
0.178188

>  <SCORE.SYSTEM>
0

>  <SCORE.SYSTEM.CONST>
0

>  <SCORE.SYSTEM.DIHEDRAL>
0

>  <SCORE.SYSTEM.SOLV>
0

>  <SCORE.SYSTEM.norm>
0

>  <SCORE.heavy>
42

>  <SCORE.norm>
-0.589706

>  <RMSD>
10.112

$$$$
1NEM.B
 OpenBabel11021811403D
libRbt.so/2013.1/901 2013/11/27
 42 45  0  0  0  0  0  0  0  0999 V2000
   -4.9594   -8.0287    5.0251 O   0  0  0  0  0  0  0  0  0  0  0  0
   -4.7269   -7.0761    3.9856 C   0  0  0  0  0  0  0  0  0  0  0  0
   -5.0473   -5.6422    4.4054 C   0  0  1  0  0  0  0  0  0  0  0  0
   -3.8500   -4.9058    4.6368 O   0  0  0  0  0  0  0  0  0  0  0  0
   -5.7627   -4.8165    3.3481 C   0  0  1  0  0  0  0  0  0  0  0  0
   -7.1044   -5.3028    3.2654 O   0  0  0  0  0  0  0  0  0  0  0  0
   -5.5786   -3.4395    3.9579 C   0  0  1  0  0  0  0  0  0  0  0  0
   -6.3613   -3.2645    5.1437 O   0  0  0  0  0  0  0  0  0  0  0  0
   -4.0910   -3.5355    4.3164 C   0  0  2  0  0  0  0  0  0  0  0  0
   -7.3855   -6.1635    2.1990 C   0  0  2  0  0  0  0  0  0  0  0  0
   -8.3168   -5.4532    1.2073 C   0  0  2  0  0  0  0  0  0  0  0  0
   -9.5156   -4.9328    1.9160 N   0  3  0  0  0  0  0  0  0  0  0  0
   -8.7014   -6.3873    0.0553 C   0  0  1  0  0  0  0  0  0  0  0  0
   -7.5726   -6.6042   -0.7809 O   0  0  0  0  0  0  0  0  0  0  0  0
   -9.2168   -7.7305    0.5813 C   0  0  2  0  0  0  0  0  0  0  0  0
  -10.4714   -7.5589    1.2283 O   0  0  0  0  0  0  0  0  0  0  0  0
   -8.2041   -8.3223    1.5575 C   0  0  1  0  0  0  0  0  0  0  0  0
   -7.9611   -7.3903    2.6290 O   0  0  0  0  0  0  0  0  0  0  0  0
   -8.6600   -9.6341    2.1717 C   0  0  0  0  0  0  0  0  0  0  0  0
   -7.5489  -10.6044    2.2898 N   0  3  0  0  0  0  0  0  0  0  0  0
    2.6126   -0.4369    0.3123 C   0  0  0  0  0  0  0  0  0  0  0  0
   -0.1614   -2.7696    1.0808 C   0  0  2  0  0  0  0  0  0  0  0  0
    0.5756   -3.8566    1.8595 C   0  0  2  0  0  0  0  0  0  0  0  0
   -0.3836   -4.6537    2.6607 N   0  3  0  0  0  0  0  0  0  0  0  0
    1.6082   -3.2294    2.7866 C   0  0  1  0  0  0  0  0  0  0  0  0
    2.3389   -4.2517    3.4464 O   0  0  0  0  0  0  0  0  0  0  0  0
    2.5545   -2.3473    1.9752 C   0  0  2  0  0  0  0  0  0  0  0  0
    3.4788   -1.7034    2.8427 O   0  0  0  0  0  0  0  0  0  0  0  0
    3.6182   -1.2480   -0.4115 N   0  3  0  0  0  0  0  0  0  0  0  0
    1.7459   -1.2983    1.2142 C   0  0  2  0  0  0  0  0  0  0  0  0
    0.7615   -1.9410    0.3789 O   0  0  0  0  0  0  0  0  0  0  0  0
   -4.8025   -0.2325    1.5808 C   0  0  2  0  0  0  0  0  0  0  0  0
   -6.1867    0.0249    1.1216 N   0  3  0  0  0  0  0  0  0  0  0  0
   -3.8390   -0.1522    0.4021 C   0  0  0  0  0  0  0  0  0  0  0  0
   -2.4114   -0.4172    0.8593 C   0  0  2  0  0  0  0  0  0  0  0  0
   -1.5451   -0.3248   -0.3074 N   0  3  0  0  0  0  0  0  0  0  0  0
   -2.3207   -1.8017    1.4965 C   0  0  1  0  0  0  0  0  0  0  0  0
   -0.9733   -2.0333    1.9517 O   0  0  0  0  0  0  0  0  0  0  0  0
   -3.2876   -1.9194    2.6829 C   0  0  2  0  0  0  0  0  0  0  0  0
   -3.2537   -3.2656    3.1941 O   0  0  0  0  0  0  0  0  0  0  0  0
   -4.7207   -1.5936    2.2700 C   0  0  1  0  0  0  0  0  0  0  0  0
   -5.5572   -1.5933    3.4193 O   0  0  0  0  0  0  0  0  0  0  0  0
  1  2  1  0  0  0  0
  3  2  1  6  0  0  0
  3  5  1  0  0  0  0
  3  4  1  0  0  0  0
  4  9  1  0  0  0  0
  5  7  1  0  0  0  0
  5  6  1  1  0  0  0
  7  9  1  0  0  0  0
  7  8  1  1  0  0  0
  9 40  1  6  0  0  0
 10  6  1  1  0  0  0
 10 11  1  0  0  0  0
 10 18  1  0  0  0  0
 11 13  1  0  0  0  0
 11 12  1  1  0  0  0
 13 15  1  0  0  0  0
 13 14  1  6  0  0  0
 15 17  1  0  0  0  0
 15 16  1  1  0  0  0
 17 19  1  1  0  0  0
 17 18  1  0  0  0  0
 19 20  1  0  0  0  0
 21 29  1  0  0  0  0
 22 23  1  0  0  0  0
 22 31  1  0  0  0  0
 22 38  1  1  0  0  0
 23 25  1  0  0  0  0
 23 24  1  1  0  0  0
 25 27  1  0  0  0  0
 25 26  1  6  0  0  0
 27 30  1  0  0  0  0
 27 28  1  1  0  0  0
 30 21  1  6  0  0  0
 30 31  1  0  0  0  0
 32 34  1  0  0  0  0
 32 41  1  0  0  0  0
 32 33  1  6  0  0  0
 34 35  1  0  0  0  0
 35 37  1  0  0  0  0
 35 36  1  6  0  0  0
 37 39  1  0  0  0  0
 37 38  1  1  0  0  0
 39 41  1  0  0  0  0
 39 40  1  6  0  0  0
 41 42  1  1  0  0  0
M  CHG  6  12   1  20   1  24   1  29   1  33   1  36   1
M  END
>  <CHROM.1>
63.09932882,105.14030444,-100.70839446,-111.01737291,57.20701692,-178.72818695
160.38208262,-43.93521932,70.62706564,140.34377441,-34.40138591,42.56742963
56.85314843,-133.21001408,-114.74220763,-175.74850773,98.20519317,58.22181761
63.88669895,-97.31495175,179.26891315,53.71034296,-3.83959280,-4.02132442
2.15252486,-2.63300950,-0.10574146,-0.30611492

>  <Name>
1NEM.B

>  <RI>
0

>  <Rbt.Current_Directory>
/home/itssahil/PROJECTS/Mol_Feturizer/New_Systems/rnas/1nem

>  <Rbt.Executable>
rbdock ($Id: //depot/dev/client3/rdock/2013.1/src/exe/rbdock.cxx#4 $)

>  <Rbt.Library>
libRbt.so (2013.1, Build901 2013/11/27)

>  <Rbt.Parameter_File>
/export/apps/rDock/src/rDock_2013.1_src/data/scripts/dock_solv.prm

>  <Rbt.Receptor>
prm/blind_docking_40.prm

>  <SCORE>
4.6813

>  <SCORE.INTER>
-34.1675

>  <SCORE.INTER.CONST>
1

>  <SCORE.INTER.POLAR>
-7.26157

>  <SCORE.INTER.ROT>
9

>  <SCORE.INTER.SOLV>
49.4908

>  <SCORE.INTER.VDW>
-24.67

>  <SCORE.INTER.norm>
-0.813513

>  <SCORE.INTRA>
33.7017

>  <SCORE.INTRA.DIHEDRAL>
24.0409

>  <SCORE.INTRA.DIHEDRAL.0>
22.4324

>  <SCORE.INTRA.POLAR>
-0.149362

>  <SCORE.INTRA.POLAR.0>
-1.83749

>  <SCORE.INTRA.REPUL>
0

>  <SCORE.INTRA.REPUL.0>
0

>  <SCORE.INTRA.SOLV>
-2.56989

>  <SCORE.INTRA.SOLV.lig_0>
-160.638

>  <SCORE.INTRA.VDW>
23.474

>  <SCORE.INTRA.VDW.0>
-7.61953

>  <SCORE.INTRA.norm>
0.802422

>  <SCORE.RESTR>
5.14709

>  <SCORE.RESTR.CAVITY>
5.14709

>  <SCORE.RESTR.norm>
0.12255

>  <SCORE.SYSTEM>
0

>  <SCORE.SYSTEM.CONST>
0

>  <SCORE.SYSTEM.DIHEDRAL>
0

>  <SCORE.SYSTEM.SOLV>
0

>  <SCORE.SYSTEM.norm>
0

>  <SCORE.heavy>
42

>  <SCORE.norm>
0.111459

>  <RMSD>
10.121

$$$$
1NEM.B
 OpenBabel11021811403D
libRbt.so/2013.1/901 2013/11/27
 42 45  0  0  0  0  0  0  0  0999 V2000
    8.9089    3.5740    6.8353 O   0  0  0  0  0  0  0  0  0  0  0  0
    8.6680    2.3486    6.1408 C   0  0  0  0  0  0  0  0  0  0  0  0
    7.1960    1.9387    6.1437 C   0  0  1  0  0  0  0  0  0  0  0  0
    6.4156    2.8586    5.3859 O   0  0  0  0  0  0  0  0  0  0  0  0
    6.9075    0.6052    5.4728 C   0  0  1  0  0  0  0  0  0  0  0  0
    7.4000   -0.4208    6.3377 O   0  0  0  0  0  0  0  0  0  0  0  0
    5.3996    0.7219    5.3519 C   0  0  1  0  0  0  0  0  0  0  0  0
    4.7473    0.6353    6.6231 O   0  0  0  0  0  0  0  0  0  0  0  0
    5.3149    2.1540    4.8111 C   0  0  2  0  0  0  0  0  0  0  0  0
    8.7859   -0.6124    6.3431 C   0  0  2  0  0  0  0  0  0  0  0  0
    9.1948   -1.3852    5.0818 C   0  0  2  0  0  0  0  0  0  0  0  0
    8.3971   -2.6345    4.9676 N   0  3  0  0  0  0  0  0  0  0  0  0
   10.6998   -1.6726    5.0823 C   0  0  1  0  0  0  0  0  0  0  0  0
   11.4170   -0.4635    4.8721 O   0  0  0  0  0  0  0  0  0  0  0  0
   11.1408   -2.3085    6.4042 C   0  0  2  0  0  0  0  0  0  0  0  0
   10.6087   -3.6220    6.5222 O   0  0  0  0  0  0  0  0  0  0  0  0
   10.6662   -1.4477    7.5714 C   0  0  1  0  0  0  0  0  0  0  0  0
    9.2352   -1.2912    7.5087 O   0  0  0  0  0  0  0  0  0  0  0  0
   11.0144   -2.0336    8.9284 C   0  0  0  0  0  0  0  0  0  0  0  0
   10.2675   -3.2820    9.1993 N   0  3  0  0  0  0  0  0  0  0  0  0
    9.5102    4.3167   -0.4502 C   0  0  0  0  0  0  0  0  0  0  0  0
    7.3978    4.2246    2.5923 C   0  0  2  0  0  0  0  0  0  0  0  0
    8.0856    5.2760    3.4597 C   0  0  2  0  0  0  0  0  0  0  0  0
    7.1659    5.7451    4.5235 N   0  3  0  0  0  0  0  0  0  0  0  0
    8.5153    6.4615    2.6058 C   0  0  1  0  0  0  0  0  0  0  0  0
    9.2211    7.3953    3.4084 O   0  0  0  0  0  0  0  0  0  0  0  0
    9.4036    5.9732    1.4637 C   0  0  2  0  0  0  0  0  0  0  0  0
    9.7525    7.0644    0.6217 O   0  0  0  0  0  0  0  0  0  0  0  0
    8.7102    3.4531   -1.3486 N   0  3  0  0  0  0  0  0  0  0  0  0
    8.6560    4.9160    0.6534 C   0  0  2  0  0  0  0  0  0  0  0  0
    8.2417    3.8341    1.5122 O   0  0  0  0  0  0  0  0  0  0  0  0
    2.5996    2.6614    1.0871 C   0  0  2  0  0  0  0  0  0  0  0  0
    1.6888    1.6728    0.4654 N   0  3  0  0  0  0  0  0  0  0  0  0
    3.3493    3.4314    0.0058 C   0  0  0  0  0  0  0  0  0  0  0  0
    4.2916    4.4505    0.6308 C   0  0  2  0  0  0  0  0  0  0  0  0
    4.9726    5.1496   -0.4498 N   0  3  0  0  0  0  0  0  0  0  0  0
    5.2944    3.7402    1.5370 C   0  0  1  0  0  0  0  0  0  0  0  0
    6.1643    4.7141    2.1464 O   0  0  0  0  0  0  0  0  0  0  0  0
    4.5705    2.9459    2.6330 C   0  0  2  0  0  0  0  0  0  0  0  0
    5.5369    2.2064    3.4035 O   0  0  0  0  0  0  0  0  0  0  0  0
    3.5677    1.9602    2.0385 C   0  0  1  0  0  0  0  0  0  0  0  0
    2.8352    1.3388    3.0862 O   0  0  0  0  0  0  0  0  0  0  0  0
  1  2  1  0  0  0  0
  3  2  1  6  0  0  0
  3  5  1  0  0  0  0
  3  4  1  0  0  0  0
  4  9  1  0  0  0  0
  5  7  1  0  0  0  0
  5  6  1  1  0  0  0
  7  9  1  0  0  0  0
  7  8  1  1  0  0  0
  9 40  1  6  0  0  0
 10  6  1  1  0  0  0
 10 11  1  0  0  0  0
 10 18  1  0  0  0  0
 11 13  1  0  0  0  0
 11 12  1  1  0  0  0
 13 15  1  0  0  0  0
 13 14  1  1  0  0  0
 15 17  1  0  0  0  0
 15 16  1  1  0  0  0
 17 19  1  1  0  0  0
 17 18  1  0  0  0  0
 19 20  1  0  0  0  0
 21 29  1  0  0  0  0
 22 23  1  0  0  0  0
 22 31  1  0  0  0  0
 22 38  1  6  0  0  0
 23 25  1  0  0  0  0
 23 24  1  1  0  0  0
 25 27  1  0  0  0  0
 25 26  1  1  0  0  0
 27 30  1  0  0  0  0
 27 28  1  6  0  0  0
 30 21  1  6  0  0  0
 30 31  1  0  0  0  0
 32 34  1  0  0  0  0
 32 41  1  0  0  0  0
 32 33  1  6  0  0  0
 34 35  1  0  0  0  0
 35 37  1  0  0  0  0
 35 36  1  6  0  0  0
 37 39  1  0  0  0  0
 37 38  1  1  0  0  0
 39 41  1  0  0  0  0
 39 40  1  6  0  0  0
 41 42  1  1  0  0  0
M  CHG  6  12   1  20   1  24   1  29   1  33   1  36   1
M  END
>  <CHROM.1>
-60.37194001,66.64011697,-76.43475678,-77.04704248,-54.60941946,-114.89730793
157.49548571,-57.74647679,75.36265003,-67.50326494,53.07325968,-171.26024554
63.84370401,-168.42947566,167.81942743,-171.71502752,64.30787210,179.94098713
-37.69153955,-157.61633601,140.26454128,-62.41687657,7.43382597,2.05356655
3.84593964,-1.15785318,-0.27959624,-0.63206188

>  <Name>
1NEM.B

>  <RI>
0

>  <Rbt.Current_Directory>
/home/itssahil/PROJECTS/Mol_Feturizer/New_Systems/rnas/1nem

>  <Rbt.Executable>
rbdock ($Id: //depot/dev/client3/rdock/2013.1/src/exe/rbdock.cxx#4 $)

>  <Rbt.Library>
libRbt.so (2013.1, Build901 2013/11/27)

>  <Rbt.Parameter_File>
/export/apps/rDock/src/rDock_2013.1_src/data/scripts/dock_solv.prm

>  <Rbt.Receptor>
prm/pocket_docking_8.prm

>  <SCORE>
-17.2835

>  <SCORE.INTER>
-15.2856

>  <SCORE.INTER.CONST>
1

>  <SCORE.INTER.POLAR>
-3.04448

>  <SCORE.INTER.ROT>
9

>  <SCORE.INTER.SOLV>
19.2636

>  <SCORE.INTER.VDW>
-16.0634

>  <SCORE.INTER.norm>
-0.363943

>  <SCORE.INTRA>
-1.99786

>  <SCORE.INTRA.DIHEDRAL>
1.16396

>  <SCORE.INTRA.DIHEDRAL.0>
22.4324

>  <SCORE.INTRA.POLAR>
-0.746878

>  <SCORE.INTRA.POLAR.0>
-1.83749

>  <SCORE.INTRA.REPUL>
0

>  <SCORE.INTRA.REPUL.0>
0

>  <SCORE.INTRA.SOLV>
-1.6818

>  <SCORE.INTRA.SOLV.lig_0>
-160.638

>  <SCORE.INTRA.VDW>
0.800447

>  <SCORE.INTRA.VDW.0>
-7.61953

>  <SCORE.INTRA.norm>
-0.0475681

>  <SCORE.RESTR>
0

>  <SCORE.RESTR.CAVITY>
0

>  <SCORE.RESTR.norm>
0

>  <SCORE.SYSTEM>
0

>  <SCORE.SYSTEM.CONST>
0

>  <SCORE.SYSTEM.DIHEDRAL>
0

>  <SCORE.SYSTEM.SOLV>
0

>  <SCORE.SYSTEM.norm>
0

>  <SCORE.heavy>
42

>  <SCORE.norm>
-0.411512

>  <RMSD>
10.126

$$$$
1NEM.B
 OpenBabel11021811403D
libRbt.so/2013.1/901 2013/11/27
 42 45  0  0  0  0  0  0  0  0999 V2000
   -7.0887   -2.4465    5.0649 O   0  0  0  0  0  0  0  0  0  0  0  0
   -6.3716   -3.5780    4.5673 C   0  0  0  0  0  0  0  0  0  0  0  0
   -6.4036   -3.6837    3.0433 C   0  0  1  0  0  0  0  0  0  0  0  0
   -5.7758   -2.5526    2.4468 O   0  0  0  0  0  0  0  0  0  0  0  0
   -5.6210   -4.8554    2.4720 C   0  0  1  0  0  0  0  0  0  0  0  0
   -6.3585   -6.0435    2.7681 O   0  0  0  0  0  0  0  0  0  0  0  0
   -5.5827   -4.4280    1.0168 C   0  0  1  0  0  0  0  0  0  0  0  0
   -6.8687   -4.5146    0.3941 O   0  0  0  0  0  0  0  0  0  0  0  0
   -5.1876   -2.9593    1.2110 C   0  0  2  0  0  0  0  0  0  0  0  0
   -7.5683   -6.2069    2.0847 C   0  0  2  0  0  0  0  0  0  0  0  0
   -8.6702   -5.4248    2.8122 C   0  0  2  0  0  0  0  0  0  0  0  0
   -8.7112   -5.8150    4.2462 N   0  3  0  0  0  0  0  0  0  0  0  0
  -10.0266   -5.6314    2.1303 C   0  0  1  0  0  0  0  0  0  0  0  0
  -10.0379   -4.9617    0.8765 O   0  0  0  0  0  0  0  0  0  0  0  0
  -10.3187   -7.1203    1.9202 C   0  0  2  0  0  0  0  0  0  0  0  0
  -10.5373   -7.7620    3.1703 O   0  0  0  0  0  0  0  0  0  0  0  0
   -9.1462   -7.7762    1.1963 C   0  0  1  0  0  0  0  0  0  0  0  0
   -7.9355   -7.5738    1.9508 O   0  0  0  0  0  0  0  0  0  0  0  0
   -9.3276   -9.2702    0.9933 C   0  0  0  0  0  0  0  0  0  0  0  0
  -10.0335   -9.5741   -0.2713 N   0  3  0  0  0  0  0  0  0  0  0  0
    2.7246   -0.1762    1.6093 C   0  0  0  0  0  0  0  0  0  0  0  0
    0.1833   -2.6545    0.5477 C   0  0  2  0  0  0  0  0  0  0  0  0
    0.7473   -3.9345    1.1596 C   0  0  2  0  0  0  0  0  0  0  0  0
   -0.3144   -4.9637    1.2656 N   0  3  0  0  0  0  0  0  0  0  0  0
    1.3130   -3.6492    2.5444 C   0  0  1  0  0  0  0  0  0  0  0  0
    1.9030   -4.8283    3.0698 O   0  0  0  0  0  0  0  0  0  0  0  0
    2.3550   -2.5368    2.4514 C   0  0  2  0  0  0  0  0  0  0  0  0
    2.8380   -2.2165    3.7497 O   0  0  0  0  0  0  0  0  0  0  0  0
    3.7943   -0.5697    0.6638 N   0  3  0  0  0  0  0  0  0  0  0  0
    1.7233   -1.2991    1.8171 C   0  0  2  0  0  0  0  0  0  0  0  0
    1.1734   -1.6296    0.5256 O   0  0  0  0  0  0  0  0  0  0  0  0
   -3.7527    0.7655    0.1998 C   0  0  2  0  0  0  0  0  0  0  0  0
   -4.7494    1.5393   -0.5756 N   0  3  0  0  0  0  0  0  0  0  0  0
   -2.4439    0.6759   -0.5768 C   0  0  0  0  0  0  0  0  0  0  0  0
   -1.4099   -0.1193    0.2079 C   0  0  2  0  0  0  0  0  0  0  0  0
   -0.1887   -0.1663   -0.5839 N   0  3  0  0  0  0  0  0  0  0  0  0
   -1.9368   -1.5263    0.4801 C   0  0  1  0  0  0  0  0  0  0  0  0
   -0.9645   -2.2629    1.2471 O   0  0  0  0  0  0  0  0  0  0  0  0
   -3.2616   -1.4714    1.2535 C   0  0  2  0  0  0  0  0  0  0  0  0
   -3.7829   -2.8058    1.4020 O   0  0  0  0  0  0  0  0  0  0  0  0
   -4.3001   -0.6238    0.5229 C   0  0  1  0  0  0  0  0  0  0  0  0
   -5.4632   -0.4983    1.3305 O   0  0  0  0  0  0  0  0  0  0  0  0
  1  2  1  0  0  0  0
  3  2  1  1  0  0  0
  3  5  1  0  0  0  0
  3  4  1  0  0  0  0
  4  9  1  0  0  0  0
  5  7  1  0  0  0  0
  5  6  1  6  0  0  0
  7  9  1  0  0  0  0
  7  8  1  1  0  0  0
  9 40  1  1  0  0  0
 10  6  1  1  0  0  0
 10 11  1  0  0  0  0
 10 18  1  0  0  0  0
 11 13  1  0  0  0  0
 11 12  1  1  0  0  0
 13 15  1  0  0  0  0
 13 14  1  6  0  0  0
 15 17  1  0  0  0  0
 15 16  1  1  0  0  0
 17 19  1  1  0  0  0
 17 18  1  0  0  0  0
 19 20  1  0  0  0  0
 21 29  1  0  0  0  0
 22 23  1  0  0  0  0
 22 31  1  0  0  0  0
 22 38  1  1  0  0  0
 23 25  1  0  0  0  0
 23 24  1  1  0  0  0
 25 27  1  0  0  0  0
 25 26  1  6  0  0  0
 27 30  1  0  0  0  0
 27 28  1  1  0  0  0
 30 21  1  6  0  0  0
 30 31  1  0  0  0  0
 32 34  1  0  0  0  0
 32 41  1  0  0  0  0
 32 33  1  6  0  0  0
 34 35  1  0  0  0  0
 35 37  1  0  0  0  0
 35 36  1  6  0  0  0
 37 39  1  0  0  0  0
 37 38  1  1  0  0  0
 39 41  1  0  0  0  0
 39 40  1  6  0  0  0
 41 42  1  1  0  0  0
M  CHG  6  12   1  20   1  24   1  29   1  33   1  36   1
M  END
>  <CHROM.1>
66.31657684,62.30009852,69.29272928,-83.16900403,69.17761844,-80.68271597
38.17048119,62.76903263,-102.11810595,88.64628642,-171.24763547,63.03467490
171.16188718,-151.39843268,-50.96700542,-62.93531978,177.46947457,-165.13456725
30.58898907,-72.38046270,-138.35451233,85.70479536,-4.09229825,-3.51900737
1.63567653,2.66938510,0.06580245,2.86674988

>  <Name>
1NEM.B

>  <RI>
0

>  <Rbt.Current_Directory>
/home/itssahil/PROJECTS/Mol_Feturizer/New_Systems/rnas/1nem

>  <Rbt.Executable>
rbdock ($Id: //depot/dev/client3/rdock/2013.1/src/exe/rbdock.cxx#4 $)

>  <Rbt.Library>
libRbt.so (2013.1, Build901 2013/11/27)

>  <Rbt.Parameter_File>
/export/apps/rDock/src/rDock_2013.1_src/data/scripts/dock_solv.prm

>  <Rbt.Receptor>
prm/blind_docking_20.prm

>  <SCORE>
-14.8328

>  <SCORE.INTER>
-47.5442

>  <SCORE.INTER.CONST>
1

>  <SCORE.INTER.POLAR>
-8.40185

>  <SCORE.INTER.ROT>
9

>  <SCORE.INTER.SOLV>
37.5864

>  <SCORE.INTER.VDW>
-25.8188

>  <SCORE.INTER.norm>
-1.132

>  <SCORE.INTRA>
28.052

>  <SCORE.INTRA.DIHEDRAL>
8.36955

>  <SCORE.INTRA.DIHEDRAL.0>
22.4324

>  <SCORE.INTRA.POLAR>
1.19952

>  <SCORE.INTRA.POLAR.0>
-1.83749

>  <SCORE.INTRA.REPUL>
0

>  <SCORE.INTRA.REPUL.0>
0

>  <SCORE.INTRA.SOLV>
1.63231

>  <SCORE.INTRA.SOLV.lig_0>
-160.638

>  <SCORE.INTRA.VDW>
18.9727

>  <SCORE.INTRA.VDW.0>
-7.61953

>  <SCORE.INTRA.norm>
0.667904

>  <SCORE.RESTR>
4.65946

>  <SCORE.RESTR.CAVITY>
4.65946

>  <SCORE.RESTR.norm>
0.110939

>  <SCORE.SYSTEM>
0

>  <SCORE.SYSTEM.CONST>
0

>  <SCORE.SYSTEM.DIHEDRAL>
0

>  <SCORE.SYSTEM.SOLV>
0

>  <SCORE.SYSTEM.norm>
0

>  <SCORE.heavy>
42

>  <SCORE.norm>
-0.353161

>  <RMSD>
10.128

$$$$
1NEM.B
 OpenBabel11021811403D
libRbt.so/2013.1/901 2013/11/27
 42 45  0  0  0  0  0  0  0  0999 V2000
    7.7423   -0.1087    3.6166 O   0  0  0  0  0  0  0  0  0  0  0  0
    6.9130    1.0163    3.3186 C   0  0  0  0  0  0  0  0  0  0  0  0
    5.5000    0.8849    3.8852 C   0  0  1  0  0  0  0  0  0  0  0  0
    5.5405    0.6546    5.2905 O   0  0  0  0  0  0  0  0  0  0  0  0
    4.6488    2.1388    3.7642 C   0  0  1  0  0  0  0  0  0  0  0  0
    4.2966    2.2817    2.3863 O   0  0  0  0  0  0  0  0  0  0  0  0
    3.5280    1.7570    4.7128 C   0  0  1  0  0  0  0  0  0  0  0  0
    2.7064    0.7102    4.1851 O   0  0  0  0  0  0  0  0  0  0  0  0
    4.3728    1.2287    5.8782 C   0  0  2  0  0  0  0  0  0  0  0  0
    5.2940    2.7807    1.5416 C   0  0  2  0  0  0  0  0  0  0  0  0
    5.2150    4.3132    1.5155 C   0  0  2  0  0  0  0  0  0  0  0  0
    3.8358    4.7473    1.1695 N   0  3  0  0  0  0  0  0  0  0  0  0
    6.2511    4.8963    0.5492 C   0  0  1  0  0  0  0  0  0  0  0  0
    7.5554    4.7275    1.0885 O   0  0  0  0  0  0  0  0  0  0  0  0
    6.1706    4.2192   -0.8224 C   0  0  2  0  0  0  0  0  0  0  0  0
    4.9566    4.5686   -1.4753 O   0  0  0  0  0  0  0  0  0  0  0  0
    6.2534    2.7048   -0.6528 C   0  0  1  0  0  0  0  0  0  0  0  0
    5.2013    2.2564    0.2235 O   0  0  0  0  0  0  0  0  0  0  0  0
    6.1268    1.9475   -1.9630 C   0  0  0  0  0  0  0  0  0  0  0  0
    4.7416    1.9712   -2.4831 N   0  3  0  0  0  0  0  0  0  0  0  0
    5.7530    5.2611    9.8137 C   0  0  0  0  0  0  0  0  0  0  0  0
    3.4923    2.3842   10.3969 C   0  0  2  0  0  0  0  0  0  0  0  0
    2.1795    3.0998   10.7057 C   0  0  2  0  0  0  0  0  0  0  0  0
    1.0353    2.1759   10.5195 N   0  3  0  0  0  0  0  0  0  0  0  0
    2.0098    4.3039    9.7889 C   0  0  1  0  0  0  0  0  0  0  0  0
    0.8256    5.0044   10.1374 O   0  0  0  0  0  0  0  0  0  0  0  0
    3.2223    5.2226    9.9223 C   0  0  2  0  0  0  0  0  0  0  0  0
    3.1041    6.3139    9.0187 O   0  0  0  0  0  0  0  0  0  0  0  0
    6.9743    4.4425    9.6366 N   0  3  0  0  0  0  0  0  0  0  0  0
    4.4943    4.4348    9.6149 C   0  0  2  0  0  0  0  0  0  0  0  0
    4.5903    3.2886   10.4849 O   0  0  0  0  0  0  0  0  0  0  0  0
    7.4700    0.5617    8.8061 C   0  0  2  0  0  0  0  0  0  0  0  0
    8.6675   -0.2197    8.4205 N   0  3  0  0  0  0  0  0  0  0  0  0
    6.5066   -0.3170    9.5960 C   0  0  0  0  0  0  0  0  0  0  0  0
    5.2689    0.4730    9.9975 C   0  0  2  0  0  0  0  0  0  0  0  0
    4.3944   -0.4183   10.7464 N   0  3  0  0  0  0  0  0  0  0  0  0
    4.5665    1.0036    8.7499 C   0  0  1  0  0  0  0  0  0  0  0  0
    3.4125    1.7736    9.1396 O   0  0  0  0  0  0  0  0  0  0  0  0
    5.5140    1.8859    7.9254 C   0  0  2  0  0  0  0  0  0  0  0  0
    4.8564    2.2834    6.7070 O   0  0  0  0  0  0  0  0  0  0  0  0
    6.7968    1.1417    7.5633 C   0  0  1  0  0  0  0  0  0  0  0  0
    7.6933    2.0312    6.9109 O   0  0  0  0  0  0  0  0  0  0  0  0
  1  2  1  0  0  0  0
  3  2  1  1  0  0  0
  3  5  1  0  0  0  0
  3  4  1  0  0  0  0
  4  9  1  0  0  0  0
  5  7  1  0  0  0  0
  5  6  1  6  0  0  0
  7  9  1  0  0  0  0
  7  8  1  6  0  0  0
  9 40  1  1  0  0  0
 10  6  1  1  0  0  0
 10 11  1  0  0  0  0
 10 18  1  0  0  0  0
 11 13  1  0  0  0  0
 11 12  1  6  0  0  0
 13 15  1  0  0  0  0
 13 14  1  1  0  0  0
 15 17  1  0  0  0  0
 15 16  1  1  0  0  0
 17 19  1  6  0  0  0
 17 18  1  0  0  0  0
 19 20  1  0  0  0  0
 21 29  1  0  0  0  0
 22 23  1  0  0  0  0
 22 31  1  0  0  0  0
 22 38  1  6  0  0  0
 23 25  1  0  0  0  0
 23 24  1  6  0  0  0
 25 27  1  0  0  0  0
 25 26  1  1  0  0  0
 27 30  1  0  0  0  0
 27 28  1  6  0  0  0
 30 21  1  1  0  0  0
 30 31  1  0  0  0  0
 32 34  1  0  0  0  0
 32 41  1  0  0  0  0
 32 33  1  6  0  0  0
 34 35  1  0  0  0  0
 35 37  1  0  0  0  0
 35 36  1  6  0  0  0
 37 39  1  0  0  0  0
 37 38  1  1  0  0  0
 39 41  1  0  0  0  0
 39 40  1  6  0  0  0
 41 42  1  1  0  0  0
M  CHG  6  12   1  20   1  24   1  29   1  33   1  36   1
M  END
>  <CHROM.1>
67.59233682,55.47662393,-77.30201303,-88.86084442,-171.53384903,-73.16335121
-30.30838532,61.15291346,61.18766450,-72.73606381,-177.56046117,174.53707634
-61.73522125,-177.05172658,-44.08062216,-144.48649865,-63.01457166,68.84832213
-175.10130586,27.96408805,-56.35713834,64.43722478,4.98321119,2.51869256
5.69562770,-1.35234765,-0.81039978,1.76524840

>  <Name>
1NEM.B

>  <RI>
0

>  <Rbt.Current_Directory>
/home/itssahil/PROJECTS/Mol_Feturizer/New_Systems/rnas/1nem

>  <Rbt.Executable>
rbdock ($Id: //depot/dev/client3/rdock/2013.1/src/exe/rbdock.cxx#4 $)

>  <Rbt.Library>
libRbt.so (2013.1, Build901 2013/11/27)

>  <Rbt.Parameter_File>
/export/apps/rDock/src/rDock_2013.1_src/data/scripts/dock_solv.prm

>  <Rbt.Receptor>
prm/pocket_docking_7.prm

>  <SCORE>
-22.5734

>  <SCORE.INTER>
-30.6701

>  <SCORE.INTER.CONST>
1

>  <SCORE.INTER.POLAR>
-5.4872

>  <SCORE.INTER.ROT>
9

>  <SCORE.INTER.SOLV>
16.4421

>  <SCORE.INTER.VDW>
-17.2368

>  <SCORE.INTER.norm>
-0.730241

>  <SCORE.INTRA>
8.09667

>  <SCORE.INTRA.DIHEDRAL>
-3.20704

>  <SCORE.INTRA.DIHEDRAL.0>
22.4324

>  <SCORE.INTRA.POLAR>
1.16623

>  <SCORE.INTRA.POLAR.0>
-1.83749

>  <SCORE.INTRA.REPUL>
0

>  <SCORE.INTRA.REPUL.0>
0

>  <SCORE.INTRA.SOLV>
-1.03793

>  <SCORE.INTRA.SOLV.lig_0>
-160.638

>  <SCORE.INTRA.VDW>
6.25395

>  <SCORE.INTRA.VDW.0>
-7.61953

>  <SCORE.INTRA.norm>
0.192778

>  <SCORE.RESTR>
0

>  <SCORE.RESTR.CAVITY>
0

>  <SCORE.RESTR.norm>
0

>  <SCORE.SYSTEM>
0

>  <SCORE.SYSTEM.CONST>
0

>  <SCORE.SYSTEM.DIHEDRAL>
0

>  <SCORE.SYSTEM.SOLV>
0

>  <SCORE.SYSTEM.norm>
0

>  <SCORE.heavy>
42

>  <SCORE.norm>
-0.537463

>  <RMSD>
10.150

$$$$
1NEM.B
 OpenBabel11021811403D
libRbt.so/2013.1/901 2013/11/27
 42 45  0  0  0  0  0  0  0  0999 V2000
    1.8922    6.2868   -0.8771 O   0  0  0  0  0  0  0  0  0  0  0  0
    2.5967    5.9007    0.3048 C   0  0  0  0  0  0  0  0  0  0  0  0
    3.7517    4.9400    0.0260 C   0  0  1  0  0  0  0  0  0  0  0  0
    4.5273    4.7303    1.2024 O   0  0  0  0  0  0  0  0  0  0  0  0
    3.3268    3.5333   -0.3639 C   0  0  1  0  0  0  0  0  0  0  0  0
    2.8011    3.6010   -1.6915 O   0  0  0  0  0  0  0  0  0  0  0  0
    4.6603    2.8286   -0.1994 C   0  0  1  0  0  0  0  0  0  0  0  0
    5.6026    3.2134   -1.2060 O   0  0  0  0  0  0  0  0  0  0  0  0
    5.0705    3.4106    1.1584 C   0  0  2  0  0  0  0  0  0  0  0  0
    1.5925    2.9321   -1.9129 C   0  0  2  0  0  0  0  0  0  0  0  0
    1.7140    2.0732   -3.1790 C   0  0  2  0  0  0  0  0  0  0  0  0
    2.1784    2.9072   -4.3188 N   0  3  0  0  0  0  0  0  0  0  0  0
    0.3875    1.3737   -3.4929 C   0  0  1  0  0  0  0  0  0  0  0  0
    0.1440    0.3571   -2.5297 O   0  0  0  0  0  0  0  0  0  0  0  0
   -0.7761    2.3699   -3.4940 C   0  0  2  0  0  0  0  0  0  0  0  0
   -0.6644    3.2586   -4.5984 O   0  0  0  0  0  0  0  0  0  0  0  0
   -0.7769    3.1596   -2.1882 C   0  0  1  0  0  0  0  0  0  0  0  0
    0.4907    3.8239   -2.0219 O   0  0  0  0  0  0  0  0  0  0  0  0
   -1.8695    4.2124   -2.1254 C   0  0  0  0  0  0  0  0  0  0  0  0
   -1.6810    5.2656   -3.1477 N   0  3  0  0  0  0  0  0  0  0  0  0
    7.7806    3.6368    6.9003 C   0  0  0  0  0  0  0  0  0  0  0  0
    7.1176    3.3641    3.2653 C   0  0  2  0  0  0  0  0  0  0  0  0
    8.3903    3.9782    2.6874 C   0  0  2  0  0  0  0  0  0  0  0  0
    8.5629    3.5662    1.2739 N   0  3  0  0  0  0  0  0  0  0  0  0
    9.6020    3.5313    3.4944 C   0  0  1  0  0  0  0  0  0  0  0  0
   10.7677    4.1694    2.9960 O   0  0  0  0  0  0  0  0  0  0  0  0
    9.3961    3.8875    4.9650 C   0  0  2  0  0  0  0  0  0  0  0  0
   10.4919    3.4118    5.7360 O   0  0  0  0  0  0  0  0  0  0  0  0
    7.6214    5.1016    7.0486 N   0  3  0  0  0  0  0  0  0  0  0  0
    8.1000    3.2531    5.4660 C   0  0  2  0  0  0  0  0  0  0  0  0
    6.9908    3.6801    4.6492 O   0  0  0  0  0  0  0  0  0  0  0  0
    3.9944   -0.8945    3.2033 C   0  0  2  0  0  0  0  0  0  0  0  0
    2.7981   -1.6329    3.6691 N   0  3  0  0  0  0  0  0  0  0  0  0
    5.0775   -0.9276    4.2756 C   0  0  0  0  0  0  0  0  0  0  0  0
    6.3134   -0.1700    3.8111 C   0  0  2  0  0  0  0  0  0  0  0  0
    7.3056   -0.2404    4.8745 N   0  3  0  0  0  0  0  0  0  0  0  0
    5.9463    1.2800    3.5040 C   0  0  1  0  0  0  0  0  0  0  0  0
    7.1149    1.9826    3.0382 O   0  0  0  0  0  0  0  0  0  0  0  0
    4.8489    1.3486    2.4329 C   0  0  2  0  0  0  0  0  0  0  0  0
    4.4532    2.7205    2.2427 O   0  0  0  0  0  0  0  0  0  0  0  0
    3.6190    0.5414    2.8409 C   0  0  1  0  0  0  0  0  0  0  0  0
    2.6826    0.5304    1.7715 O   0  0  0  0  0  0  0  0  0  0  0  0
  1  2  1  0  0  0  0
  3  2  1  1  0  0  0
  3  5  1  0  0  0  0
  3  4  1  0  0  0  0
  4  9  1  0  0  0  0
  5  7  1  0  0  0  0
  5  6  1  6  0  0  0
  7  9  1  0  0  0  0
  7  8  1  6  0  0  0
  9 40  1  1  0  0  0
 10  6  1  6  0  0  0
 10 11  1  0  0  0  0
 10 18  1  0  0  0  0
 11 13  1  0  0  0  0
 11 12  1  6  0  0  0
 13 15  1  0  0  0  0
 13 14  1  1  0  0  0
 15 17  1  0  0  0  0
 15 16  1  6  0  0  0
 17 19  1  6  0  0  0
 17 18  1  0  0  0  0
 19 20  1  0  0  0  0
 21 29  1  0  0  0  0
 22 23  1  0  0  0  0
 22 31  1  0  0  0  0
 22 38  1  1  0  0  0
 23 25  1  0  0  0  0
 23 24  1  6  0  0  0
 25 27  1  0  0  0  0
 25 26  1  6  0  0  0
 27 30  1  0  0  0  0
 27 28  1  1  0  0  0
 30 21  1  1  0  0  0
 30 31  1  0  0  0  0
 32 34  1  0  0  0  0
 32 41  1  0  0  0  0
 32 33  1  1  0  0  0
 34 35  1  0  0  0  0
 35 37  1  0  0  0  0
 35 36  1  1  0  0  0
 37 39  1  0  0  0  0
 37 38  1  6  0  0  0
 39 41  1  0  0  0  0
 39 40  1  1  0  0  0
 41 42  1  6  0  0  0
M  CHG  6  12   1  20   1  24   1  29   1  33   1  36   1
M  END
>  <CHROM.1>
66.68002589,172.16478995,-133.82702731,-131.82993343,-63.91767569,-179.23830590
-72.91998452,-176.73294257,72.52819956,-64.26763575,170.15605070,60.16488077
-51.49415045,-178.38762434,58.28530623,-63.87943567,177.99534808,103.06743761
-178.68708422,-153.33312849,96.52688563,-173.52970243,4.37605165,2.79238802
1.15167252,-2.72838974,0.64968572,2.56538552

>  <Name>
1NEM.B

>  <RI>
0

>  <Rbt.Current_Directory>
/home/itssahil/PROJECTS/Mol_Feturizer/New_Systems/rnas/1nem

>  <Rbt.Executable>
rbdock ($Id: //depot/dev/client3/rdock/2013.1/src/exe/rbdock.cxx#4 $)

>  <Rbt.Library>
libRbt.so (2013.1, Build901 2013/11/27)

>  <Rbt.Parameter_File>
/export/apps/rDock/src/rDock_2013.1_src/data/scripts/dock_solv.prm

>  <Rbt.Receptor>
prm/pocket_docking_7.prm

>  <SCORE>
-23.2984

>  <SCORE.INTER>
-23.7616

>  <SCORE.INTER.CONST>
1

>  <SCORE.INTER.POLAR>
-3.56406

>  <SCORE.INTER.ROT>
9

>  <SCORE.INTER.SOLV>
18.7033

>  <SCORE.INTER.VDW>
-19.7953

>  <SCORE.INTER.norm>
-0.565752

>  <SCORE.INTRA>
0.463174

>  <SCORE.INTRA.DIHEDRAL>
3.93057

>  <SCORE.INTRA.DIHEDRAL.0>
22.4324

>  <SCORE.INTRA.POLAR>
-0.574653

>  <SCORE.INTRA.POLAR.0>
-1.83749

>  <SCORE.INTRA.REPUL>
0

>  <SCORE.INTRA.REPUL.0>
0

>  <SCORE.INTRA.SOLV>
-1.37341

>  <SCORE.INTRA.SOLV.lig_0>
-160.638

>  <SCORE.INTRA.VDW>
1.13842

>  <SCORE.INTRA.VDW.0>
-7.61953

>  <SCORE.INTRA.norm>
0.011028

>  <SCORE.RESTR>
0

>  <SCORE.RESTR.CAVITY>
0

>  <SCORE.RESTR.norm>
0

>  <SCORE.SYSTEM>
0

>  <SCORE.SYSTEM.CONST>
0

>  <SCORE.SYSTEM.DIHEDRAL>
0

>  <SCORE.SYSTEM.SOLV>
0

>  <SCORE.SYSTEM.norm>
0

>  <SCORE.heavy>
42

>  <SCORE.norm>
-0.554724

>  <RMSD>
10.193

$$$$
1NEM.B
 OpenBabel11021811403D
libRbt.so/2013.1/901 2013/11/27
 42 45  0  0  0  0  0  0  0  0999 V2000
   -7.7861   -5.0893   -0.9951 O   0  0  0  0  0  0  0  0  0  0  0  0
   -6.6878   -4.2801   -0.5695 C   0  0  0  0  0  0  0  0  0  0  0  0
   -5.8768   -4.9173    0.5579 C   0  0  1  0  0  0  0  0  0  0  0  0
   -4.4867   -4.9071    0.2461 O   0  0  0  0  0  0  0  0  0  0  0  0
   -5.9398   -4.1745    1.8830 C   0  0  1  0  0  0  0  0  0  0  0  0
   -7.2425   -4.3912    2.4298 O   0  0  0  0  0  0  0  0  0  0  0  0
   -4.7859   -4.8575    2.5928 C   0  0  1  0  0  0  0  0  0  0  0  0
   -5.0852   -6.2171    2.9262 O   0  0  0  0  0  0  0  0  0  0  0  0
   -3.7491   -4.8063    1.4644 C   0  0  2  0  0  0  0  0  0  0  0  0
   -7.6424   -5.7251    2.5652 C   0  0  2  0  0  0  0  0  0  0  0  0
   -8.7000   -6.0468    1.5006 C   0  0  2  0  0  0  0  0  0  0  0  0
   -9.8083   -5.0581    1.5672 N   0  3  0  0  0  0  0  0  0  0  0  0
   -9.2120   -7.4824    1.6570 C   0  0  1  0  0  0  0  0  0  0  0  0
   -8.1934   -8.3971    1.2746 O   0  0  0  0  0  0  0  0  0  0  0  0
   -9.6389   -7.7629    3.1011 C   0  0  2  0  0  0  0  0  0  0  0  0
  -10.8052   -7.0168    3.4252 O   0  0  0  0  0  0  0  0  0  0  0  0
   -8.5040   -7.3945    4.0526 C   0  0  1  0  0  0  0  0  0  0  0  0
   -8.1424   -6.0125    3.8645 O   0  0  0  0  0  0  0  0  0  0  0  0
   -8.8612   -7.5906    5.5154 C   0  0  0  0  0  0  0  0  0  0  0  0
   -9.8065   -6.5587    5.9964 N   0  3  0  0  0  0  0  0  0  0  0  0
    0.0340   -1.2136    0.7397 C   0  0  0  0  0  0  0  0  0  0  0  0
   -3.3293    0.1849    1.4175 C   0  0  2  0  0  0  0  0  0  0  0  0
   -3.4495    1.2171    0.2991 C   0  0  2  0  0  0  0  0  0  0  0  0
   -4.8715    1.5751    0.0817 N   0  3  0  0  0  0  0  0  0  0  0  0
   -2.8663    0.6610   -0.9931 C   0  0  1  0  0  0  0  0  0  0  0  0
   -2.9132    1.6565   -2.0037 O   0  0  0  0  0  0  0  0  0  0  0  0
   -1.4233    0.2217   -0.7550 C   0  0  2  0  0  0  0  0  0  0  0  0
   -0.8939   -0.3623   -1.9383 O   0  0  0  0  0  0  0  0  0  0  0  0
    0.0431   -2.3061    1.7394 N   0  3  0  0  0  0  0  0  0  0  0  0
   -1.3820   -0.7950    0.3842 C   0  0  2  0  0  0  0  0  0  0  0  0
   -1.9757   -0.2331    1.5722 O   0  0  0  0  0  0  0  0  0  0  0  0
   -3.8171   -2.6808    4.9950 C   0  0  2  0  0  0  0  0  0  0  0  0
   -4.0917   -3.5456    6.1655 N   0  3  0  0  0  0  0  0  0  0  0  0
   -5.0154   -1.7791    4.7209 C   0  0  0  0  0  0  0  0  0  0  0  0
   -4.7481   -0.8854    3.5179 C   0  0  2  0  0  0  0  0  0  0  0  0
   -5.9242   -0.0522    3.3113 N   0  3  0  0  0  0  0  0  0  0  0  0
   -4.4664   -1.7446    2.2875 C   0  0  1  0  0  0  0  0  0  0  0  0
   -4.1867   -0.8916    1.1603 O   0  0  0  0  0  0  0  0  0  0  0  0
   -3.2693   -2.6731    2.5343 C   0  0  2  0  0  0  0  0  0  0  0  0
   -3.0961   -3.5405    1.3975 O   0  0  0  0  0  0  0  0  0  0  0  0
   -3.4789   -3.5369    3.7756 C   0  0  1  0  0  0  0  0  0  0  0  0
   -2.3001   -4.2872    4.0360 O   0  0  0  0  0  0  0  0  0  0  0  0
  1  2  1  0  0  0  0
  3  2  1  6  0  0  0
  3  5  1  0  0  0  0
  3  4  1  0  0  0  0
  4  9  1  0  0  0  0
  5  7  1  0  0  0  0
  5  6  1  1  0  0  0
  7  9  1  0  0  0  0
  7  8  1  6  0  0  0
  9 40  1  6  0  0  0
 10  6  1  1  0  0  0
 10 11  1  0  0  0  0
 10 18  1  0  0  0  0
 11 13  1  0  0  0  0
 11 12  1  1  0  0  0
 13 15  1  0  0  0  0
 13 14  1  1  0  0  0
 15 17  1  0  0  0  0
 15 16  1  1  0  0  0
 17 19  1  1  0  0  0
 17 18  1  0  0  0  0
 19 20  1  0  0  0  0
 21 29  1  0  0  0  0
 22 23  1  0  0  0  0
 22 31  1  0  0  0  0
 22 38  1  6  0  0  0
 23 25  1  0  0  0  0
 23 24  1  6  0  0  0
 25 27  1  0  0  0  0
 25 26  1  6  0  0  0
 27 30  1  0  0  0  0
 27 28  1  6  0  0  0
 30 21  1  1  0  0  0
 30 31  1  0  0  0  0
 32 34  1  0  0  0  0
 32 41  1  0  0  0  0
 32 33  1  1  0  0  0
 34 35  1  0  0  0  0
 35 37  1  0  0  0  0
 35 36  1  6  0  0  0
 37 39  1  0  0  0  0
 37 38  1  6  0  0  0
 39 41  1  0  0  0  0
 39 40  1  6  0  0  0
 41 42  1  1  0  0  0
M  CHG  6  12   1  20   1  24   1  29   1  33   1  36   1
M  END
>  <CHROM.1>
-62.41112278,129.74504552,54.20251777,-107.08259445,42.80268120,128.50040284
-74.23030209,-63.18006975,70.49599553,-72.85135669,50.57598746,-173.70906227
148.63636765,-163.05779204,-174.60059100,-71.88711133,178.33848859,-50.18015229
169.56431702,44.11876454,-92.76883576,178.96536133,-5.22650129,-3.43016133
1.98164783,2.58334606,0.64422247,1.97237793

>  <Name>
1NEM.B

>  <RI>
0

>  <Rbt.Current_Directory>
/home/itssahil/PROJECTS/Mol_Feturizer/New_Systems/rnas/1nem

>  <Rbt.Executable>
rbdock ($Id: //depot/dev/client3/rdock/2013.1/src/exe/rbdock.cxx#4 $)

>  <Rbt.Library>
libRbt.so (2013.1, Build901 2013/11/27)

>  <Rbt.Parameter_File>
/export/apps/rDock/src/rDock_2013.1_src/data/scripts/dock_solv.prm

>  <Rbt.Receptor>
prm/blind_docking_100.prm

>  <SCORE>
7.58611

>  <SCORE.INTER>
-28.4442

>  <SCORE.INTER.CONST>
1

>  <SCORE.INTER.POLAR>
-5.23183

>  <SCORE.INTER.ROT>
9

>  <SCORE.INTER.SOLV>
41.7817

>  <SCORE.INTER.VDW>
-25.0506

>  <SCORE.INTER.norm>
-0.677243

>  <SCORE.INTRA>
31.3522

>  <SCORE.INTRA.DIHEDRAL>
9.64236

>  <SCORE.INTRA.DIHEDRAL.0>
22.4324

>  <SCORE.INTRA.POLAR>
0.178971

>  <SCORE.INTRA.POLAR.0>
-1.83749

>  <SCORE.INTRA.REPUL>
0

>  <SCORE.INTRA.REPUL.0>
0

>  <SCORE.INTRA.SOLV>
3.37469

>  <SCORE.INTRA.SOLV.lig_0>
-160.638

>  <SCORE.INTRA.VDW>
24.2352

>  <SCORE.INTRA.VDW.0>
-7.61953

>  <SCORE.INTRA.norm>
0.746481

>  <SCORE.RESTR>
4.67813

>  <SCORE.RESTR.CAVITY>
4.67813

>  <SCORE.RESTR.norm>
0.111384

>  <SCORE.SYSTEM>
0

>  <SCORE.SYSTEM.CONST>
0

>  <SCORE.SYSTEM.DIHEDRAL>
0

>  <SCORE.SYSTEM.SOLV>
0

>  <SCORE.SYSTEM.norm>
0

>  <SCORE.heavy>
42

>  <SCORE.norm>
0.180622

>  <RMSD>
10.257

$$$$
1NEM.B
 OpenBabel11021811403D
libRbt.so/2013.1/901 2013/11/27
 42 45  0  0  0  0  0  0  0  0999 V2000
   -4.4690   -7.7486    3.5269 O   0  0  0  0  0  0  0  0  0  0  0  0
   -4.8029   -6.9064    4.6321 C   0  0  0  0  0  0  0  0  0  0  0  0
   -4.7529   -5.4187    4.2872 C   0  0  1  0  0  0  0  0  0  0  0  0
   -3.4923   -5.0756    3.7191 O   0  0  0  0  0  0  0  0  0  0  0  0
   -5.7439   -4.9811    3.2204 C   0  0  1  0  0  0  0  0  0  0  0  0
   -7.0440   -5.0028    3.8140 O   0  0  0  0  0  0  0  0  0  0  0  0
   -5.1662   -3.6137    2.9066 C   0  0  1  0  0  0  0  0  0  0  0  0
   -5.3582   -2.6866    3.9803 O   0  0  0  0  0  0  0  0  0  0  0  0
   -3.6862   -3.9999    2.8006 C   0  0  2  0  0  0  0  0  0  0  0  0
   -8.1023   -5.3617    2.9722 C   0  0  2  0  0  0  0  0  0  0  0  0
   -9.0847   -6.2517    3.7457 C   0  0  2  0  0  0  0  0  0  0  0  0
   -8.3622   -7.3987    4.3561 N   0  3  0  0  0  0  0  0  0  0  0  0
  -10.2266   -6.7204    2.8381 C   0  0  1  0  0  0  0  0  0  0  0  0
  -11.0772   -5.6225    2.5350 O   0  0  0  0  0  0  0  0  0  0  0  0
   -9.6871   -7.3264    1.5388 C   0  0  2  0  0  0  0  0  0  0  0  0
   -9.0238   -8.5556    1.8053 O   0  0  0  0  0  0  0  0  0  0  0  0
   -8.7219   -6.3466    0.8775 C   0  0  1  0  0  0  0  0  0  0  0  0
   -7.6584   -6.0204    1.7932 O   0  0  0  0  0  0  0  0  0  0  0  0
   -8.0951   -6.8896   -0.3946 C   0  0  0  0  0  0  0  0  0  0  0  0
   -8.9697   -6.6880   -1.5711 N   0  3  0  0  0  0  0  0  0  0  0  0
   -1.2290    2.0386    0.0550 C   0  0  0  0  0  0  0  0  0  0  0  0
   -3.2621   -0.7579    1.3866 C   0  0  2  0  0  0  0  0  0  0  0  0
   -4.6594   -0.3516    0.9246 C   0  0  2  0  0  0  0  0  0  0  0  0
   -5.5646   -1.5255    0.9343 N   0  3  0  0  0  0  0  0  0  0  0  0
   -4.5992    0.2272   -0.4827 C   0  0  1  0  0  0  0  0  0  0  0  0
   -5.8902    0.6719   -0.8701 O   0  0  0  0  0  0  0  0  0  0  0  0
   -3.6110    1.3909   -0.5147 C   0  0  2  0  0  0  0  0  0  0  0  0
   -3.4971    1.8925   -1.8402 O   0  0  0  0  0  0  0  0  0  0  0  0
   -0.9717    2.6352   -1.2758 N   0  3  0  0  0  0  0  0  0  0  0  0
   -2.2452    0.9127   -0.0259 C   0  0  2  0  0  0  0  0  0  0  0  0
   -2.3623    0.3433    1.2939 O   0  0  0  0  0  0  0  0  0  0  0  0
    0.3779   -4.6153    1.1114 C   0  0  2  0  0  0  0  0  0  0  0  0
    1.4106   -5.4617    1.7521 N   0  3  0  0  0  0  0  0  0  0  0  0
    0.6179   -3.1498    1.4561 C   0  0  0  0  0  0  0  0  0  0  0  0
   -0.4384   -2.2675    0.8056 C   0  0  2  0  0  0  0  0  0  0  0  0
   -0.1529   -0.8872    1.1707 N   0  3  0  0  0  0  0  0  0  0  0  0
   -1.8268   -2.6821    1.2870 C   0  0  1  0  0  0  0  0  0  0  0  0
   -2.8222   -1.8612    0.6454 O   0  0  0  0  0  0  0  0  0  0  0  0
   -2.0969   -4.1582    0.9636 C   0  0  2  0  0  0  0  0  0  0  0  0
   -3.3675   -4.5440    1.5217 O   0  0  0  0  0  0  0  0  0  0  0  0
   -1.0159   -5.0646    1.5471 C   0  0  1  0  0  0  0  0  0  0  0  0
   -1.2371   -6.4023    1.1200 O   0  0  0  0  0  0  0  0  0  0  0  0
  1  2  1  0  0  0  0
  3  2  1  6  0  0  0
  3  5  1  0  0  0  0
  3  4  1  0  0  0  0
  4  9  1  0  0  0  0
  5  7  1  0  0  0  0
  5  6  1  1  0  0  0
  7  9  1  0  0  0  0
  7  8  1  1  0  0  0
  9 40  1  6  0  0  0
 10  6  1  1  0  0  0
 10 11  1  0  0  0  0
 10 18  1  0  0  0  0
 11 13  1  0  0  0  0
 11 12  1  6  0  0  0
 13 15  1  0  0  0  0
 13 14  1  6  0  0  0
 15 17  1  0  0  0  0
 15 16  1  1  0  0  0
 17 19  1  6  0  0  0
 17 18  1  0  0  0  0
 19 20  1  0  0  0  0
 21 29  1  0  0  0  0
 22 23  1  0  0  0  0
 22 31  1  0  0  0  0
 22 38  1  6  0  0  0
 23 25  1  0  0  0  0
 23 24  1  6  0  0  0
 25 27  1  0  0  0  0
 25 26  1  1  0  0  0
 27 30  1  0  0  0  0
 27 28  1  6  0  0  0
 30 21  1  1  0  0  0
 30 31  1  0  0  0  0
 32 34  1  0  0  0  0
 32 41  1  0  0  0  0
 32 33  1  1  0  0  0
 34 35  1  0  0  0  0
 35 37  1  0  0  0  0
 35 36  1  1  0  0  0
 37 39  1  0  0  0  0
 37 38  1  6  0  0  0
 39 41  1  0  0  0  0
 39 40  1  1  0  0  0
 41 42  1  6  0  0  0
M  CHG  6  12   1  20   1  24   1  29   1  33   1  36   1
M  END
>  <CHROM.1>
-163.04283362,-53.53109264,-145.99288681,140.61789758,-179.04513197,-104.48052911
50.37574122,161.38406252,95.24552371,84.00181279,-37.88754813,-62.32399455
167.43409176,-155.52989549,-36.06808896,166.79606778,-43.73633381,136.26868356
-21.18731830,-96.42747050,-38.41314749,-63.12458339,-4.58444719,-3.63438264
1.55654906,-2.34984314,-0.09139003,-0.42037593

>  <Name>
1NEM.B

>  <RI>
0

>  <Rbt.Current_Directory>
/home/itssahil/PROJECTS/Mol_Feturizer/New_Systems/rnas/1nem

>  <Rbt.Executable>
rbdock ($Id: //depot/dev/client3/rdock/2013.1/src/exe/rbdock.cxx#4 $)

>  <Rbt.Library>
libRbt.so (2013.1, Build901 2013/11/27)

>  <Rbt.Parameter_File>
/export/apps/rDock/src/rDock_2013.1_src/data/scripts/dock_solv.prm

>  <Rbt.Receptor>
prm/blind_docking_100.prm

>  <SCORE>
1.66442

>  <SCORE.INTER>
-22.7326

>  <SCORE.INTER.CONST>
1

>  <SCORE.INTER.POLAR>
-6.17785

>  <SCORE.INTER.ROT>
9

>  <SCORE.INTER.SOLV>
43.8954

>  <SCORE.INTER.VDW>
-18.794

>  <SCORE.INTER.norm>
-0.541252

>  <SCORE.INTRA>
20.5854

>  <SCORE.INTRA.DIHEDRAL>
23.1158

>  <SCORE.INTRA.DIHEDRAL.0>
22.4324

>  <SCORE.INTRA.POLAR>
-0.271377

>  <SCORE.INTRA.POLAR.0>
-1.83749

>  <SCORE.INTRA.REPUL>
0.051862

>  <SCORE.INTRA.REPUL.0>
0

>  <SCORE.INTRA.SOLV>
3.3923

>  <SCORE.INTRA.SOLV.lig_0>
-160.638

>  <SCORE.INTRA.VDW>
7.9947

>  <SCORE.INTRA.VDW.0>
-7.61953

>  <SCORE.INTRA.norm>
0.490128

>  <SCORE.RESTR>
3.81165

>  <SCORE.RESTR.CAVITY>
3.81165

>  <SCORE.RESTR.norm>
0.0907535

>  <SCORE.SYSTEM>
0

>  <SCORE.SYSTEM.CONST>
0

>  <SCORE.SYSTEM.DIHEDRAL>
0

>  <SCORE.SYSTEM.SOLV>
0

>  <SCORE.SYSTEM.norm>
0

>  <SCORE.heavy>
42

>  <SCORE.norm>
0.039629

>  <RMSD>
10.310

$$$$
1NEM.B
 OpenBabel11021811403D
libRbt.so/2013.1/901 2013/11/27
 42 45  0  0  0  0  0  0  0  0999 V2000
   -4.6364   -7.7176    4.7388 O   0  0  0  0  0  0  0  0  0  0  0  0
   -5.2354   -7.0372    3.6342 C   0  0  0  0  0  0  0  0  0  0  0  0
   -5.1337   -5.5164    3.7418 C   0  0  1  0  0  0  0  0  0  0  0  0
   -3.9014   -5.0543    3.1964 O   0  0  0  0  0  0  0  0  0  0  0  0
   -6.1753   -4.7526    2.9398 C   0  0  1  0  0  0  0  0  0  0  0  0
   -7.4285   -4.9146    3.6079 O   0  0  0  0  0  0  0  0  0  0  0  0
   -5.5519   -3.3705    2.9969 C   0  0  1  0  0  0  0  0  0  0  0  0
   -5.6178   -2.8018    4.3089 O   0  0  0  0  0  0  0  0  0  0  0  0
   -4.1054   -3.7482    2.6569 C   0  0  2  0  0  0  0  0  0  0  0  0
   -8.4900   -5.3833    2.8262 C   0  0  2  0  0  0  0  0  0  0  0  0
   -9.4559   -6.1825    3.7114 C   0  0  2  0  0  0  0  0  0  0  0  0
   -8.7158   -7.2400    4.4490 N   0  3  0  0  0  0  0  0  0  0  0  0
  -10.6005   -6.7688    2.8785 C   0  0  1  0  0  0  0  0  0  0  0  0
  -11.4655   -5.7241    2.4531 O   0  0  0  0  0  0  0  0  0  0  0  0
  -10.0656   -7.5225    1.6569 C   0  0  2  0  0  0  0  0  0  0  0  0
   -9.3867   -8.7039    2.0637 O   0  0  0  0  0  0  0  0  0  0  0  0
   -9.1168   -6.6207    0.8723 C   0  0  1  0  0  0  0  0  0  0  0  0
   -8.0491   -6.1756    1.7313 O   0  0  0  0  0  0  0  0  0  0  0  0
   -8.4951   -7.3077   -0.3307 C   0  0  0  0  0  0  0  0  0  0  0  0
   -7.3467   -6.5456   -0.8697 N   0  3  0  0  0  0  0  0  0  0  0  0
   -5.2706    1.1596    2.9767 C   0  0  0  0  0  0  0  0  0  0  0  0
   -3.8636   -1.4943    0.8077 C   0  0  2  0  0  0  0  0  0  0  0  0
   -4.1903   -0.9449   -0.5788 C   0  0  2  0  0  0  0  0  0  0  0  0
   -3.3324   -1.5895   -1.6015 N   0  3  0  0  0  0  0  0  0  0  0  0
   -3.9693    0.5615   -0.6118 C   0  0  1  0  0  0  0  0  0  0  0  0
   -4.3500    1.0708   -1.8808 O   0  0  0  0  0  0  0  0  0  0  0  0
   -4.7948    1.2234    0.4892 C   0  0  2  0  0  0  0  0  0  0  0  0
   -4.5408    2.6221    0.5098 O   0  0  0  0  0  0  0  0  0  0  0  0
   -6.0703    0.0927    3.6211 N   0  3  0  0  0  0  0  0  0  0  0  0
   -4.4251    0.6129    1.8397 C   0  0  2  0  0  0  0  0  0  0  0  0
   -4.6189   -0.8158    1.8078 O   0  0  0  0  0  0  0  0  0  0  0  0
   -0.3591   -5.0745    0.7953 C   0  0  2  0  0  0  0  0  0  0  0  0
    0.3076   -6.3325    1.2032 N   0  3  0  0  0  0  0  0  0  0  0  0
    0.3082   -3.8860    1.4782 C   0  0  0  0  0  0  0  0  0  0  0  0
   -0.3688   -2.5852    1.0697 C   0  0  2  0  0  0  0  0  0  0  0  0
    0.3132   -1.4943    1.7515 N   0  3  0  0  0  0  0  0  0  0  0  0
   -1.8461   -2.6282    1.4531 C   0  0  1  0  0  0  0  0  0  0  0  0
   -2.4855   -1.4054    1.0378 O   0  0  0  0  0  0  0  0  0  0  0  0
   -2.5466   -3.8215    0.7887 C   0  0  2  0  0  0  0  0  0  0  0  0
   -3.9085   -3.8937    1.2522 O   0  0  0  0  0  0  0  0  0  0  0  0
   -1.8494   -5.1371    1.1261 C   0  0  1  0  0  0  0  0  0  0  0  0
   -2.4529   -6.1953    0.3937 O   0  0  0  0  0  0  0  0  0  0  0  0
  1  2  1  0  0  0  0
  3  2  1  6  0  0  0
  3  5  1  0  0  0  0
  3  4  1  0  0  0  0
  4  9  1  0  0  0  0
  5  7  1  0  0  0  0
  5  6  1  1  0  0  0
  7  9  1  0  0  0  0
  7  8  1  1  0  0  0
  9 40  1  6  0  0  0
 10  6  1  1  0  0  0
 10 11  1  0  0  0  0
 10 18  1  0  0  0  0
 11 13  1  0  0  0  0
 11 12  1  6  0  0  0
 13 15  1  0  0  0  0
 13 14  1  6  0  0  0
 15 17  1  0  0  0  0
 15 16  1  1  0  0  0
 17 19  1  6  0  0  0
 17 18  1  0  0  0  0
 19 20  1  0  0  0  0
 21 29  1  0  0  0  0
 22 23  1  0  0  0  0
 22 31  1  0  0  0  0
 22 38  1  1  0  0  0
 23 25  1  0  0  0  0
 23 24  1  6  0  0  0
 25 27  1  0  0  0  0
 25 26  1  6  0  0  0
 27 30  1  0  0  0  0
 27 28  1  1  0  0  0
 30 21  1  1  0  0  0
 30 31  1  0  0  0  0
 32 34  1  0  0  0  0
 32 41  1  0  0  0  0
 32 33  1  1  0  0  0
 34 35  1  0  0  0  0
 35 37  1  0  0  0  0
 35 36  1  1  0  0  0
 37 39  1  0  0  0  0
 37 38  1  6  0  0  0
 39 41  1  0  0  0  0
 39 40  1  1  0  0  0
 41 42  1  6  0  0  0
M  CHG  6  12   1  20   1  24   1  29   1  33   1  36   1
M  END
>  <CHROM.1>
83.54850996,86.62948033,-126.95303447,150.17818046,64.35452855,-84.54393407
45.43469803,177.52953990,-175.88450845,-165.87795098,34.55482150,117.84424073
31.06969520,-127.46870780,93.15339757,-173.14906534,69.95063569,-39.05526820
170.07916082,154.71416896,-45.86982303,-166.54049938,-5.08206871,-3.79850707
1.74013831,-2.36719170,0.10640759,-0.19313658

>  <Name>
1NEM.B

>  <RI>
0

>  <Rbt.Current_Directory>
/home/itssahil/PROJECTS/Mol_Feturizer/New_Systems/rnas/1nem

>  <Rbt.Executable>
rbdock ($Id: //depot/dev/client3/rdock/2013.1/src/exe/rbdock.cxx#4 $)

>  <Rbt.Library>
libRbt.so (2013.1, Build901 2013/11/27)

>  <Rbt.Parameter_File>
/export/apps/rDock/src/rDock_2013.1_src/data/scripts/dock_solv.prm

>  <Rbt.Receptor>
prm/blind_docking_100.prm

>  <SCORE>
14.0694

>  <SCORE.INTER>
-4.36067

>  <SCORE.INTER.CONST>
1

>  <SCORE.INTER.POLAR>
-6.8273

>  <SCORE.INTER.ROT>
9

>  <SCORE.INTER.SOLV>
62.6146

>  <SCORE.INTER.VDW>
-10.6209

>  <SCORE.INTER.norm>
-0.103825

>  <SCORE.INTRA>
17.4548

>  <SCORE.INTRA.DIHEDRAL>
20.601

>  <SCORE.INTRA.DIHEDRAL.0>
22.4324

>  <SCORE.INTRA.POLAR>
-0.39851

>  <SCORE.INTRA.POLAR.0>
-1.83749

>  <SCORE.INTRA.REPUL>
0

>  <SCORE.INTRA.REPUL.0>
0

>  <SCORE.INTRA.SOLV>
-2.53642

>  <SCORE.INTRA.SOLV.lig_0>
-160.638

>  <SCORE.INTRA.VDW>
9.77746

>  <SCORE.INTRA.VDW.0>
-7.61953

>  <SCORE.INTRA.norm>
0.415591

>  <SCORE.RESTR>
0.975195

>  <SCORE.RESTR.CAVITY>
0.975195

>  <SCORE.RESTR.norm>
0.0232189

>  <SCORE.SYSTEM>
0

>  <SCORE.SYSTEM.CONST>
0

>  <SCORE.SYSTEM.DIHEDRAL>
0

>  <SCORE.SYSTEM.SOLV>
0

>  <SCORE.SYSTEM.norm>
0

>  <SCORE.heavy>
42

>  <SCORE.norm>
0.334985

>  <RMSD>
10.321

$$$$
1NEM.B
 OpenBabel11021811403D
libRbt.so/2013.1/901 2013/11/27
 42 45  0  0  0  0  0  0  0  0999 V2000
    7.0489   -0.5076    6.1063 O   0  0  0  0  0  0  0  0  0  0  0  0
    6.7133    0.4652    5.1147 C   0  0  0  0  0  0  0  0  0  0  0  0
    5.2189    0.7798    5.0668 C   0  0  1  0  0  0  0  0  0  0  0  0
    4.6465    0.7051    6.3692 O   0  0  0  0  0  0  0  0  0  0  0  0
    4.8822    2.1939    4.6213 C   0  0  1  0  0  0  0  0  0  0  0  0
    5.1455    2.2713    3.2185 O   0  0  0  0  0  0  0  0  0  0  0  0
    3.4242    2.2334    5.0391 C   0  0  1  0  0  0  0  0  0  0  0  0
    2.6046    1.3920    4.2208 O   0  0  0  0  0  0  0  0  0  0  0  0
    3.5629    1.6319    6.4426 C   0  0  2  0  0  0  0  0  0  0  0  0
    6.3386    2.9005    2.8470 C   0  0  2  0  0  0  0  0  0  0  0  0
    6.0785    4.3994    2.6445 C   0  0  2  0  0  0  0  0  0  0  0  0
    4.9517    4.5981    1.6952 N   0  3  0  0  0  0  0  0  0  0  0  0
    7.3488    5.1145    2.1729 C   0  0  1  0  0  0  0  0  0  0  0  0
    8.2886    5.1707    3.2378 O   0  0  0  0  0  0  0  0  0  0  0  0
    7.9742    4.3967    0.9729 C   0  0  2  0  0  0  0  0  0  0  0  0
    7.1410    4.5301   -0.1717 O   0  0  0  0  0  0  0  0  0  0  0  0
    8.1717    2.9201    1.3040 C   0  0  1  0  0  0  0  0  0  0  0  0
    6.9094    2.3329    1.6752 O   0  0  0  0  0  0  0  0  0  0  0  0
    8.7396    2.1175    0.1467 C   0  0  0  0  0  0  0  0  0  0  0  0
   10.0976    2.5716   -0.2267 N   0  3  0  0  0  0  0  0  0  0  0  0
    6.2515    5.6003    8.6195 C   0  0  0  0  0  0  0  0  0  0  0  0
    2.8986    4.9327   10.0476 C   0  0  2  0  0  0  0  0  0  0  0  0
    2.3307    6.3470   10.1382 C   0  0  2  0  0  0  0  0  0  0  0  0
    0.8527    6.3007   10.2430 N   0  3  0  0  0  0  0  0  0  0  0  0
    2.7239    7.1503    8.9057 C   0  0  1  0  0  0  0  0  0  0  0  0
    2.2566    8.4840    9.0377 O   0  0  0  0  0  0  0  0  0  0  0  0
    4.2431    7.1387    8.7515 C   0  0  2  0  0  0  0  0  0  0  0  0
    4.6142    7.8283    7.5647 O   0  0  0  0  0  0  0  0  0  0  0  0
    6.7827    6.2191    7.3834 N   0  3  0  0  0  0  0  0  0  0  0  0
    4.7371    5.6949    8.6841 C   0  0  2  0  0  0  0  0  0  0  0  0
    4.3102    4.9695    9.8551 O   0  0  0  0  0  0  0  0  0  0  0  0
    3.4023    0.3689   10.3808 C   0  0  2  0  0  0  0  0  0  0  0  0
    3.4597   -1.1048   10.5162 N   0  3  0  0  0  0  0  0  0  0  0  0
    1.9987    0.8676   10.7054 C   0  0  0  0  0  0  0  0  0  0  0  0
    1.9241    2.3818   10.5680 C   0  0  2  0  0  0  0  0  0  0  0  0
    0.5651    2.7925   10.8915 N   0  3  0  0  0  0  0  0  0  0  0  0
    2.2921    2.7908    9.1437 C   0  0  1  0  0  0  0  0  0  0  0  0
    2.2466    4.2265    9.0297 O   0  0  0  0  0  0  0  0  0  0  0  0
    3.6986    2.2944    8.7809 C   0  0  2  0  0  0  0  0  0  0  0  0
    3.9727    2.6046    7.4013 O   0  0  0  0  0  0  0  0  0  0  0  0
    3.8250    0.7852    8.9729 C   0  0  1  0  0  0  0  0  0  0  0  0
    5.1713    0.3893    8.7463 O   0  0  0  0  0  0  0  0  0  0  0  0
  1  2  1  0  0  0  0
  3  2  1  1  0  0  0
  3  5  1  0  0  0  0
  3  4  1  0  0  0  0
  4  9  1  0  0  0  0
  5  7  1  0  0  0  0
  5  6  1  6  0  0  0
  7  9  1  0  0  0  0
  7  8  1  6  0  0  0
  9 40  1  1  0  0  0
 10  6  1  6  0  0  0
 10 11  1  0  0  0  0
 10 18  1  0  0  0  0
 11 13  1  0  0  0  0
 11 12  1  6  0  0  0
 13 15  1  0  0  0  0
 13 14  1  1  0  0  0
 15 17  1  0  0  0  0
 15 16  1  6  0  0  0
 17 19  1  6  0  0  0
 17 18  1  0  0  0  0
 19 20  1  0  0  0  0
 21 29  1  0  0  0  0
 22 23  1  0  0  0  0
 22 31  1  0  0  0  0
 22 38  1  6  0  0  0
 23 25  1  0  0  0  0
 23 24  1  6  0  0  0
 25 27  1  0  0  0  0
 25 26  1  1  0  0  0
 27 30  1  0  0  0  0
 27 28  1  6  0  0  0
 30 21  1  1  0  0  0
 30 31  1  0  0  0  0
 32 34  1  0  0  0  0
 32 41  1  0  0  0  0
 32 33  1  6  0  0  0
 34 35  1  0  0  0  0
 35 37  1  0  0  0  0
 35 36  1  6  0  0  0
 37 39  1  0  0  0  0
 37 38  1  1  0  0  0
 39 41  1  0  0  0  0
 39 40  1  6  0  0  0
 41 42  1  1  0  0  0
M  CHG  6  12   1  20   1  24   1  29   1  33   1  36   1
M  END
>  <CHROM.1>
60.66497960,33.93094577,-101.85249463,-90.36701149,176.79775669,-85.97475404
-97.31790825,62.35353122,77.50968122,63.51627841,-63.80661871,-63.53760154
56.84980042,-157.46843657,66.68814482,-75.94581980,76.68176343,-164.53906861
179.07158690,47.57656620,-87.94563429,-57.37288409,4.76747778,3.37471060
6.32722634,0.03708117,-1.03893217,3.10457777

>  <Name>
1NEM.B

>  <RI>
0

>  <Rbt.Current_Directory>
/home/itssahil/PROJECTS/Mol_Feturizer/New_Systems/rnas/1nem

>  <Rbt.Executable>
rbdock ($Id: //depot/dev/client3/rdock/2013.1/src/exe/rbdock.cxx#4 $)

>  <Rbt.Library>
libRbt.so (2013.1, Build901 2013/11/27)

>  <Rbt.Parameter_File>
/export/apps/rDock/src/rDock_2013.1_src/data/scripts/dock_solv.prm

>  <Rbt.Receptor>
prm/pocket_docking_8.prm

>  <SCORE>
-26.1143

>  <SCORE.INTER>
-35.5269

>  <SCORE.INTER.CONST>
1

>  <SCORE.INTER.POLAR>
-5.5153

>  <SCORE.INTER.ROT>
9

>  <SCORE.INTER.SOLV>
25.8584

>  <SCORE.INTER.VDW>
-23.5197

>  <SCORE.INTER.norm>
-0.845877

>  <SCORE.INTRA>
9.41255

>  <SCORE.INTRA.DIHEDRAL>
5.59132

>  <SCORE.INTRA.DIHEDRAL.0>
22.4324

>  <SCORE.INTRA.POLAR>
0.585163

>  <SCORE.INTRA.POLAR.0>
-1.83749

>  <SCORE.INTRA.REPUL>
0

>  <SCORE.INTRA.REPUL.0>
0

>  <SCORE.INTRA.SOLV>
-3.1074

>  <SCORE.INTRA.SOLV.lig_0>
-160.638

>  <SCORE.INTRA.VDW>
6.18104

>  <SCORE.INTRA.VDW.0>
-7.61953

>  <SCORE.INTRA.norm>
0.224108

>  <SCORE.RESTR>
0

>  <SCORE.RESTR.CAVITY>
0

>  <SCORE.RESTR.norm>
0

>  <SCORE.SYSTEM>
0

>  <SCORE.SYSTEM.CONST>
0

>  <SCORE.SYSTEM.DIHEDRAL>
0

>  <SCORE.SYSTEM.SOLV>
0

>  <SCORE.SYSTEM.norm>
0

>  <SCORE.heavy>
42

>  <SCORE.norm>
-0.621769

>  <RMSD>
10.347

$$$$
1NEM.B
 OpenBabel11021811403D
libRbt.so/2013.1/901 2013/11/27
 42 45  0  0  0  0  0  0  0  0999 V2000
    3.8394    5.2020   -1.2295 O   0  0  0  0  0  0  0  0  0  0  0  0
    4.5491    4.5325   -2.2736 C   0  0  0  0  0  0  0  0  0  0  0  0
    5.1038    3.1748   -1.8449 C   0  0  1  0  0  0  0  0  0  0  0  0
    5.8997    3.3042   -0.6705 O   0  0  0  0  0  0  0  0  0  0  0  0
    4.0490    2.1583   -1.4381 C   0  0  1  0  0  0  0  0  0  0  0  0
    3.3863    1.7333   -2.6312 O   0  0  0  0  0  0  0  0  0  0  0  0
    4.9489    1.1394   -0.7644 C   0  0  1  0  0  0  0  0  0  0  0  0
    5.7766    0.4450   -1.7035 O   0  0  0  0  0  0  0  0  0  0  0  0
    5.7977    2.0952    0.0822 C   0  0  2  0  0  0  0  0  0  0  0  0
    2.0443    2.1070   -2.7598 C   0  0  2  0  0  0  0  0  0  0  0  0
    1.2708    0.9825   -3.4615 C   0  0  2  0  0  0  0  0  0  0  0  0
    1.9393    0.6240   -4.7401 N   0  3  0  0  0  0  0  0  0  0  0  0
   -0.1924    1.3810   -3.6801 C   0  0  1  0  0  0  0  0  0  0  0  0
   -0.8726    1.4045   -2.4322 O   0  0  0  0  0  0  0  0  0  0  0  0
   -0.2972    2.7554   -4.3483 C   0  0  2  0  0  0  0  0  0  0  0  0
    0.1745    2.6903   -5.6883 O   0  0  0  0  0  0  0  0  0  0  0  0
    0.5191    3.7740   -3.5578 C   0  0  1  0  0  0  0  0  0  0  0  0
    1.8872    3.3320   -3.4641 O   0  0  0  0  0  0  0  0  0  0  0  0
    0.5157    5.1585   -4.1818 C   0  0  0  0  0  0  0  0  0  0  0  0
    1.0900    6.1754   -3.2730 N   0  3  0  0  0  0  0  0  0  0  0  0
    8.7202    1.9913    1.0330 C   0  0  0  0  0  0  0  0  0  0  0  0
    7.2957    3.5979    4.0524 C   0  0  2  0  0  0  0  0  0  0  0  0
    7.9998    4.9524    4.0246 C   0  0  2  0  0  0  0  0  0  0  0  0
    7.2600    5.9324    4.8552 N   0  3  0  0  0  0  0  0  0  0  0  0
    8.0886    5.4685    2.5947 C   0  0  1  0  0  0  0  0  0  0  0  0
    8.8126    6.6891    2.5732 O   0  0  0  0  0  0  0  0  0  0  0  0
    8.7847    4.4293    1.7187 C   0  0  2  0  0  0  0  0  0  0  0  0
    8.8100    4.8736    0.3683 O   0  0  0  0  0  0  0  0  0  0  0  0
   10.0923    1.7449    1.5328 N   0  3  0  0  0  0  0  0  0  0  0  0
    8.0348    3.1017    1.8101 C   0  0  2  0  0  0  0  0  0  0  0  0
    7.9483    2.6746    3.1848 O   0  0  0  0  0  0  0  0  0  0  0  0
    4.9944   -0.3781    3.7578 C   0  0  2  0  0  0  0  0  0  0  0  0
    4.2033   -1.6301    3.7541 N   0  3  0  0  0  0  0  0  0  0  0  0
    4.6291    0.4655    4.9739 C   0  0  0  0  0  0  0  0  0  0  0  0
    5.4336    1.7577    4.9896 C   0  0  2  0  0  0  0  0  0  0  0  0
    5.0407    2.5133    6.1706 N   0  3  0  0  0  0  0  0  0  0  0  0
    5.1577    2.5545    3.7166 C   0  0  1  0  0  0  0  0  0  0  0  0
    5.9441    3.7619    3.7262 O   0  0  0  0  0  0  0  0  0  0  0  0
    5.5063    1.7282    2.4708 C   0  0  2  0  0  0  0  0  0  0  0  0
    5.1376    2.4665    1.2903 O   0  0  0  0  0  0  0  0  0  0  0  0
    4.7643    0.3941    2.4598 C   0  0  1  0  0  0  0  0  0  0  0  0
    5.2093   -0.3871    1.3588 O   0  0  0  0  0  0  0  0  0  0  0  0
  1  2  1  0  0  0  0
  3  2  1  1  0  0  0
  3  5  1  0  0  0  0
  3  4  1  0  0  0  0
  4  9  1  0  0  0  0
  5  7  1  0  0  0  0
  5  6  1  6  0  0  0
  7  9  1  0  0  0  0
  7  8  1  6  0  0  0
  9 40  1  1  0  0  0
 10  6  1  6  0  0  0
 10 11  1  0  0  0  0
 10 18  1  0  0  0  0
 11 13  1  0  0  0  0
 11 12  1  6  0  0  0
 13 15  1  0  0  0  0
 13 14  1  1  0  0  0
 15 17  1  0  0  0  0
 15 16  1  6  0  0  0
 17 19  1  6  0  0  0
 17 18  1  0  0  0  0
 19 20  1  0  0  0  0
 21 29  1  0  0  0  0
 22 23  1  0  0  0  0
 22 31  1  0  0  0  0
 22 38  1  6  0  0  0
 23 25  1  0  0  0  0
 23 24  1  1  0  0  0
 25 27  1  0  0  0  0
 25 26  1  1  0  0  0
 27 30  1  0  0  0  0
 27 28  1  6  0  0  0
 30 21  1  6  0  0  0
 30 31  1  0  0  0  0
 32 34  1  0  0  0  0
 32 41  1  0  0  0  0
 32 33  1  6  0  0  0
 34 35  1  0  0  0  0
 35 37  1  0  0  0  0
 35 36  1  1  0  0  0
 37 39  1  0  0  0  0
 37 38  1  1  0  0  0
 39 41  1  0  0  0  0
 39 40  1  6  0  0  0
 41 42  1  6  0  0  0
M  CHG  6  12   1  20   1  24   1  29   1  33   1  36   1
M  END
>  <CHROM.1>
148.68890185,-54.00999929,-112.73106099,-144.26794748,63.41687035,-147.81961011
169.67492546,53.29872007,64.65408700,169.12233989,68.49314651,59.91354578
-66.89861496,-179.94121849,-75.82190275,-173.25620419,-33.22631356,-171.90861456
-162.57735417,47.67632154,158.33657776,47.34085491,4.75043251,2.70731984
0.27565780,-2.62650186,0.72741223,2.37144980

>  <Name>
1NEM.B

>  <RI>
0

>  <Rbt.Current_Directory>
/home/itssahil/PROJECTS/Mol_Feturizer/New_Systems/rnas/1nem

>  <Rbt.Executable>
rbdock ($Id: //depot/dev/client3/rdock/2013.1/src/exe/rbdock.cxx#4 $)

>  <Rbt.Library>
libRbt.so (2013.1, Build901 2013/11/27)

>  <Rbt.Parameter_File>
/export/apps/rDock/src/rDock_2013.1_src/data/scripts/dock_solv.prm

>  <Rbt.Receptor>
prm/pocket_docking_6.prm

>  <SCORE>
-22.587

>  <SCORE.INTER>
-33.888

>  <SCORE.INTER.CONST>
1

>  <SCORE.INTER.POLAR>
-6.23369

>  <SCORE.INTER.ROT>
9

>  <SCORE.INTER.SOLV>
26.7342

>  <SCORE.INTER.VDW>
-20.3244

>  <SCORE.INTER.norm>
-0.806858

>  <SCORE.INTRA>
11.2828

>  <SCORE.INTRA.DIHEDRAL>
6.93889

>  <SCORE.INTRA.DIHEDRAL.0>
22.4324

>  <SCORE.INTRA.POLAR>
1.34658

>  <SCORE.INTRA.POLAR.0>
-1.83749

>  <SCORE.INTRA.REPUL>
0.022724

>  <SCORE.INTRA.REPUL.0>
0

>  <SCORE.INTRA.SOLV>
-3.51163

>  <SCORE.INTRA.SOLV.lig_0>
-160.638

>  <SCORE.INTRA.VDW>
4.87717

>  <SCORE.INTRA.VDW.0>
-7.61953

>  <SCORE.INTRA.norm>
0.268638

>  <SCORE.RESTR>
0.0182213

>  <SCORE.RESTR.CAVITY>
0.0182213

>  <SCORE.RESTR.norm>
0.00043384

>  <SCORE.SYSTEM>
0

>  <SCORE.SYSTEM.CONST>
0

>  <SCORE.SYSTEM.DIHEDRAL>
0

>  <SCORE.SYSTEM.SOLV>
0

>  <SCORE.SYSTEM.norm>
0

>  <SCORE.heavy>
42

>  <SCORE.norm>
-0.537786

>  <RMSD>
10.388

$$$$
1NEM.B
 OpenBabel11021811403D
libRbt.so/2013.1/901 2013/11/27
 42 45  0  0  0  0  0  0  0  0999 V2000
    4.1579   -1.9071    4.0624 O   0  0  0  0  0  0  0  0  0  0  0  0
    4.3111   -0.5213    3.7486 C   0  0  0  0  0  0  0  0  0  0  0  0
    3.4124    0.3851    4.5885 C   0  0  1  0  0  0  0  0  0  0  0  0
    3.8947    0.4727    5.9262 O   0  0  0  0  0  0  0  0  0  0  0  0
    3.3766    1.8367    4.1377 C   0  0  1  0  0  0  0  0  0  0  0  0
    2.6259    1.8856    2.9222 O   0  0  0  0  0  0  0  0  0  0  0  0
    2.7223    2.4492    5.3619 C   0  0  1  0  0  0  0  0  0  0  0  0
    1.3461    2.0746    5.4835 O   0  0  0  0  0  0  0  0  0  0  0  0
    3.5558    1.7580    6.4475 C   0  0  2  0  0  0  0  0  0  0  0  0
    2.7008    3.0794    2.1967 C   0  0  2  0  0  0  0  0  0  0  0  0
    1.4357    3.2319    1.3413 C   0  0  2  0  0  0  0  0  0  0  0  0
    1.2306    2.0150    0.5122 N   0  3  0  0  0  0  0  0  0  0  0  0
    1.5085    4.4974    0.4807 C   0  0  1  0  0  0  0  0  0  0  0  0
    1.3841    5.6460    1.3089 O   0  0  0  0  0  0  0  0  0  0  0  0
    2.8279    4.5636   -0.2947 C   0  0  2  0  0  0  0  0  0  0  0  0
    2.8667    3.5496   -1.2909 O   0  0  0  0  0  0  0  0  0  0  0  0
    3.9988    4.3920    0.6689 C   0  0  1  0  0  0  0  0  0  0  0  0
    3.8629    3.1466    1.3807 O   0  0  0  0  0  0  0  0  0  0  0  0
    5.3499    4.3906   -0.0243 C   0  0  0  0  0  0  0  0  0  0  0  0
    6.4627    4.2132    0.9349 N   0  3  0  0  0  0  0  0  0  0  0  0
    8.2930    5.9698    4.8686 C   0  0  0  0  0  0  0  0  0  0  0  0
    7.2320    2.4949    5.5943 C   0  0  2  0  0  0  0  0  0  0  0  0
    8.1194    1.7094    4.6319 C   0  0  2  0  0  0  0  0  0  0  0  0
    8.2105    0.2925    5.0583 N   0  3  0  0  0  0  0  0  0  0  0  0
    9.5161    2.3151    4.5929 C   0  0  1  0  0  0  0  0  0  0  0  0
   10.3078    1.6250    3.6382 O   0  0  0  0  0  0  0  0  0  0  0  0
    9.4215    3.7944    4.2263 C   0  0  2  0  0  0  0  0  0  0  0  0
   10.7150    4.3838    4.2554 O   0  0  0  0  0  0  0  0  0  0  0  0
    7.2668    6.5927    5.7356 N   0  3  0  0  0  0  0  0  0  0  0  0
    8.5078    4.5081    5.2208 C   0  0  2  0  0  0  0  0  0  0  0  0
    7.2116    3.8764    5.2450 O   0  0  0  0  0  0  0  0  0  0  0  0
    5.2539    2.5346   10.3977 C   0  0  2  0  0  0  0  0  0  0  0  0
    4.3909    3.0944   11.4632 N   0  3  0  0  0  0  0  0  0  0  0  0
    6.5998    3.2506   10.3873 C   0  0  0  0  0  0  0  0  0  0  0  0
    7.4972    2.6867    9.2947 C   0  0  2  0  0  0  0  0  0  0  0  0
    8.7610    3.4084    9.3389 N   0  3  0  0  0  0  0  0  0  0  0  0
    6.8229    2.8521    7.9348 C   0  0  1  0  0  0  0  0  0  0  0  0
    7.6657    2.2907    6.9097 O   0  0  0  0  0  0  0  0  0  0  0  0
    5.4581    2.1498    7.9147 C   0  0  2  0  0  0  0  0  0  0  0  0
    4.8050    2.4125    6.6581 O   0  0  0  0  0  0  0  0  0  0  0  0
    4.5574    2.6471    9.0425 C   0  0  1  0  0  0  0  0  0  0  0  0
    3.3575    1.8853    9.0622 O   0  0  0  0  0  0  0  0  0  0  0  0
  1  2  1  0  0  0  0
  3  2  1  6  0  0  0
  3  5  1  0  0  0  0
  3  4  1  0  0  0  0
  4  9  1  0  0  0  0
  5  7  1  0  0  0  0
  5  6  1  6  0  0  0
  7  9  1  0  0  0  0
  7  8  1  1  0  0  0
  9 40  1  6  0  0  0
 10  6  1  6  0  0  0
 10 11  1  0  0  0  0
 10 18  1  0  0  0  0
 11 13  1  0  0  0  0
 11 12  1  6  0  0  0
 13 15  1  0  0  0  0
 13 14  1  1  0  0  0
 15 17  1  0  0  0  0
 15 16  1  6  0  0  0
 17 19  1  6  0  0  0
 17 18  1  0  0  0  0
 19 20  1  0  0  0  0
 21 29  1  0  0  0  0
 22 23  1  0  0  0  0
 22 31  1  0  0  0  0
 22 38  1  1  0  0  0
 23 25  1  0  0  0  0
 23 24  1  1  0  0  0
 25 27  1  0  0  0  0
 25 26  1  6  0  0  0
 27 30  1  0  0  0  0
 27 28  1  1  0  0  0
 30 21  1  6  0  0  0
 30 31  1  0  0  0  0
 32 34  1  0  0  0  0
 32 41  1  0  0  0  0
 32 33  1  1  0  0  0
 34 35  1  0  0  0  0
 35 37  1  0  0  0  0
 35 36  1  6  0  0  0
 37 39  1  0  0  0  0
 37 38  1  6  0  0  0
 39 41  1  0  0  0  0
 39 40  1  6  0  0  0
 41 42  1  1  0  0  0
M  CHG  6  12   1  20   1  24   1  29   1  33   1  36   1
M  END
>  <CHROM.1>
176.58865140,73.20642077,-167.41133421,-154.52080174,52.53590385,-85.49933106
41.54890278,54.63184984,68.85356149,-179.60724630,64.39810222,172.38184190
150.87972582,-173.19255753,-61.68355934,61.33541943,66.59564829,63.23773187
-172.22981192,-173.75787062,176.19446045,68.47406978,5.31617156,2.79725065
4.77796640,2.11862942,-0.24430270,-1.35452562

>  <Name>
1NEM.B

>  <RI>
0

>  <Rbt.Current_Directory>
/home/itssahil/PROJECTS/Mol_Feturizer/New_Systems/rnas/1nem

>  <Rbt.Executable>
rbdock ($Id: //depot/dev/client3/rdock/2013.1/src/exe/rbdock.cxx#4 $)

>  <Rbt.Library>
libRbt.so (2013.1, Build901 2013/11/27)

>  <Rbt.Parameter_File>
/export/apps/rDock/src/rDock_2013.1_src/data/scripts/dock_solv.prm

>  <Rbt.Receptor>
prm/pocket_docking_7.prm

>  <SCORE>
-19.9217

>  <SCORE.INTER>
-18.8492

>  <SCORE.INTER.CONST>
1

>  <SCORE.INTER.POLAR>
-2.71675

>  <SCORE.INTER.ROT>
9

>  <SCORE.INTER.SOLV>
16.5673

>  <SCORE.INTER.VDW>
-18.6328

>  <SCORE.INTER.norm>
-0.448791

>  <SCORE.INTRA>
-1.07248

>  <SCORE.INTRA.DIHEDRAL>
-9.90864

>  <SCORE.INTRA.DIHEDRAL.0>
22.4324

>  <SCORE.INTRA.POLAR>
1.21246

>  <SCORE.INTRA.POLAR.0>
-1.83749

>  <SCORE.INTRA.REPUL>
0

>  <SCORE.INTRA.REPUL.0>
0

>  <SCORE.INTRA.SOLV>
-9.0687

>  <SCORE.INTRA.SOLV.lig_0>
-160.638

>  <SCORE.INTRA.VDW>
4.29384

>  <SCORE.INTRA.VDW.0>
-7.61953

>  <SCORE.INTRA.norm>
-0.0255351

>  <SCORE.RESTR>
0

>  <SCORE.RESTR.CAVITY>
0

>  <SCORE.RESTR.norm>
0

>  <SCORE.SYSTEM>
0

>  <SCORE.SYSTEM.CONST>
0

>  <SCORE.SYSTEM.DIHEDRAL>
0

>  <SCORE.SYSTEM.SOLV>
0

>  <SCORE.SYSTEM.norm>
0

>  <SCORE.heavy>
42

>  <SCORE.norm>
-0.474327

>  <RMSD>
10.541

$$$$
1NEM.B
 OpenBabel11021811403D
libRbt.so/2013.1/901 2013/11/27
 42 45  0  0  0  0  0  0  0  0999 V2000
    7.4223    0.7757    0.2544 O   0  0  0  0  0  0  0  0  0  0  0  0
    7.3962    0.1381    1.5330 C   0  0  0  0  0  0  0  0  0  0  0  0
    6.0284    0.2112    2.2102 C   0  0  1  0  0  0  0  0  0  0  0  0
    6.1334   -0.1129    3.5934 O   0  0  0  0  0  0  0  0  0  0  0  0
    5.4015    1.5962    2.2258 C   0  0  1  0  0  0  0  0  0  0  0  0
    4.9773    1.8855    0.8918 O   0  0  0  0  0  0  0  0  0  0  0  0
    4.3056    1.3490    3.2456 C   0  0  1  0  0  0  0  0  0  0  0  0
    3.2774    0.4928    2.7370 O   0  0  0  0  0  0  0  0  0  0  0  0
    5.1307    0.6112    4.3066 C   0  0  2  0  0  0  0  0  0  0  0  0
    4.0033    1.0368    0.3548 C   0  0  2  0  0  0  0  0  0  0  0  0
    4.6514    0.1216   -0.6929 C   0  0  2  0  0  0  0  0  0  0  0  0
    5.3856    0.9356   -1.6972 N   0  3  0  0  0  0  0  0  0  0  0  0
    3.6031   -0.7803   -1.3524 C   0  0  1  0  0  0  0  0  0  0  0  0
    3.1562   -1.7548   -0.4190 O   0  0  0  0  0  0  0  0  0  0  0  0
    2.4083    0.0362   -1.8545 C   0  0  2  0  0  0  0  0  0  0  0  0
    2.7957    0.8561   -2.9499 O   0  0  0  0  0  0  0  0  0  0  0  0
    1.8665    0.9031   -0.7214 C   0  0  1  0  0  0  0  0  0  0  0  0
    2.9152    1.7520   -0.2158 O   0  0  0  0  0  0  0  0  0  0  0  0
    0.7095    1.7900   -1.1463 C   0  0  0  0  0  0  0  0  0  0  0  0
    0.2721    2.6883   -0.0546 N   0  3  0  0  0  0  0  0  0  0  0  0
   12.3162    3.9554    6.6853 C   0  0  0  0  0  0  0  0  0  0  0  0
    8.6412    3.8517    6.2262 C   0  0  2  0  0  0  0  0  0  0  0  0
    8.5001    4.4780    4.8410 C   0  0  2  0  0  0  0  0  0  0  0  0
    7.1861    4.1277    4.2509 N   0  3  0  0  0  0  0  0  0  0  0  0
    9.6121    3.9833    3.9257 C   0  0  1  0  0  0  0  0  0  0  0  0
    9.5157    4.6311    2.6665 O   0  0  0  0  0  0  0  0  0  0  0  0
   10.9679    4.2757    4.5645 C   0  0  2  0  0  0  0  0  0  0  0  0
   12.0095    3.7550    3.7488 O   0  0  0  0  0  0  0  0  0  0  0  0
   13.4965    3.3991    5.9850 N   0  3  0  0  0  0  0  0  0  0  0  0
   11.0277    3.6328    5.9488 C   0  0  2  0  0  0  0  0  0  0  0  0
    9.9363    4.1070    6.7635 O   0  0  0  0  0  0  0  0  0  0  0  0
    6.0105   -0.1472    8.5231 C   0  0  2  0  0  0  0  0  0  0  0  0
    4.9369   -0.6403    9.4162 N   0  3  0  0  0  0  0  0  0  0  0  0
    6.8033    0.9531    9.2195 C   0  0  0  0  0  0  0  0  0  0  0  0
    7.9098    1.4714    8.3116 C   0  0  2  0  0  0  0  0  0  0  0  0
    8.6267    2.5136    9.0328 N   0  3  0  0  0  0  0  0  0  0  0  0
    7.3057    2.0193    7.0208 C   0  0  1  0  0  0  0  0  0  0  0  0
    8.3611    2.4818    6.1555 O   0  0  0  0  0  0  0  0  0  0  0  0
    6.4911    0.9372    6.2986 C   0  0  2  0  0  0  0  0  0  0  0  0
    5.8511    1.5130    5.1439 O   0  0  0  0  0  0  0  0  0  0  0  0
    5.4141    0.3494    7.2071 C   0  0  1  0  0  0  0  0  0  0  0  0
    4.7697   -0.7292    6.5424 O   0  0  0  0  0  0  0  0  0  0  0  0
  1  2  1  0  0  0  0
  3  2  1  1  0  0  0
  3  5  1  0  0  0  0
  3  4  1  0  0  0  0
  4  9  1  0  0  0  0
  5  7  1  0  0  0  0
  5  6  1  6  0  0  0
  7  9  1  0  0  0  0
  7  8  1  6  0  0  0
  9 40  1  1  0  0  0
 10  6  1  6  0  0  0
 10 11  1  0  0  0  0
 10 18  1  0  0  0  0
 11 13  1  0  0  0  0
 11 12  1  6  0  0  0
 13 15  1  0  0  0  0
 13 14  1  1  0  0  0
 15 17  1  0  0  0  0
 15 16  1  6  0  0  0
 17 19  1  6  0  0  0
 17 18  1  0  0  0  0
 19 20  1  0  0  0  0
 21 29  1  0  0  0  0
 22 23  1  0  0  0  0
 22 31  1  0  0  0  0
 22 38  1  6  0  0  0
 23 25  1  0  0  0  0
 23 24  1  6  0  0  0
 25 27  1  0  0  0  0
 25 26  1  6  0  0  0
 27 30  1  0  0  0  0
 27 28  1  6  0  0  0
 30 21  1  1  0  0  0
 30 31  1  0  0  0  0
 32 34  1  0  0  0  0
 32 41  1  0  0  0  0
 32 33  1  1  0  0  0
 34 35  1  0  0  0  0
 35 37  1  0  0  0  0
 35 36  1  1  0  0  0
 37 39  1  0  0  0  0
 37 38  1  6  0  0  0
 39 41  1  0  0  0  0
 39 40  1  6  0  0  0
 41 42  1  6  0  0  0
M  CHG  6  12   1  20   1  24   1  29   1  33   1  36   1
M  END
>  <CHROM.1>
59.04482704,-164.77597240,62.09620999,-106.84400597,-85.35951339,-74.66517391
-39.62876042,-176.06939119,52.69032511,-175.81218454,-67.69583142,-63.75445143
172.75979404,-123.07005294,-168.45309015,-173.38170547,68.78977106,165.13011911
-57.90496190,-95.79589736,175.60576428,-58.46816731,6.37291733,1.66044193
3.50352786,-2.38558796,0.47472201,1.73719817

>  <Name>
1NEM.B

>  <RI>
0

>  <Rbt.Current_Directory>
/home/itssahil/PROJECTS/Mol_Feturizer/New_Systems/rnas/1nem

>  <Rbt.Executable>
rbdock ($Id: //depot/dev/client3/rdock/2013.1/src/exe/rbdock.cxx#4 $)

>  <Rbt.Library>
libRbt.so (2013.1, Build901 2013/11/27)

>  <Rbt.Parameter_File>
/export/apps/rDock/src/rDock_2013.1_src/data/scripts/dock_solv.prm

>  <Rbt.Receptor>
prm/pocket_docking_8.prm

>  <SCORE>
-20.8207

>  <SCORE.INTER>
-22.2285

>  <SCORE.INTER.CONST>
1

>  <SCORE.INTER.POLAR>
-4.37055

>  <SCORE.INTER.ROT>
9

>  <SCORE.INTER.SOLV>
13.5578

>  <SCORE.INTER.VDW>
-14.3698

>  <SCORE.INTER.norm>
-0.52925

>  <SCORE.INTRA>
1.3957

>  <SCORE.INTRA.DIHEDRAL>
4.09064

>  <SCORE.INTRA.DIHEDRAL.0>
22.4324

>  <SCORE.INTRA.POLAR>
-1.97286

>  <SCORE.INTRA.POLAR.0>
-1.83749

>  <SCORE.INTRA.REPUL>
0.0345669

>  <SCORE.INTRA.REPUL.0>
0

>  <SCORE.INTRA.SOLV>
1.76815

>  <SCORE.INTRA.SOLV.lig_0>
-160.638

>  <SCORE.INTRA.VDW>
5.00119

>  <SCORE.INTRA.VDW.0>
-7.61953

>  <SCORE.INTRA.norm>
0.0332311

>  <SCORE.RESTR>
0.0120864

>  <SCORE.RESTR.CAVITY>
0.0120864

>  <SCORE.RESTR.norm>
0.000287772

>  <SCORE.SYSTEM>
0

>  <SCORE.SYSTEM.CONST>
0

>  <SCORE.SYSTEM.DIHEDRAL>
0

>  <SCORE.SYSTEM.SOLV>
0

>  <SCORE.SYSTEM.norm>
0

>  <SCORE.heavy>
42

>  <SCORE.norm>
-0.495731

>  <RMSD>
11.068

$$$$
1NEM.B
 OpenBabel11021811403D
libRbt.so/2013.1/901 2013/11/27
 42 45  0  0  0  0  0  0  0  0999 V2000
   -6.5564   -5.7158    3.7732 O   0  0  0  0  0  0  0  0  0  0  0  0
   -7.6747   -5.0520    3.1808 C   0  0  0  0  0  0  0  0  0  0  0  0
   -7.3248   -4.3400    1.8749 C   0  0  1  0  0  0  0  0  0  0  0  0
   -6.0777   -3.6610    1.9900 O   0  0  0  0  0  0  0  0  0  0  0  0
   -7.1075   -5.2638    0.6871 C   0  0  1  0  0  0  0  0  0  0  0  0
   -8.3884   -5.7672    0.3007 O   0  0  0  0  0  0  0  0  0  0  0  0
   -6.4531   -4.2786   -0.2631 C   0  0  1  0  0  0  0  0  0  0  0  0
   -7.3750   -3.2913   -0.7372 O   0  0  0  0  0  0  0  0  0  0  0  0
   -5.4509   -3.6427    0.7074 C   0  0  2  0  0  0  0  0  0  0  0  0
   -8.6303   -7.1177    0.5742 C   0  0  2  0  0  0  0  0  0  0  0  0
   -8.0787   -7.9733   -0.5744 C   0  0  2  0  0  0  0  0  0  0  0  0
   -8.6237   -7.4969   -1.8729 N   0  3  0  0  0  0  0  0  0  0  0  0
   -8.3821   -9.4572   -0.3434 C   0  0  1  0  0  0  0  0  0  0  0  0
   -7.5877   -9.9458    0.7294 O   0  0  0  0  0  0  0  0  0  0  0  0
   -9.8646   -9.6756   -0.0259 C   0  0  2  0  0  0  0  0  0  0  0  0
  -10.6603   -9.4063   -1.1733 O   0  0  0  0  0  0  0  0  0  0  0  0
  -10.2831   -8.7634    1.1237 C   0  0  1  0  0  0  0  0  0  0  0  0
  -10.0103   -7.3913    0.7785 O   0  0  0  0  0  0  0  0  0  0  0  0
  -11.7572   -8.8751    1.4710 C   0  0  0  0  0  0  0  0  0  0  0  0
  -12.0901  -10.1963    2.0483 N   0  3  0  0  0  0  0  0  0  0  0  0
   -2.8514   -0.3845    1.1688 C   0  0  0  0  0  0  0  0  0  0  0  0
   -4.4404   -2.1460    4.0148 C   0  0  2  0  0  0  0  0  0  0  0  0
   -5.7970   -1.4479    4.0723 C   0  0  2  0  0  0  0  0  0  0  0  0
   -6.7711   -2.2800    4.8181 N   0  3  0  0  0  0  0  0  0  0  0  0
   -6.3197   -1.2000    2.6636 C   0  0  1  0  0  0  0  0  0  0  0  0
   -7.5425   -0.4824    2.7290 O   0  0  0  0  0  0  0  0  0  0  0  0
   -5.2865   -0.4060    1.8675 C   0  0  2  0  0  0  0  0  0  0  0  0
   -5.7369   -0.2301    0.5304 O   0  0  0  0  0  0  0  0  0  0  0  0
   -1.6716   -1.2403    0.9071 N   0  3  0  0  0  0  0  0  0  0  0  0
   -3.9563   -1.1570    1.8682 C   0  0  2  0  0  0  0  0  0  0  0  0
   -3.5229   -1.3966    3.2226 O   0  0  0  0  0  0  0  0  0  0  0  0
   -0.6992   -3.9582    1.9402 C   0  0  2  0  0  0  0  0  0  0  0  0
    0.5504   -4.6096    1.4847 N   0  3  0  0  0  0  0  0  0  0  0  0
   -0.9260   -4.2438    3.4205 C   0  0  0  0  0  0  0  0  0  0  0  0
   -2.2093   -3.5817    3.9024 C   0  0  2  0  0  0  0  0  0  0  0  0
   -2.3662   -3.8900    5.3167 N   0  3  0  0  0  0  0  0  0  0  0  0
   -3.3957   -4.1048    3.0960 C   0  0  1  0  0  0  0  0  0  0  0  0
   -4.6019   -3.4527    3.5389 O   0  0  0  0  0  0  0  0  0  0  0  0
   -3.1939   -3.8415    1.5973 C   0  0  2  0  0  0  0  0  0  0  0  0
   -4.2769   -4.4378    0.8582 O   0  0  0  0  0  0  0  0  0  0  0  0
   -1.8801   -4.4370    1.0975 C   0  0  1  0  0  0  0  0  0  0  0  0
   -1.6759   -4.0640   -0.2589 O   0  0  0  0  0  0  0  0  0  0  0  0
  1  2  1  0  0  0  0
  3  2  1  1  0  0  0
  3  5  1  0  0  0  0
  3  4  1  0  0  0  0
  4  9  1  0  0  0  0
  5  7  1  0  0  0  0
  5  6  1  6  0  0  0
  7  9  1  0  0  0  0
  7  8  1  1  0  0  0
  9 40  1  1  0  0  0
 10  6  1  6  0  0  0
 10 11  1  0  0  0  0
 10 18  1  0  0  0  0
 11 13  1  0  0  0  0
 11 12  1  6  0  0  0
 13 15  1  0  0  0  0
 13 14  1  1  0  0  0
 15 17  1  0  0  0  0
 15 16  1  6  0  0  0
 17 19  1  6  0  0  0
 17 18  1  0  0  0  0
 19 20  1  0  0  0  0
 21 29  1  0  0  0  0
 22 23  1  0  0  0  0
 22 31  1  0  0  0  0
 22 38  1  6  0  0  0
 23 25  1  0  0  0  0
 23 24  1  1  0  0  0
 25 27  1  0  0  0  0
 25 26  1  1  0  0  0
 27 30  1  0  0  0  0
 27 28  1  6  0  0  0
 30 21  1  6  0  0  0
 30 31  1  0  0  0  0
 32 34  1  0  0  0  0
 32 41  1  0  0  0  0
 32 33  1  6  0  0  0
 34 35  1  0  0  0  0
 35 37  1  0  0  0  0
 35 36  1  1  0  0  0
 37 39  1  0  0  0  0
 37 38  1  1  0  0  0
 39 41  1  0  0  0  0
 39 40  1  6  0  0  0
 41 42  1  6  0  0  0
M  CHG  6  12   1  20   1  24   1  29   1  33   1  36   1
M  END
>  <CHROM.1>
59.43118010,-42.40885322,-108.92912957,-85.31122033,-153.55483770,-73.89477549
166.95595972,61.74115242,75.21905500,67.56325645,-49.68966788,-166.99883005
59.48543916,164.07700556,100.41172681,-87.86704466,178.31570136,37.99548825
163.08797545,30.65165649,86.22276648,74.23944642,-5.89466330,-4.63967196
1.61156575,2.38831984,-0.03948035,-2.78714157

>  <Name>
1NEM.B

>  <RI>
0

>  <Rbt.Current_Directory>
/home/itssahil/PROJECTS/Mol_Feturizer/New_Systems/rnas/1nem

>  <Rbt.Executable>
rbdock ($Id: //depot/dev/client3/rdock/2013.1/src/exe/rbdock.cxx#4 $)

>  <Rbt.Library>
libRbt.so (2013.1, Build901 2013/11/27)

>  <Rbt.Parameter_File>
/export/apps/rDock/src/rDock_2013.1_src/data/scripts/dock_solv.prm

>  <Rbt.Receptor>
prm/blind_docking_20.prm

>  <SCORE>
-9.39765

>  <SCORE.INTER>
-31.7079

>  <SCORE.INTER.CONST>
1

>  <SCORE.INTER.POLAR>
-4.90305

>  <SCORE.INTER.ROT>
9

>  <SCORE.INTER.SOLV>
42.0818

>  <SCORE.INTER.VDW>
-28.4224

>  <SCORE.INTER.norm>
-0.75495

>  <SCORE.INTRA>
16.6294

>  <SCORE.INTRA.DIHEDRAL>
10.5213

>  <SCORE.INTRA.DIHEDRAL.0>
22.4324

>  <SCORE.INTRA.POLAR>
-1.05836

>  <SCORE.INTRA.POLAR.0>
-1.83749

>  <SCORE.INTRA.REPUL>
0.419368

>  <SCORE.INTRA.REPUL.0>
0

>  <SCORE.INTRA.SOLV>
5.26129

>  <SCORE.INTRA.SOLV.lig_0>
-160.638

>  <SCORE.INTRA.VDW>
10.2397

>  <SCORE.INTRA.VDW.0>
-7.61953

>  <SCORE.INTRA.norm>
0.395939

>  <SCORE.RESTR>
5.68081

>  <SCORE.RESTR.CAVITY>
5.68081

>  <SCORE.RESTR.norm>
0.135257

>  <SCORE.SYSTEM>
0

>  <SCORE.SYSTEM.CONST>
0

>  <SCORE.SYSTEM.DIHEDRAL>
0

>  <SCORE.SYSTEM.SOLV>
0

>  <SCORE.SYSTEM.norm>
0

>  <SCORE.heavy>
42

>  <SCORE.norm>
-0.223754

>  <RMSD>
11.146

$$$$
1NEM.B
 OpenBabel11021811403D
libRbt.so/2013.1/901 2013/11/27
 42 45  0  0  0  0  0  0  0  0999 V2000
   -6.8224   -6.4516    3.8202 O   0  0  0  0  0  0  0  0  0  0  0  0
   -7.8356   -5.4984    3.4933 C   0  0  0  0  0  0  0  0  0  0  0  0
   -7.5748   -4.7776    2.1715 C   0  0  1  0  0  0  0  0  0  0  0  0
   -6.3467   -4.0574    2.2244 O   0  0  0  0  0  0  0  0  0  0  0  0
   -7.3862   -5.6959    0.9745 C   0  0  1  0  0  0  0  0  0  0  0  0
   -8.6672   -6.2422    0.6523 O   0  0  0  0  0  0  0  0  0  0  0  0
   -6.8129   -4.6912   -0.0072 C   0  0  1  0  0  0  0  0  0  0  0  0
   -7.7894   -3.7359   -0.4351 O   0  0  0  0  0  0  0  0  0  0  0  0
   -5.7853   -4.0206    0.9122 C   0  0  2  0  0  0  0  0  0  0  0  0
   -8.6917   -7.5964    0.3021 C   0  0  2  0  0  0  0  0  0  0  0  0
  -10.1455   -8.0361    0.0820 C   0  0  2  0  0  0  0  0  0  0  0  0
  -10.9692   -7.6884    1.2698 N   0  3  0  0  0  0  0  0  0  0  0  0
  -10.2200   -9.5321   -0.2403 C   0  0  1  0  0  0  0  0  0  0  0  0
   -9.6936   -9.7676   -1.5395 O   0  0  0  0  0  0  0  0  0  0  0  0
   -9.4409  -10.3585    0.7874 C   0  0  2  0  0  0  0  0  0  0  0  0
  -10.0913  -10.3155    2.0512 O   0  0  0  0  0  0  0  0  0  0  0  0
   -8.0209   -9.8140    0.9138 C   0  0  1  0  0  0  0  0  0  0  0  0
   -8.0661   -8.4205    1.2771 O   0  0  0  0  0  0  0  0  0  0  0  0
   -7.1902  -10.5431    1.9551 C   0  0  0  0  0  0  0  0  0  0  0  0
   -6.9165  -11.9432    1.5619 N   0  3  0  0  0  0  0  0  0  0  0  0
   -2.9520   -0.4145    1.4069 C   0  0  0  0  0  0  0  0  0  0  0  0
   -4.5092   -2.3218    4.1754 C   0  0  2  0  0  0  0  0  0  0  0  0
   -5.8440   -1.5946    4.3191 C   0  0  2  0  0  0  0  0  0  0  0  0
   -6.8196   -2.4497    5.0364 N   0  3  0  0  0  0  0  0  0  0  0  0
   -6.3986   -1.2394    2.9460 C   0  0  1  0  0  0  0  0  0  0  0  0
   -7.5989   -0.4967    3.0950 O   0  0  0  0  0  0  0  0  0  0  0  0
   -5.3664   -0.4205    2.1742 C   0  0  2  0  0  0  0  0  0  0  0  0
   -5.8487   -0.1437    0.8657 O   0  0  0  0  0  0  0  0  0  0  0  0
   -2.2264   -1.2394    0.4139 N   0  3  0  0  0  0  0  0  0  0  0  0
   -4.0579   -1.2036    2.0858 C   0  0  2  0  0  0  0  0  0  0  0  0
   -3.5938   -1.5446    3.4079 O   0  0  0  0  0  0  0  0  0  0  0  0
   -0.9400   -4.1681    1.7694 C   0  0  2  0  0  0  0  0  0  0  0  0
    0.2836   -4.8372    1.2709 N   0  3  0  0  0  0  0  0  0  0  0  0
   -1.0492   -4.3402    3.2802 C   0  0  0  0  0  0  0  0  0  0  0  0
   -2.3046   -3.6589    3.8067 C   0  0  2  0  0  0  0  0  0  0  0  0
   -2.3487   -3.8579    5.2484 N   0  3  0  0  0  0  0  0  0  0  0  0
   -3.5385   -4.2583    3.1362 C   0  0  1  0  0  0  0  0  0  0  0  0
   -4.7198   -3.5890    3.6188 O   0  0  0  0  0  0  0  0  0  0  0  0
   -3.4552   -4.1102    1.6106 C   0  0  2  0  0  0  0  0  0  0  0  0
   -4.5796   -4.7761    1.0047 O   0  0  0  0  0  0  0  0  0  0  0  0
   -2.1720   -4.7262    1.0588 C   0  0  1  0  0  0  0  0  0  0  0  0
   -2.0776   -4.4576   -0.3338 O   0  0  0  0  0  0  0  0  0  0  0  0
  1  2  1  0  0  0  0
  3  2  1  1  0  0  0
  3  5  1  0  0  0  0
  3  4  1  0  0  0  0
  4  9  1  0  0  0  0
  5  7  1  0  0  0  0
  5  6  1  6  0  0  0
  7  9  1  0  0  0  0
  7  8  1  1  0  0  0
  9 40  1  1  0  0  0
 10  6  1  1  0  0  0
 10 11  1  0  0  0  0
 10 18  1  0  0  0  0
 11 13  1  0  0  0  0
 11 12  1  1  0  0  0
 13 15  1  0  0  0  0
 13 14  1  6  0  0  0
 15 17  1  0  0  0  0
 15 16  1  1  0  0  0
 17 19  1  1  0  0  0
 17 18  1  0  0  0  0
 19 20  1  0  0  0  0
 21 29  1  0  0  0  0
 22 23  1  0  0  0  0
 22 31  1  0  0  0  0
 22 38  1  6  0  0  0
 23 25  1  0  0  0  0
 23 24  1  6  0  0  0
 25 27  1  0  0  0  0
 25 26  1  1  0  0  0
 27 30  1  0  0  0  0
 27 28  1  6  0  0  0
 30 21  1  1  0  0  0
 30 31  1  0  0  0  0
 32 34  1  0  0  0  0
 32 41  1  0  0  0  0
 32 33  1  6  0  0  0
 34 35  1  0  0  0  0
 35 37  1  0  0  0  0
 35 36  1  1  0  0  0
 37 39  1  0  0  0  0
 37 38  1  1  0  0  0
 39 41  1  0  0  0  0
 39 40  1  6  0  0  0
 41 42  1  6  0  0  0
M  CHG  6  12   1  20   1  24   1  29   1  33   1  36   1
M  END
>  <CHROM.1>
179.81519119,-60.72818430,-139.18884785,176.22632395,-70.55785715,-77.83691520
50.58671800,-173.46981388,176.53171719,66.87779213,-47.31942924,-134.61197599
-153.90791204,165.94627144,9.09050031,-173.89322099,115.59422962,34.79888653
166.66696151,20.96642616,84.79538406,-71.70553344,-5.88532757,-4.99435110
1.84796417,-2.24624097,-0.04544488,0.19696723

>  <Name>
1NEM.B

>  <RI>
0

>  <Rbt.Current_Directory>
/home/itssahil/PROJECTS/Mol_Feturizer/New_Systems/rnas/1nem

>  <Rbt.Executable>
rbdock ($Id: //depot/dev/client3/rdock/2013.1/src/exe/rbdock.cxx#4 $)

>  <Rbt.Library>
libRbt.so (2013.1, Build901 2013/11/27)

>  <Rbt.Parameter_File>
/export/apps/rDock/src/rDock_2013.1_src/data/scripts/dock_solv.prm

>  <Rbt.Receptor>
prm/blind_docking_20.prm

>  <SCORE>
12.9284

>  <SCORE.INTER>
-21.8929

>  <SCORE.INTER.CONST>
1

>  <SCORE.INTER.POLAR>
-4.89912

>  <SCORE.INTER.ROT>
9

>  <SCORE.INTER.SOLV>
38.5773

>  <SCORE.INTER.VDW>
-20.7239

>  <SCORE.INTER.norm>
-0.521259

>  <SCORE.INTRA>
26.9192

>  <SCORE.INTRA.DIHEDRAL>
14.4402

>  <SCORE.INTRA.DIHEDRAL.0>
22.4324

>  <SCORE.INTRA.POLAR>
1.10667

>  <SCORE.INTRA.POLAR.0>
-1.83749

>  <SCORE.INTRA.REPUL>
0.811122

>  <SCORE.INTRA.REPUL.0>
0

>  <SCORE.INTRA.SOLV>
1.2083

>  <SCORE.INTRA.SOLV.lig_0>
-160.638

>  <SCORE.INTRA.VDW>
11.2767

>  <SCORE.INTRA.VDW.0>
-7.61953

>  <SCORE.INTRA.norm>
0.640933

>  <SCORE.RESTR>
7.90204

>  <SCORE.RESTR.CAVITY>
7.90204

>  <SCORE.RESTR.norm>
0.188144

>  <SCORE.SYSTEM>
0

>  <SCORE.SYSTEM.CONST>
0

>  <SCORE.SYSTEM.DIHEDRAL>
0

>  <SCORE.SYSTEM.SOLV>
0

>  <SCORE.SYSTEM.norm>
0

>  <SCORE.heavy>
42

>  <SCORE.norm>
0.307819

>  <RMSD>
11.264

$$$$
1NEM.B
 OpenBabel11021811403D
libRbt.so/2013.1/901 2013/11/27
 42 45  0  0  0  0  0  0  0  0999 V2000
   -5.4042   -6.7966    4.0194 O   0  0  0  0  0  0  0  0  0  0  0  0
   -6.7539   -6.3292    3.9746 C   0  0  0  0  0  0  0  0  0  0  0  0
   -7.0769   -5.5549    2.6976 C   0  0  1  0  0  0  0  0  0  0  0  0
   -6.0894   -4.5584    2.4496 O   0  0  0  0  0  0  0  0  0  0  0  0
   -7.0537   -6.3891    1.4268 C   0  0  1  0  0  0  0  0  0  0  0  0
   -8.2114   -7.2273    1.4478 O   0  0  0  0  0  0  0  0  0  0  0  0
   -7.0498   -5.2665    0.4062 C   0  0  1  0  0  0  0  0  0  0  0  0
   -8.3014   -4.5733    0.3605 O   0  0  0  0  0  0  0  0  0  0  0  0
   -5.9747   -4.3746    1.0383 C   0  0  2  0  0  0  0  0  0  0  0  0
   -8.3856   -8.0691    0.3441 C   0  0  2  0  0  0  0  0  0  0  0  0
   -9.7962   -7.8699   -0.2267 C   0  0  2  0  0  0  0  0  0  0  0  0
  -10.8100   -8.0392    0.8475 N   0  3  0  0  0  0  0  0  0  0  0  0
  -10.0496   -8.8229   -1.3994 C   0  0  1  0  0  0  0  0  0  0  0  0
   -9.2729   -8.4192   -2.5194 O   0  0  0  0  0  0  0  0  0  0  0  0
   -9.6993  -10.2662   -1.0245 C   0  0  2  0  0  0  0  0  0  0  0  0
  -10.6192  -10.7634   -0.0608 O   0  0  0  0  0  0  0  0  0  0  0  0
   -8.2800  -10.3216   -0.4666 C   0  0  1  0  0  0  0  0  0  0  0  0
   -8.1686   -9.4369    0.6652 O   0  0  0  0  0  0  0  0  0  0  0  0
   -7.8667  -11.7120   -0.0171 C   0  0  0  0  0  0  0  0  0  0  0  0
   -7.0986  -11.6782    1.2473 N   0  3  0  0  0  0  0  0  0  0  0  0
   -3.0905   -0.5181    1.5050 C   0  0  0  0  0  0  0  0  0  0  0  0
   -4.7150   -2.6470    4.0654 C   0  0  2  0  0  0  0  0  0  0  0  0
   -6.0893   -1.9895    4.1657 C   0  0  2  0  0  0  0  0  0  0  0  0
   -7.0633   -2.9266    4.7745 N   0  3  0  0  0  0  0  0  0  0  0  0
   -6.5784   -1.5821    2.7822 C   0  0  1  0  0  0  0  0  0  0  0  0
   -7.8196   -0.9034    2.8969 O   0  0  0  0  0  0  0  0  0  0  0  0
   -5.5429   -0.6755    2.1207 C   0  0  2  0  0  0  0  0  0  0  0  0
   -5.9599   -0.3467    0.8018 O   0  0  0  0  0  0  0  0  0  0  0  0
   -2.5081   -1.1047    0.2763 N   0  3  0  0  0  0  0  0  0  0  0  0
   -4.1954   -1.3930    2.0709 C   0  0  2  0  0  0  0  0  0  0  0  0
   -3.7942   -1.7874    3.3988 O   0  0  0  0  0  0  0  0  0  0  0  0
   -1.0605   -3.9922    1.4765 C   0  0  2  0  0  0  0  0  0  0  0  0
    0.1999   -4.5129    0.8990 N   0  3  0  0  0  0  0  0  0  0  0  0
   -1.1219   -4.3107    2.9661 C   0  0  0  0  0  0  0  0  0  0  0  0
   -2.4143   -3.7829    3.5730 C   0  0  2  0  0  0  0  0  0  0  0  0
   -2.4102   -4.1165    4.9904 N   0  3  0  0  0  0  0  0  0  0  0  0
   -3.6126   -4.4146    2.8684 C   0  0  1  0  0  0  0  0  0  0  0  0
   -4.8312   -3.8888    3.4294 O   0  0  0  0  0  0  0  0  0  0  0  0
   -3.5756   -4.1206    1.3623 C   0  0  2  0  0  0  0  0  0  0  0  0
   -4.6580   -4.8154    0.7139 O   0  0  0  0  0  0  0  0  0  0  0  0
   -2.2611   -4.5790    0.7358 C   0  0  1  0  0  0  0  0  0  0  0  0
   -2.2194   -4.1768   -0.6269 O   0  0  0  0  0  0  0  0  0  0  0  0
  1  2  1  0  0  0  0
  3  2  1  1  0  0  0
  3  5  1  0  0  0  0
  3  4  1  0  0  0  0
  4  9  1  0  0  0  0
  5  7  1  0  0  0  0
  5  6  1  6  0  0  0
  7  9  1  0  0  0  0
  7  8  1  1  0  0  0
  9 40  1  6  0  0  0
 10  6  1  1  0  0  0
 10 11  1  0  0  0  0
 10 18  1  0  0  0  0
 11 13  1  0  0  0  0
 11 12  1  1  0  0  0
 13 15  1  0  0  0  0
 13 14  1  6  0  0  0
 15 17  1  0  0  0  0
 15 16  1  1  0  0  0
 17 19  1  1  0  0  0
 17 18  1  0  0  0  0
 19 20  1  0  0  0  0
 21 29  1  0  0  0  0
 22 23  1  0  0  0  0
 22 31  1  0  0  0  0
 22 38  1  6  0  0  0
 23 25  1  0  0  0  0
 23 24  1  6  0  0  0
 25 27  1  0  0  0  0
 25 26  1  1  0  0  0
 27 30  1  0  0  0  0
 27 28  1  6  0  0  0
 30 21  1  1  0  0  0
 30 31  1  0  0  0  0
 32 34  1  0  0  0  0
 32 41  1  0  0  0  0
 32 33  1  6  0  0  0
 34 35  1  0  0  0  0
 35 37  1  0  0  0  0
 35 36  1  1  0  0  0
 37 39  1  0  0  0  0
 37 38  1  1  0  0  0
 39 41  1  0  0  0  0
 39 40  1  6  0  0  0
 41 42  1  6  0  0  0
M  CHG  6  12   1  20   1  24   1  29   1  33   1  36   1
M  END
>  <CHROM.1>
-58.96497244,-49.51340656,179.16662406,-127.63273065,-175.32904715,-59.68970298
42.12943482,-175.54422587,174.00949182,-139.37734531,164.23648254,-119.21752235
-70.56714964,160.06681051,-40.11604659,171.46829720,82.57859491,-62.75434285
-68.94233467,22.72345670,66.84365658,-153.73638593,-5.90146313,-5.22772160
1.57881565,-2.21880259,-0.02904317,0.30977706

>  <Name>
1NEM.B

>  <RI>
0

>  <Rbt.Current_Directory>
/home/itssahil/PROJECTS/Mol_Feturizer/New_Systems/rnas/1nem

>  <Rbt.Executable>
rbdock ($Id: //depot/dev/client3/rdock/2013.1/src/exe/rbdock.cxx#4 $)

>  <Rbt.Library>
libRbt.so (2013.1, Build901 2013/11/27)

>  <Rbt.Parameter_File>
/export/apps/rDock/src/rDock_2013.1_src/data/scripts/dock_solv.prm

>  <Rbt.Receptor>
prm/blind_docking_80.prm

>  <SCORE>
31.0344

>  <SCORE.INTER>
-12.4504

>  <SCORE.INTER.CONST>
1

>  <SCORE.INTER.POLAR>
-5.0192

>  <SCORE.INTER.ROT>
9

>  <SCORE.INTER.SOLV>
44.4068

>  <SCORE.INTER.VDW>
-15.9719

>  <SCORE.INTER.norm>
-0.296439

>  <SCORE.INTRA>
38.3211

>  <SCORE.INTRA.DIHEDRAL>
10.5782

>  <SCORE.INTRA.DIHEDRAL.0>
22.4324

>  <SCORE.INTRA.POLAR>
0.138251

>  <SCORE.INTRA.POLAR.0>
-1.83749

>  <SCORE.INTRA.REPUL>
0.944239

>  <SCORE.INTRA.REPUL.0>
0

>  <SCORE.INTRA.SOLV>
2.76642

>  <SCORE.INTRA.SOLV.lig_0>
-160.638

>  <SCORE.INTRA.VDW>
26.4576

>  <SCORE.INTRA.VDW.0>
-7.61953

>  <SCORE.INTRA.norm>
0.912408

>  <SCORE.RESTR>
5.16364

>  <SCORE.RESTR.CAVITY>
5.16364

>  <SCORE.RESTR.norm>
0.122944

>  <SCORE.SYSTEM>
0

>  <SCORE.SYSTEM.CONST>
0

>  <SCORE.SYSTEM.DIHEDRAL>
0

>  <SCORE.SYSTEM.SOLV>
0

>  <SCORE.SYSTEM.norm>
0

>  <SCORE.heavy>
42

>  <SCORE.norm>
0.738913

>  <RMSD>
11.379

$$$$
1NEM.B
 OpenBabel11021811403D
libRbt.so/2013.1/901 2013/11/27
 42 45  0  0  0  0  0  0  0  0999 V2000
   -9.7563   -6.5983    2.9274 O   0  0  0  0  0  0  0  0  0  0  0  0
   -8.3819   -6.2216    3.0342 C   0  0  0  0  0  0  0  0  0  0  0  0
   -7.8682   -5.4772    1.8027 C   0  0  1  0  0  0  0  0  0  0  0  0
   -6.7325   -4.6826    2.1320 O   0  0  0  0  0  0  0  0  0  0  0  0
   -7.3519   -6.3740    0.6888 C   0  0  1  0  0  0  0  0  0  0  0  0
   -8.4876   -6.9965    0.0840 O   0  0  0  0  0  0  0  0  0  0  0  0
   -6.6308   -5.3291   -0.1419 C   0  0  1  0  0  0  0  0  0  0  0  0
   -7.5394   -4.4335   -0.7910 O   0  0  0  0  0  0  0  0  0  0  0  0
   -5.8868   -4.6022    0.9845 C   0  0  2  0  0  0  0  0  0  0  0  0
   -8.3053   -8.3068   -0.3712 C   0  0  2  0  0  0  0  0  0  0  0  0
   -9.5367   -8.7377   -1.1794 C   0  0  2  0  0  0  0  0  0  0  0  0
  -10.7719   -8.5260   -0.3795 N   0  3  0  0  0  0  0  0  0  0  0  0
   -9.4041  -10.1925   -1.6415 C   0  0  1  0  0  0  0  0  0  0  0  0
   -8.4054  -10.2845   -2.6489 O   0  0  0  0  0  0  0  0  0  0  0  0
   -9.0409  -11.1131   -0.4723 C   0  0  2  0  0  0  0  0  0  0  0  0
  -10.1302  -11.2102    0.4366 O   0  0  0  0  0  0  0  0  0  0  0  0
   -7.8099  -10.5684    0.2466 C   0  0  1  0  0  0  0  0  0  0  0  0
   -8.0633   -9.2212    0.6902 O   0  0  0  0  0  0  0  0  0  0  0  0
   -7.4094  -11.3930    1.4573 C   0  0  0  0  0  0  0  0  0  0  0  0
   -8.0516  -10.9021    2.6968 N   0  3  0  0  0  0  0  0  0  0  0  0
   -3.1644   -1.3917    0.7364 C   0  0  0  0  0  0  0  0  0  0  0  0
   -4.8024   -2.4045    3.9016 C   0  0  2  0  0  0  0  0  0  0  0  0
   -6.2081   -1.8447    3.6974 C   0  0  2  0  0  0  0  0  0  0  0  0
   -7.1647   -2.5141    4.6109 N   0  3  0  0  0  0  0  0  0  0  0  0
   -6.6535   -2.0573    2.2568 C   0  0  1  0  0  0  0  0  0  0  0  0
   -7.9280   -1.4645    2.0601 O   0  0  0  0  0  0  0  0  0  0  0  0
   -5.6319   -1.4333    1.3087 C   0  0  2  0  0  0  0  0  0  0  0  0
   -6.0047   -1.6875   -0.0396 O   0  0  0  0  0  0  0  0  0  0  0  0
   -2.2041   -0.6310    1.5685 N   0  3  0  0  0  0  0  0  0  0  0  0
   -4.2524   -2.0292    1.5827 C   0  0  2  0  0  0  0  0  0  0  0  0
   -3.8929   -1.8323    2.9654 O   0  0  0  0  0  0  0  0  0  0  0  0
   -1.0926   -4.2827    1.8660 C   0  0  2  0  0  0  0  0  0  0  0  0
    0.1654   -4.9026    1.3901 N   0  3  0  0  0  0  0  0  0  0  0  0
   -1.1272   -4.2782    3.3901 C   0  0  0  0  0  0  0  0  0  0  0  0
   -2.4168   -3.6455    3.8939 C   0  0  2  0  0  0  0  0  0  0  0  0
   -2.3869   -3.6705    5.3494 N   0  3  0  0  0  0  0  0  0  0  0  0
   -3.6176   -4.4233    3.3604 C   0  0  1  0  0  0  0  0  0  0  0  0
   -4.8341   -3.8017    3.8185 O   0  0  0  0  0  0  0  0  0  0  0  0
   -3.6073   -4.4555    1.8258 C   0  0  2  0  0  0  0  0  0  0  0  0
   -4.6905   -5.2821    1.3588 O   0  0  0  0  0  0  0  0  0  0  0  0
   -2.2967   -5.0244    1.2878 C   0  0  1  0  0  0  0  0  0  0  0  0
   -2.2809   -4.9203   -0.1297 O   0  0  0  0  0  0  0  0  0  0  0  0
  1  2  1  0  0  0  0
  3  2  1  1  0  0  0
  3  5  1  0  0  0  0
  3  4  1  0  0  0  0
  4  9  1  0  0  0  0
  5  7  1  0  0  0  0
  5  6  1  6  0  0  0
  7  9  1  0  0  0  0
  7  8  1  1  0  0  0
  9 40  1  1  0  0  0
 10  6  1  1  0  0  0
 10 11  1  0  0  0  0
 10 18  1  0  0  0  0
 11 13  1  0  0  0  0
 11 12  1  1  0  0  0
 13 15  1  0  0  0  0
 13 14  1  6  0  0  0
 15 17  1  0  0  0  0
 15 16  1  1  0  0  0
 17 19  1  1  0  0  0
 17 18  1  0  0  0  0
 19 20  1  0  0  0  0
 21 29  1  0  0  0  0
 22 23  1  0  0  0  0
 22 31  1  0  0  0  0
 22 38  1  6  0  0  0
 23 25  1  0  0  0  0
 23 24  1  1  0  0  0
 25 27  1  0  0  0  0
 25 26  1  1  0  0  0
 27 30  1  0  0  0  0
 27 28  1  6  0  0  0
 30 21  1  6  0  0  0
 30 31  1  0  0  0  0
 32 34  1  0  0  0  0
 32 41  1  0  0  0  0
 32 33  1  1  0  0  0
 34 35  1  0  0  0  0
 35 37  1  0  0  0  0
 35 36  1  1  0  0  0
 37 39  1  0  0  0  0
 37 38  1  6  0  0  0
 39 41  1  0  0  0  0
 39 40  1  1  0  0  0
 41 42  1  6  0  0  0
M  CHG  6  12   1  20   1  24   1  29   1  33   1  36   1
M  END
>  <CHROM.1>
-178.32510470,157.03970950,-145.24716597,-171.20780287,-165.59442114,-96.79674929
53.27805951,-76.06083927,171.45561232,-91.05061001,-130.05112711,113.69698291
-71.09137692,151.65682636,-158.01700122,64.75663819,176.82482005,57.29899381
-85.44468824,35.80229777,96.80520851,57.80422086,-6.01636970,-5.45767460
1.47341833,2.22409341,0.07417554,-2.85695610

>  <Name>
1NEM.B

>  <RI>
0

>  <Rbt.Current_Directory>
/home/itssahil/PROJECTS/Mol_Feturizer/New_Systems/rnas/1nem

>  <Rbt.Executable>
rbdock ($Id: //depot/dev/client3/rdock/2013.1/src/exe/rbdock.cxx#4 $)

>  <Rbt.Library>
libRbt.so (2013.1, Build901 2013/11/27)

>  <Rbt.Parameter_File>
/export/apps/rDock/src/rDock_2013.1_src/data/scripts/dock_solv.prm

>  <Rbt.Receptor>
prm/blind_docking_80.prm

>  <SCORE>
5.19826

>  <SCORE.INTER>
-19.77

>  <SCORE.INTER.CONST>
1

>  <SCORE.INTER.POLAR>
-7.3188

>  <SCORE.INTER.ROT>
9

>  <SCORE.INTER.SOLV>
47.3183

>  <SCORE.INTER.VDW>
-14.1568

>  <SCORE.INTER.norm>
-0.470713

>  <SCORE.INTRA>
23.7862

>  <SCORE.INTRA.DIHEDRAL>
16.7627

>  <SCORE.INTRA.DIHEDRAL.0>
22.4324

>  <SCORE.INTRA.POLAR>
0.727777

>  <SCORE.INTRA.POLAR.0>
-1.83749

>  <SCORE.INTRA.REPUL>
0.17894

>  <SCORE.INTRA.REPUL.0>
0

>  <SCORE.INTRA.SOLV>
1.6446

>  <SCORE.INTRA.SOLV.lig_0>
-160.638

>  <SCORE.INTRA.VDW>
11.2134

>  <SCORE.INTRA.VDW.0>
-7.61953

>  <SCORE.INTRA.norm>
0.566338

>  <SCORE.RESTR>
1.18199

>  <SCORE.RESTR.CAVITY>
1.18199

>  <SCORE.RESTR.norm>
0.0281427

>  <SCORE.SYSTEM>
0

>  <SCORE.SYSTEM.CONST>
0

>  <SCORE.SYSTEM.DIHEDRAL>
0

>  <SCORE.SYSTEM.SOLV>
0

>  <SCORE.SYSTEM.norm>
0

>  <SCORE.heavy>
42

>  <SCORE.norm>
0.123768

>  <RMSD>
11.524

$$$$
1NEM.B
 OpenBabel11021811403D
libRbt.so/2013.1/901 2013/11/27
 42 45  0  0  0  0  0  0  0  0999 V2000
  -10.0948   -4.9243    1.5041 O   0  0  0  0  0  0  0  0  0  0  0  0
   -9.7754   -4.2198    0.3026 C   0  0  0  0  0  0  0  0  0  0  0  0
   -8.2995   -4.3257   -0.0787 C   0  0  1  0  0  0  0  0  0  0  0  0
   -7.4862   -3.6231    0.8564 O   0  0  0  0  0  0  0  0  0  0  0  0
   -7.7335   -5.7363   -0.0385 C   0  0  1  0  0  0  0  0  0  0  0  0
   -8.2774   -6.4441   -1.1550 O   0  0  0  0  0  0  0  0  0  0  0  0
   -6.2554   -5.4007   -0.1052 C   0  0  1  0  0  0  0  0  0  0  0  0
   -5.8735   -4.8946   -1.3886 O   0  0  0  0  0  0  0  0  0  0  0  0
   -6.2197   -4.2773    0.9376 C   0  0  2  0  0  0  0  0  0  0  0  0
   -9.0539   -7.5687   -0.8555 C   0  0  2  0  0  0  0  0  0  0  0  0
   -9.5075   -7.4951    0.6088 C   0  0  2  0  0  0  0  0  0  0  0  0
   -8.3322   -7.2992    1.4979 N   0  3  0  0  0  0  0  0  0  0  0  0
  -10.3078   -8.7432    0.9952 C   0  0  1  0  0  0  0  0  0  0  0  0
  -11.5719   -8.7200    0.3457 O   0  0  0  0  0  0  0  0  0  0  0  0
   -9.5566  -10.0220    0.6122 C   0  0  2  0  0  0  0  0  0  0  0  0
   -8.3977  -10.1754    1.4218 O   0  0  0  0  0  0  0  0  0  0  0  0
   -9.1592   -9.9625   -0.8600 C   0  0  1  0  0  0  0  0  0  0  0  0
   -8.3624   -8.7864   -1.1004 O   0  0  0  0  0  0  0  0  0  0  0  0
   -8.3597  -11.1711   -1.3140 C   0  0  0  0  0  0  0  0  0  0  0  0
   -8.7144  -11.5827   -2.6904 N   0  3  0  0  0  0  0  0  0  0  0  0
   -1.9323   -4.3608    2.2250 C   0  0  0  0  0  0  0  0  0  0  0  0
   -4.1942   -1.4700    1.7208 C   0  0  2  0  0  0  0  0  0  0  0  0
   -3.8057   -1.0352    0.3097 C   0  0  2  0  0  0  0  0  0  0  0  0
   -4.8777   -0.2008   -0.2836 N   0  3  0  0  0  0  0  0  0  0  0  0
   -3.5718   -2.2561   -0.5699 C   0  0  1  0  0  0  0  0  0  0  0  0
   -3.1364   -1.8404   -1.8552 O   0  0  0  0  0  0  0  0  0  0  0  0
   -2.5207   -3.1568    0.0750 C   0  0  2  0  0  0  0  0  0  0  0  0
   -2.3468   -4.3327   -0.7050 O   0  0  0  0  0  0  0  0  0  0  0  0
   -1.5755   -5.5863    1.4740 N   0  3  0  0  0  0  0  0  0  0  0  0
   -2.9705   -3.5357    1.4847 C   0  0  2  0  0  0  0  0  0  0  0  0
   -3.2113   -2.3470    2.2648 O   0  0  0  0  0  0  0  0  0  0  0  0
   -5.5068   -3.4238    5.7215 C   0  0  2  0  0  0  0  0  0  0  0  0
   -6.0109   -3.8531    7.0463 N   0  3  0  0  0  0  0  0  0  0  0  0
   -5.9555   -1.9960    5.4310 C   0  0  0  0  0  0  0  0  0  0  0  0
   -5.4461   -1.5418    4.0703 C   0  0  2  0  0  0  0  0  0  0  0  0
   -5.9054   -0.1769    3.8551 N   0  3  0  0  0  0  0  0  0  0  0  0
   -5.9763   -2.4726    2.9823 C   0  0  1  0  0  0  0  0  0  0  0  0
   -5.4670   -2.0528    1.7014 O   0  0  0  0  0  0  0  0  0  0  0  0
   -5.5498   -3.9225    3.2508 C   0  0  2  0  0  0  0  0  0  0  0  0
   -6.1514   -4.7865    2.2677 O   0  0  0  0  0  0  0  0  0  0  0  0
   -5.9890   -4.3862    4.6374 C   0  0  1  0  0  0  0  0  0  0  0  0
   -5.4678   -5.6842    4.8907 O   0  0  0  0  0  0  0  0  0  0  0  0
  1  2  1  0  0  0  0
  3  2  1  1  0  0  0
  3  5  1  0  0  0  0
  3  4  1  0  0  0  0
  4  9  1  0  0  0  0
  5  7  1  0  0  0  0
  5  6  1  6  0  0  0
  7  9  1  0  0  0  0
  7  8  1  6  0  0  0
  9 40  1  1  0  0  0
 10  6  1  1  0  0  0
 10 11  1  0  0  0  0
 10 18  1  0  0  0  0
 11 13  1  0  0  0  0
 11 12  1  1  0  0  0
 13 15  1  0  0  0  0
 13 14  1  6  0  0  0
 15 17  1  0  0  0  0
 15 16  1  1  0  0  0
 17 19  1  1  0  0  0
 17 18  1  0  0  0  0
 19 20  1  0  0  0  0
 21 29  1  0  0  0  0
 22 23  1  0  0  0  0
 22 31  1  0  0  0  0
 22 38  1  6  0  0  0
 23 25  1  0  0  0  0
 23 24  1  6  0  0  0
 25 27  1  0  0  0  0
 25 26  1  6  0  0  0
 27 30  1  0  0  0  0
 27 28  1  6  0  0  0
 30 21  1  1  0  0  0
 30 31  1  0  0  0  0
 32 34  1  0  0  0  0
 32 41  1  0  0  0  0
 32 33  1  1  0  0  0
 34 35  1  0  0  0  0
 35 37  1  0  0  0  0
 35 36  1  6  0  0  0
 37 39  1  0  0  0  0
 37 38  1  6  0  0  0
 39 41  1  0  0  0  0
 39 40  1  6  0  0  0
 41 42  1  1  0  0  0
M  CHG  6  12   1  20   1  24   1  29   1  33   1  36   1
M  END
>  <CHROM.1>
54.03808018,-68.21004216,-118.86336959,18.67523975,59.56345146,-91.30902446
74.82786685,57.74336306,-178.12859344,142.55339304,41.96339368,-56.48739234
174.23782466,-178.14264867,-156.78640237,-154.31757364,78.68078551,174.61021752
48.52138200,31.89165582,38.70690850,84.46964955,-6.39999106,-5.01699182,1.20828189
2.44462994,-0.74281853,-2.09310092

>  <Name>
1NEM.B

>  <RI>
0

>  <Rbt.Current_Directory>
/home/itssahil/PROJECTS/Mol_Feturizer/New_Systems/rnas/1nem

>  <Rbt.Executable>
rbdock ($Id: //depot/dev/client3/rdock/2013.1/src/exe/rbdock.cxx#4 $)

>  <Rbt.Library>
libRbt.so (2013.1, Build901 2013/11/27)

>  <Rbt.Parameter_File>
/export/apps/rDock/src/rDock_2013.1_src/data/scripts/dock_solv.prm

>  <Rbt.Receptor>
prm/blind_docking_80.prm

>  <SCORE>
21.6548

>  <SCORE.INTER>
-27.0941

>  <SCORE.INTER.CONST>
1

>  <SCORE.INTER.POLAR>
-6.94837

>  <SCORE.INTER.ROT>
9

>  <SCORE.INTER.SOLV>
45.3607

>  <SCORE.INTER.VDW>
-19.6217

>  <SCORE.INTER.norm>
-0.645098

>  <SCORE.INTRA>
41.4781

>  <SCORE.INTRA.DIHEDRAL>
13.6487

>  <SCORE.INTRA.DIHEDRAL.0>
22.4324

>  <SCORE.INTRA.POLAR>
1.19176

>  <SCORE.INTRA.POLAR.0>
-1.83749

>  <SCORE.INTRA.REPUL>
0

>  <SCORE.INTRA.REPUL.0>
0

>  <SCORE.INTRA.SOLV>
1.93924

>  <SCORE.INTRA.SOLV.lig_0>
-160.638

>  <SCORE.INTRA.VDW>
29.6322

>  <SCORE.INTRA.VDW.0>
-7.61953

>  <SCORE.INTRA.norm>
0.987574

>  <SCORE.RESTR>
7.27081

>  <SCORE.RESTR.CAVITY>
7.27081

>  <SCORE.RESTR.norm>
0.173115

>  <SCORE.SYSTEM>
0

>  <SCORE.SYSTEM.CONST>
0

>  <SCORE.SYSTEM.DIHEDRAL>
0

>  <SCORE.SYSTEM.SOLV>
0

>  <SCORE.SYSTEM.norm>
0

>  <SCORE.heavy>
42

>  <SCORE.norm>
0.515591

>  <RMSD>
11.563

$$$$
1NEM.B
 OpenBabel11021811403D
libRbt.so/2013.1/901 2013/11/27
 42 45  0  0  0  0  0  0  0  0999 V2000
   -9.3933   -5.7355    3.5833 O   0  0  0  0  0  0  0  0  0  0  0  0
   -8.5166   -6.3889    2.6632 C   0  0  0  0  0  0  0  0  0  0  0  0
   -8.1160   -5.5016    1.4855 C   0  0  1  0  0  0  0  0  0  0  0  0
   -7.0179   -4.6645    1.8364 O   0  0  0  0  0  0  0  0  0  0  0  0
   -7.6018   -6.2554    0.2694 C   0  0  1  0  0  0  0  0  0  0  0  0
   -8.7253   -6.8963   -0.3393 O   0  0  0  0  0  0  0  0  0  0  0  0
   -6.9930   -5.0920   -0.4908 C   0  0  1  0  0  0  0  0  0  0  0  0
   -7.9894   -4.2051   -1.0101 O   0  0  0  0  0  0  0  0  0  0  0  0
   -6.2396   -4.4219    0.6643 C   0  0  2  0  0  0  0  0  0  0  0  0
   -8.5640   -8.2467   -0.6673 C   0  0  2  0  0  0  0  0  0  0  0  0
   -9.8363   -8.7550   -1.3587 C   0  0  2  0  0  0  0  0  0  0  0  0
  -11.0266   -8.4595   -0.5183 N   0  3  0  0  0  0  0  0  0  0  0  0
   -9.7245  -10.2498   -1.6761 C   0  0  1  0  0  0  0  0  0  0  0  0
   -8.7821  -10.4468   -2.7219 O   0  0  0  0  0  0  0  0  0  0  0  0
   -9.2951  -11.0467   -0.4405 C   0  0  2  0  0  0  0  0  0  0  0  0
  -10.3327  -11.0477    0.5318 O   0  0  0  0  0  0  0  0  0  0  0  0
   -8.0283  -10.4344    0.1505 C   0  0  1  0  0  0  0  0  0  0  0  0
   -8.2614   -9.0483    0.4672 O   0  0  0  0  0  0  0  0  0  0  0  0
   -7.5597  -11.1318    1.4155 C   0  0  0  0  0  0  0  0  0  0  0  0
   -6.9902  -12.4677    1.1312 N   0  3  0  0  0  0  0  0  0  0  0  0
   -5.1653   -0.2943    2.4502 C   0  0  0  0  0  0  0  0  0  0  0  0
   -4.6333   -3.2722    4.5894 C   0  0  2  0  0  0  0  0  0  0  0  0
   -5.8661   -3.2127    5.4881 C   0  0  2  0  0  0  0  0  0  0  0  0
   -6.1136   -4.5364    6.1080 N   0  3  0  0  0  0  0  0  0  0  0  0
   -7.0871   -2.7994    4.6773 C   0  0  1  0  0  0  0  0  0  0  0  0
   -8.2090   -2.6725    5.5374 O   0  0  0  0  0  0  0  0  0  0  0  0
   -6.8094   -1.4714    3.9764 C   0  0  2  0  0  0  0  0  0  0  0  0
   -7.9185   -1.1129    3.1623 O   0  0  0  0  0  0  0  0  0  0  0  0
   -5.5958   -0.2503    1.0340 N   0  3  0  0  0  0  0  0  0  0  0  0
   -5.5573   -1.6040    3.1117 C   0  0  2  0  0  0  0  0  0  0  0  0
   -4.4403   -2.0298    3.9184 O   0  0  0  0  0  0  0  0  0  0  0  0
   -1.5145   -3.5861    1.0513 C   0  0  2  0  0  0  0  0  0  0  0  0
   -0.3290   -3.8140    0.1934 N   0  3  0  0  0  0  0  0  0  0  0  0
   -1.2070   -4.0003    2.4859 C   0  0  0  0  0  0  0  0  0  0  0  0
   -2.4184   -3.7735    3.3794 C   0  0  2  0  0  0  0  0  0  0  0  0
   -2.0601   -4.1853    4.7293 N   0  3  0  0  0  0  0  0  0  0  0  0
   -3.6037   -4.5835    2.8594 C   0  0  1  0  0  0  0  0  0  0  0  0
   -4.7533   -4.3414    3.6937 O   0  0  0  0  0  0  0  0  0  0  0  0
   -3.9337   -4.1971    1.4110 C   0  0  2  0  0  0  0  0  0  0  0  0
   -4.9846   -5.0496    0.9175 O   0  0  0  0  0  0  0  0  0  0  0  0
   -2.7175   -4.3504    0.5010 C   0  0  1  0  0  0  0  0  0  0  0  0
   -3.0327   -3.8658   -0.7976 O   0  0  0  0  0  0  0  0  0  0  0  0
  1  2  1  0  0  0  0
  3  2  1  1  0  0  0
  3  5  1  0  0  0  0
  3  4  1  0  0  0  0
  4  9  1  0  0  0  0
  5  7  1  0  0  0  0
  5  6  1  6  0  0  0
  7  9  1  0  0  0  0
  7  8  1  1  0  0  0
  9 40  1  1  0  0  0
 10  6  1  1  0  0  0
 10 11  1  0  0  0  0
 10 18  1  0  0  0  0
 11 13  1  0  0  0  0
 11 12  1  1  0  0  0
 13 15  1  0  0  0  0
 13 14  1  6  0  0  0
 15 17  1  0  0  0  0
 15 16  1  1  0  0  0
 17 19  1  1  0  0  0
 17 18  1  0  0  0  0
 19 20  1  0  0  0  0
 21 29  1  0  0  0  0
 22 23  1  0  0  0  0
 22 31  1  0  0  0  0
 22 38  1  6  0  0  0
 23 25  1  0  0  0  0
 23 24  1  6  0  0  0
 25 27  1  0  0  0  0
 25 26  1  1  0  0  0
 27 30  1  0  0  0  0
 27 28  1  6  0  0  0
 30 21  1  1  0  0  0
 30 31  1  0  0  0  0
 32 34  1  0  0  0  0
 32 41  1  0  0  0  0
 32 33  1  6  0  0  0
 34 35  1  0  0  0  0
 35 37  1  0  0  0  0
 35 36  1  1  0  0  0
 37 39  1  0  0  0  0
 37 38  1  1  0  0  0
 39 41  1  0  0  0  0
 39 40  1  6  0  0  0
 41 42  1  6  0  0  0
M  CHG  6  12   1  20   1  24   1  29   1  33   1  36   1
M  END
>  <CHROM.1>
176.83262670,83.80977009,-132.05718485,-177.68665251,61.94874243,-96.78577928
-79.67058123,-157.03400126,172.24577769,71.92874888,-29.98418522,-100.72236746
34.04548267,-174.93304803,54.72462656,44.13422726,179.75164545,-144.72933333
18.49011124,11.87269987,112.30247491,56.91408630,-6.38296055,-5.47593920
1.65968605,2.14114545,-0.28014175,-2.52435523

>  <Name>
1NEM.B

>  <RI>
0

>  <Rbt.Current_Directory>
/home/itssahil/PROJECTS/Mol_Feturizer/New_Systems/rnas/1nem

>  <Rbt.Executable>
rbdock ($Id: //depot/dev/client3/rdock/2013.1/src/exe/rbdock.cxx#4 $)

>  <Rbt.Library>
libRbt.so (2013.1, Build901 2013/11/27)

>  <Rbt.Parameter_File>
/export/apps/rDock/src/rDock_2013.1_src/data/scripts/dock_solv.prm

>  <Rbt.Receptor>
prm/blind_docking_80.prm

>  <SCORE>
8.77029

>  <SCORE.INTER>
-17.0979

>  <SCORE.INTER.CONST>
1

>  <SCORE.INTER.POLAR>
-4.98992

>  <SCORE.INTER.ROT>
9

>  <SCORE.INTER.SOLV>
52.1262

>  <SCORE.INTER.VDW>
-21.7409

>  <SCORE.INTER.norm>
-0.407092

>  <SCORE.INTRA>
20.7108

>  <SCORE.INTRA.DIHEDRAL>
22.1942

>  <SCORE.INTRA.DIHEDRAL.0>
22.4324

>  <SCORE.INTRA.POLAR>
0.920245

>  <SCORE.INTRA.POLAR.0>
-1.83749

>  <SCORE.INTRA.REPUL>
0.367742

>  <SCORE.INTRA.REPUL.0>
0

>  <SCORE.INTRA.SOLV>
-5.78898

>  <SCORE.INTRA.SOLV.lig_0>
-160.638

>  <SCORE.INTRA.VDW>
7.54063

>  <SCORE.INTRA.VDW.0>
-7.61953

>  <SCORE.INTRA.norm>
0.493114

>  <SCORE.RESTR>
5.15738

>  <SCORE.RESTR.CAVITY>
5.15738

>  <SCORE.RESTR.norm>
0.122795

>  <SCORE.SYSTEM>
0

>  <SCORE.SYSTEM.CONST>
0

>  <SCORE.SYSTEM.DIHEDRAL>
0

>  <SCORE.SYSTEM.SOLV>
0

>  <SCORE.SYSTEM.norm>
0

>  <SCORE.heavy>
42

>  <SCORE.norm>
0.208816

>  <RMSD>
11.606

$$$$
1NEM.B
 OpenBabel11021811403D
libRbt.so/2013.1/901 2013/11/27
 42 45  0  0  0  0  0  0  0  0999 V2000
   -9.7726   -6.4609    3.5447 O   0  0  0  0  0  0  0  0  0  0  0  0
   -9.1611   -6.9092    2.3334 C   0  0  0  0  0  0  0  0  0  0  0  0
   -9.0316   -5.8056    1.2845 C   0  0  1  0  0  0  0  0  0  0  0  0
   -8.2466   -4.7265    1.7832 O   0  0  0  0  0  0  0  0  0  0  0  0
   -8.2934   -6.2154    0.0202 C   0  0  1  0  0  0  0  0  0  0  0  0
   -9.1583   -7.0851   -0.7137 O   0  0  0  0  0  0  0  0  0  0  0  0
   -8.0562   -4.8391   -0.5727 C   0  0  1  0  0  0  0  0  0  0  0  0
   -9.2673   -4.2364   -1.0408 O   0  0  0  0  0  0  0  0  0  0  0  0
   -7.5610   -4.1198    0.6875 C   0  0  2  0  0  0  0  0  0  0  0  0
   -8.6851   -8.3823   -0.9388 C   0  0  2  0  0  0  0  0  0  0  0  0
   -9.7211   -9.1640   -1.7579 C   0  0  2  0  0  0  0  0  0  0  0  0
  -11.0511   -9.0958   -1.0969 N   0  3  0  0  0  0  0  0  0  0  0  0
   -9.2683  -10.6122   -1.9704 C   0  0  1  0  0  0  0  0  0  0  0  0
   -8.1701  -10.6417   -2.8724 O   0  0  0  0  0  0  0  0  0  0  0  0
   -8.8626  -11.2647   -0.6453 C   0  0  2  0  0  0  0  0  0  0  0  0
  -10.0032  -11.4508    0.1833 O   0  0  0  0  0  0  0  0  0  0  0  0
   -7.8390  -10.3856    0.0676 C   0  0  1  0  0  0  0  0  0  0  0  0
   -8.3875   -9.0687    0.2701 O   0  0  0  0  0  0  0  0  0  0  0  0
   -7.4194  -10.9317    1.4210 C   0  0  0  0  0  0  0  0  0  0  0  0
   -7.8463  -10.0489    2.5293 N   0  3  0  0  0  0  0  0  0  0  0  0
   -2.9209   -3.9705    3.5681 C   0  0  0  0  0  0  0  0  0  0  0  0
   -3.8782   -1.4774    1.0000 C   0  0  2  0  0  0  0  0  0  0  0  0
   -3.1898   -2.0499   -0.2367 C   0  0  2  0  0  0  0  0  0  0  0  0
   -3.7985   -1.4915   -1.4676 N   0  3  0  0  0  0  0  0  0  0  0  0
   -3.3187   -3.5672   -0.2539 C   0  0  1  0  0  0  0  0  0  0  0  0
   -2.6093   -4.0926   -1.3653 O   0  0  0  0  0  0  0  0  0  0  0  0
   -2.7599   -4.1423    1.0457 C   0  0  2  0  0  0  0  0  0  0  0  0
   -2.9395   -5.5525    1.0673 O   0  0  0  0  0  0  0  0  0  0  0  0
   -2.0294   -2.9477    4.1616 N   0  3  0  0  0  0  0  0  0  0  0  0
   -3.4842   -3.5126    2.2340 C   0  0  2  0  0  0  0  0  0  0  0  0
   -3.3615   -2.0765    2.1853 O   0  0  0  0  0  0  0  0  0  0  0  0
   -5.7617   -3.6331    4.6067 C   0  0  2  0  0  0  0  0  0  0  0  0
   -6.4119   -4.2273    5.7973 N   0  3  0  0  0  0  0  0  0  0  0  0
   -6.0855   -2.1457    4.5240 C   0  0  0  0  0  0  0  0  0  0  0  0
   -5.4249   -1.5217    3.3027 C   0  0  2  0  0  0  0  0  0  0  0  0
   -5.7703   -0.1073    3.2828 N   0  3  0  0  0  0  0  0  0  0  0  0
   -5.9148   -2.2197    2.0362 C   0  0  1  0  0  0  0  0  0  0  0  0
   -5.2640   -1.6424    0.8876 O   0  0  0  0  0  0  0  0  0  0  0  0
   -5.6126   -3.7236    2.0918 C   0  0  2  0  0  0  0  0  0  0  0  0
   -6.1785   -4.3670    0.9340 O   0  0  0  0  0  0  0  0  0  0  0  0
   -6.2064   -4.3668    3.3425 C   0  0  1  0  0  0  0  0  0  0  0  0
   -5.7984   -5.7265    3.4160 O   0  0  0  0  0  0  0  0  0  0  0  0
  1  2  1  0  0  0  0
  3  2  1  1  0  0  0
  3  5  1  0  0  0  0
  3  4  1  0  0  0  0
  4  9  1  0  0  0  0
  5  7  1  0  0  0  0
  5  6  1  6  0  0  0
  7  9  1  0  0  0  0
  7  8  1  1  0  0  0
  9 40  1  1  0  0  0
 10  6  1  1  0  0  0
 10 11  1  0  0  0  0
 10 18  1  0  0  0  0
 11 13  1  0  0  0  0
 11 12  1  1  0  0  0
 13 15  1  0  0  0  0
 13 14  1  6  0  0  0
 15 17  1  0  0  0  0
 15 16  1  1  0  0  0
 17 19  1  1  0  0  0
 17 18  1  0  0  0  0
 19 20  1  0  0  0  0
 21 29  1  0  0  0  0
 22 23  1  0  0  0  0
 22 31  1  0  0  0  0
 22 38  1  6  0  0  0
 23 25  1  0  0  0  0
 23 24  1  6  0  0  0
 25 27  1  0  0  0  0
 25 26  1  6  0  0  0
 27 30  1  0  0  0  0
 27 28  1  6  0  0  0
 30 21  1  1  0  0  0
 30 31  1  0  0  0  0
 32 34  1  0  0  0  0
 32 41  1  0  0  0  0
 32 33  1  1  0  0  0
 34 35  1  0  0  0  0
 35 37  1  0  0  0  0
 35 36  1  6  0  0  0
 37 39  1  0  0  0  0
 37 38  1  6  0  0  0
 39 41  1  0  0  0  0
 39 40  1  6  0  0  0
 41 42  1  1  0  0  0
M  CHG  6  12   1  20   1  24   1  29   1  33   1  36   1
M  END
>  <CHROM.1>
-175.45340123,59.49759106,-119.10692462,-178.92092564,-171.64137431,-65.94290942
161.15416552,-164.55489934,-116.83260757,-114.44303389,-150.52780597,101.43793994
90.32539478,130.68940668,-0.17850345,61.90280025,-47.47101675,67.72978775
171.68977299,46.91518029,-52.63459666,-167.87081505,-6.54716657,-5.48960215
1.17198763,2.50369518,-0.82489507,-2.01869832

>  <Name>
1NEM.B

>  <RI>
0

>  <Rbt.Current_Directory>
/home/itssahil/PROJECTS/Mol_Feturizer/New_Systems/rnas/1nem

>  <Rbt.Executable>
rbdock ($Id: //depot/dev/client3/rdock/2013.1/src/exe/rbdock.cxx#4 $)

>  <Rbt.Library>
libRbt.so (2013.1, Build901 2013/11/27)

>  <Rbt.Parameter_File>
/export/apps/rDock/src/rDock_2013.1_src/data/scripts/dock_solv.prm

>  <Rbt.Receptor>
prm/blind_docking_80.prm

>  <SCORE>
-8.06132

>  <SCORE.INTER>
-52.9041

>  <SCORE.INTER.CONST>
1

>  <SCORE.INTER.POLAR>
-7.08017

>  <SCORE.INTER.ROT>
9

>  <SCORE.INTER.SOLV>
47.6664

>  <SCORE.INTER.VDW>
-37.1576

>  <SCORE.INTER.norm>
-1.25962

>  <SCORE.INTRA>
41.0266

>  <SCORE.INTRA.DIHEDRAL>
20.6295

>  <SCORE.INTRA.DIHEDRAL.0>
22.4324

>  <SCORE.INTRA.POLAR>
1.2475

>  <SCORE.INTRA.POLAR.0>
-1.83749

>  <SCORE.INTRA.REPUL>
0

>  <SCORE.INTRA.REPUL.0>
0

>  <SCORE.INTRA.SOLV>
-1.14604

>  <SCORE.INTRA.SOLV.lig_0>
-160.638

>  <SCORE.INTRA.VDW>
27.0433

>  <SCORE.INTRA.VDW.0>
-7.61953

>  <SCORE.INTRA.norm>
0.976823

>  <SCORE.RESTR>
3.81623

>  <SCORE.RESTR.CAVITY>
3.81623

>  <SCORE.RESTR.norm>
0.0908627

>  <SCORE.SYSTEM>
0

>  <SCORE.SYSTEM.CONST>
0

>  <SCORE.SYSTEM.DIHEDRAL>
0

>  <SCORE.SYSTEM.SOLV>
0

>  <SCORE.SYSTEM.norm>
0

>  <SCORE.heavy>
42

>  <SCORE.norm>
-0.191936

>  <RMSD>
11.691

$$$$
1NEM.B
 OpenBabel11021811403D
libRbt.so/2013.1/901 2013/11/27
 42 45  0  0  0  0  0  0  0  0999 V2000
   -8.6307   -6.8862    2.9953 O   0  0  0  0  0  0  0  0  0  0  0  0
   -9.4554   -5.7287    2.8460 C   0  0  0  0  0  0  0  0  0  0  0  0
   -9.2625   -5.0258    1.5031 C   0  0  1  0  0  0  0  0  0  0  0  0
   -8.4205   -3.8858    1.6478 O   0  0  0  0  0  0  0  0  0  0  0  0
   -8.5445   -5.8550    0.4503 C   0  0  1  0  0  0  0  0  0  0  0  0
   -9.4541   -6.8679    0.0144 O   0  0  0  0  0  0  0  0  0  0  0  0
   -8.2303   -4.7540   -0.5452 C   0  0  1  0  0  0  0  0  0  0  0  0
   -9.4051   -4.2709   -1.2052 O   0  0  0  0  0  0  0  0  0  0  0  0
   -7.6997   -3.6966    0.4300 C   0  0  2  0  0  0  0  0  0  0  0  0
   -8.8796   -8.0482   -0.4696 C   0  0  2  0  0  0  0  0  0  0  0  0
   -9.8776   -8.7528   -1.3985 C   0  0  2  0  0  0  0  0  0  0  0  0
  -11.1791   -8.9368   -0.7039 N   0  3  0  0  0  0  0  0  0  0  0  0
   -9.3098  -10.0850   -1.8990 C   0  0  1  0  0  0  0  0  0  0  0  0
   -8.2526   -9.8390   -2.8167 O   0  0  0  0  0  0  0  0  0  0  0  0
   -8.7929  -10.9374   -0.7360 C   0  0  2  0  0  0  0  0  0  0  0  0
   -9.8767  -11.3841    0.0689 O   0  0  0  0  0  0  0  0  0  0  0  0
   -7.8203  -10.1185    0.1080 C   0  0  1  0  0  0  0  0  0  0  0  0
   -8.4723   -8.9217    0.5755 O   0  0  0  0  0  0  0  0  0  0  0  0
   -7.2976  -10.8710    1.3190 C   0  0  0  0  0  0  0  0  0  0  0  0
   -7.8787  -10.3597    2.5802 N   0  3  0  0  0  0  0  0  0  0  0  0
   -2.2940   -2.9412    3.1348 C   0  0  0  0  0  0  0  0  0  0  0  0
   -4.5457   -0.4072    1.6395 C   0  0  2  0  0  0  0  0  0  0  0  0
   -3.7068    0.0701    0.4565 C   0  0  2  0  0  0  0  0  0  0  0  0
   -4.5688    0.7387   -0.5473 N   0  3  0  0  0  0  0  0  0  0  0  0
   -2.9976   -1.1101   -0.1940 C   0  0  1  0  0  0  0  0  0  0  0  0
   -2.1615   -0.6443   -1.2421 O   0  0  0  0  0  0  0  0  0  0  0  0
   -2.1659   -1.8470    0.8534 C   0  0  2  0  0  0  0  0  0  0  0  0
   -1.5555   -2.9907    0.2695 O   0  0  0  0  0  0  0  0  0  0  0  0
   -1.8502   -4.3035    2.7605 N   0  3  0  0  0  0  0  0  0  0  0  0
   -3.0676   -2.2778    2.0087 C   0  0  2  0  0  0  0  0  0  0  0  0
   -3.7409   -1.1310    2.5665 O   0  0  0  0  0  0  0  0  0  0  0  0
   -6.2393   -3.6984    4.5307 C   0  0  2  0  0  0  0  0  0  0  0  0
   -6.9269   -4.4981    5.5704 N   0  3  0  0  0  0  0  0  0  0  0  0
   -6.6679   -2.2386    4.6280 C   0  0  0  0  0  0  0  0  0  0  0  0
   -5.9701   -1.4043    3.5629 C   0  0  2  0  0  0  0  0  0  0  0  0
   -6.4191   -0.0270    3.7103 N   0  3  0  0  0  0  0  0  0  0  0  0
   -6.3132   -1.9435    2.1763 C   0  0  1  0  0  0  0  0  0  0  0  0
   -5.6267   -1.1663    1.1757 O   0  0  0  0  0  0  0  0  0  0  0  0
   -5.9029   -3.4171    2.0482 C   0  0  2  0  0  0  0  0  0  0  0  0
   -6.3335   -3.9228    0.7702 O   0  0  0  0  0  0  0  0  0  0  0  0
   -6.5349   -4.2702    3.1451 C   0  0  1  0  0  0  0  0  0  0  0  0
   -6.0317   -5.5971    3.0633 O   0  0  0  0  0  0  0  0  0  0  0  0
  1  2  1  0  0  0  0
  3  2  1  1  0  0  0
  3  5  1  0  0  0  0
  3  4  1  0  0  0  0
  4  9  1  0  0  0  0
  5  7  1  0  0  0  0
  5  6  1  6  0  0  0
  7  9  1  0  0  0  0
  7  8  1  1  0  0  0
  9 40  1  1  0  0  0
 10  6  1  1  0  0  0
 10 11  1  0  0  0  0
 10 18  1  0  0  0  0
 11 13  1  0  0  0  0
 11 12  1  1  0  0  0
 13 15  1  0  0  0  0
 13 14  1  6  0  0  0
 15 17  1  0  0  0  0
 15 16  1  1  0  0  0
 17 19  1  1  0  0  0
 17 18  1  0  0  0  0
 19 20  1  0  0  0  0
 21 29  1  0  0  0  0
 22 23  1  0  0  0  0
 22 31  1  0  0  0  0
 22 38  1  6  0  0  0
 23 25  1  0  0  0  0
 23 24  1  6  0  0  0
 25 27  1  0  0  0  0
 25 26  1  6  0  0  0
 27 30  1  0  0  0  0
 27 28  1  6  0  0  0
 30 21  1  1  0  0  0
 30 31  1  0  0  0  0
 32 34  1  0  0  0  0
 32 41  1  0  0  0  0
 32 33  1  1  0  0  0
 34 35  1  0  0  0  0
 35 37  1  0  0  0  0
 35 36  1  6  0  0  0
 37 39  1  0  0  0  0
 37 38  1  6  0  0  0
 39 41  1  0  0  0  0
 39 40  1  6  0  0  0
 41 42  1  1  0  0  0
M  CHG  6  12   1  20   1  24   1  29   1  33   1  36   1
M  END
>  <CHROM.1>
-54.46540736,-100.58389857,-152.86908368,-156.72670773,163.77947854,-38.90706227
167.81229903,45.88866410,178.01602131,-107.70523270,96.33892789,-73.13309372
-77.35012936,165.65047413,155.53744511,-59.55802170,70.78519990,-45.91643530
58.53125111,18.06641020,-50.77938855,102.98165905,-6.63128304,-4.88718176
1.21194335,2.55880739,-0.87951010,-2.06822781

>  <Name>
1NEM.B

>  <RI>
0

>  <Rbt.Current_Directory>
/home/itssahil/PROJECTS/Mol_Feturizer/New_Systems/rnas/1nem

>  <Rbt.Executable>
rbdock ($Id: //depot/dev/client3/rdock/2013.1/src/exe/rbdock.cxx#4 $)

>  <Rbt.Library>
libRbt.so (2013.1, Build901 2013/11/27)

>  <Rbt.Parameter_File>
/export/apps/rDock/src/rDock_2013.1_src/data/scripts/dock_solv.prm

>  <Rbt.Receptor>
prm/blind_docking_80.prm

>  <SCORE>
-9.85278

>  <SCORE.INTER>
-31.0794

>  <SCORE.INTER.CONST>
1

>  <SCORE.INTER.POLAR>
-5.06761

>  <SCORE.INTER.ROT>
9

>  <SCORE.INTER.SOLV>
41.4333

>  <SCORE.INTER.VDW>
-27.2386

>  <SCORE.INTER.norm>
-0.739985

>  <SCORE.INTRA>
17.1941

>  <SCORE.INTRA.DIHEDRAL>
15.7582

>  <SCORE.INTRA.DIHEDRAL.0>
22.4324

>  <SCORE.INTRA.POLAR>
-1.86778

>  <SCORE.INTRA.POLAR.0>
-1.83749

>  <SCORE.INTRA.REPUL>
0

>  <SCORE.INTRA.REPUL.0>
0

>  <SCORE.INTRA.SOLV>
1.24555

>  <SCORE.INTRA.SOLV.lig_0>
-160.638

>  <SCORE.INTRA.VDW>
15.0427

>  <SCORE.INTRA.VDW.0>
-7.61953

>  <SCORE.INTRA.norm>
0.409383

>  <SCORE.RESTR>
4.03248

>  <SCORE.RESTR.CAVITY>
4.03248

>  <SCORE.RESTR.norm>
0.0960113

>  <SCORE.SYSTEM>
0

>  <SCORE.SYSTEM.CONST>
0

>  <SCORE.SYSTEM.DIHEDRAL>
0

>  <SCORE.SYSTEM.SOLV>
0

>  <SCORE.SYSTEM.norm>
0

>  <SCORE.heavy>
42

>  <SCORE.norm>
-0.23459

>  <RMSD>
11.731

$$$$
1NEM.B
 OpenBabel11021811403D
libRbt.so/2013.1/901 2013/11/27
 42 45  0  0  0  0  0  0  0  0999 V2000
   -9.7652   -5.6441    3.8321 O   0  0  0  0  0  0  0  0  0  0  0  0
   -9.1272   -6.4165    2.8131 C   0  0  0  0  0  0  0  0  0  0  0  0
   -8.5024   -5.5579    1.7144 C   0  0  1  0  0  0  0  0  0  0  0  0
   -7.4457   -4.7594    2.2391 O   0  0  0  0  0  0  0  0  0  0  0  0
   -7.8237   -6.3439    0.6039 C   0  0  1  0  0  0  0  0  0  0  0  0
   -8.8549   -6.9483   -0.1800 O   0  0  0  0  0  0  0  0  0  0  0  0
   -7.0520   -5.2128   -0.0496 C   0  0  1  0  0  0  0  0  0  0  0  0
   -7.9129   -4.2944   -0.7312 O   0  0  0  0  0  0  0  0  0  0  0  0
   -6.4749   -4.5593    1.2115 C   0  0  2  0  0  0  0  0  0  0  0  0
   -8.6449   -8.2787   -0.5582 C   0  0  2  0  0  0  0  0  0  0  0  0
   -9.8781   -8.7905   -1.3149 C   0  0  2  0  0  0  0  0  0  0  0  0
  -11.1043   -8.5626   -0.5057 N   0  3  0  0  0  0  0  0  0  0  0  0
   -9.7139  -10.2668   -1.6903 C   0  0  1  0  0  0  0  0  0  0  0  0
   -8.7310  -10.3940   -2.7093 O   0  0  0  0  0  0  0  0  0  0  0  0
   -9.3050  -11.1042   -0.4746 C   0  0  2  0  0  0  0  0  0  0  0  0
  -10.3750  -11.1741    0.4594 O   0  0  0  0  0  0  0  0  0  0  0  0
   -8.0769  -10.4844    0.1860 C   0  0  1  0  0  0  0  0  0  0  0  0
   -8.3593   -9.1197    0.5518 O   0  0  0  0  0  0  0  0  0  0  0  0
   -7.6327  -11.2225    1.4366 C   0  0  0  0  0  0  0  0  0  0  0  0
   -7.0202  -12.5313    1.1174 N   0  3  0  0  0  0  0  0  0  0  0  0
   -3.0676   -1.1357    1.6807 C   0  0  0  0  0  0  0  0  0  0  0  0
   -4.8848   -2.6013    4.5577 C   0  0  2  0  0  0  0  0  0  0  0  0
   -6.2547   -1.9447    4.4056 C   0  0  2  0  0  0  0  0  0  0  0  0
   -7.2783   -2.7143    5.1523 N   0  3  0  0  0  0  0  0  0  0  0  0
   -6.6454   -1.8803    2.9352 C   0  0  1  0  0  0  0  0  0  0  0  0
   -7.8833   -1.1991    2.8009 O   0  0  0  0  0  0  0  0  0  0  0  0
   -5.5573   -1.1526    2.1488 C   0  0  2  0  0  0  0  0  0  0  0  0
   -5.8814   -1.1488    0.7644 O   0  0  0  0  0  0  0  0  0  0  0  0
   -3.2033   -1.1677    0.2064 N   0  3  0  0  0  0  0  0  0  0  0  0
   -4.2182   -1.8556    2.3623 C   0  0  2  0  0  0  0  0  0  0  0  0
   -3.9113   -1.9211    3.7699 O   0  0  0  0  0  0  0  0  0  0  0  0
   -1.7072   -4.1205    1.5174 C   0  0  2  0  0  0  0  0  0  0  0  0
   -0.5597   -4.6454    0.7421 N   0  3  0  0  0  0  0  0  0  0  0  0
   -1.4248   -4.2390    3.0109 C   0  0  0  0  0  0  0  0  0  0  0  0
   -2.5977   -3.7049    3.8210 C   0  0  2  0  0  0  0  0  0  0  0  0
   -2.2656   -3.8445    5.2318 N   0  3  0  0  0  0  0  0  0  0  0  0
   -3.8624   -4.4891    3.4790 C   0  0  1  0  0  0  0  0  0  0  0  0
   -4.9731   -3.9592    4.2286 O   0  0  0  0  0  0  0  0  0  0  0  0
   -4.1701   -4.3985    1.9779 C   0  0  2  0  0  0  0  0  0  0  0  0
   -5.3048   -5.2314    1.6725 O   0  0  0  0  0  0  0  0  0  0  0  0
   -2.9854   -4.8653    1.1358 C   0  0  1  0  0  0  0  0  0  0  0  0
   -3.2669   -4.6481   -0.2405 O   0  0  0  0  0  0  0  0  0  0  0  0
  1  2  1  0  0  0  0
  3  2  1  1  0  0  0
  3  5  1  0  0  0  0
  3  4  1  0  0  0  0
  4  9  1  0  0  0  0
  5  7  1  0  0  0  0
  5  6  1  6  0  0  0
  7  9  1  0  0  0  0
  7  8  1  1  0  0  0
  9 40  1  1  0  0  0
 10  6  1  1  0  0  0
 10 11  1  0  0  0  0
 10 18  1  0  0  0  0
 11 13  1  0  0  0  0
 11 12  1  1  0  0  0
 13 15  1  0  0  0  0
 13 14  1  6  0  0  0
 15 17  1  0  0  0  0
 15 16  1  1  0  0  0
 17 19  1  1  0  0  0
 17 18  1  0  0  0  0
 19 20  1  0  0  0  0
 21 29  1  0  0  0  0
 22 23  1  0  0  0  0
 22 31  1  0  0  0  0
 22 38  1  6  0  0  0
 23 25  1  0  0  0  0
 23 24  1  1  0  0  0
 25 27  1  0  0  0  0
 25 26  1  1  0  0  0
 27 30  1  0  0  0  0
 27 28  1  6  0  0  0
 30 21  1  6  0  0  0
 30 31  1  0  0  0  0
 32 34  1  0  0  0  0
 32 41  1  0  0  0  0
 32 33  1  6  0  0  0
 34 35  1  0  0  0  0
 35 37  1  0  0  0  0
 35 36  1  1  0  0  0
 37 39  1  0  0  0  0
 37 38  1  1  0  0  0
 39 41  1  0  0  0  0
 39 40  1  1  0  0  0
 41 42  1  6  0  0  0
M  CHG  6  12   1  20   1  24   1  29   1  33   1  36   1
M  END
>  <CHROM.1>
-53.78325030,64.32821058,-136.83580471,176.60501103,-171.03802820,-113.79111592
163.81163366,59.44608056,64.06799607,71.76881786,88.30991723,-65.94096793
-72.43306984,140.20006792,-152.50448278,-91.91684729,60.24958532,161.92003071
172.83421626,28.72174245,115.32258176,-89.54566555,-6.30282511,-5.44778506
1.54715537,2.16177495,-0.04088237,-2.72828188

>  <Name>
1NEM.B

>  <RI>
0

>  <Rbt.Current_Directory>
/home/itssahil/PROJECTS/Mol_Feturizer/New_Systems/rnas/1nem

>  <Rbt.Executable>
rbdock ($Id: //depot/dev/client3/rdock/2013.1/src/exe/rbdock.cxx#4 $)

>  <Rbt.Library>
libRbt.so (2013.1, Build901 2013/11/27)

>  <Rbt.Parameter_File>
/export/apps/rDock/src/rDock_2013.1_src/data/scripts/dock_solv.prm

>  <Rbt.Receptor>
prm/blind_docking_80.prm

>  <SCORE>
-10.1363

>  <SCORE.INTER>
-44.4232

>  <SCORE.INTER.CONST>
1

>  <SCORE.INTER.POLAR>
-7.61624

>  <SCORE.INTER.ROT>
9

>  <SCORE.INTER.SOLV>
49.1169

>  <SCORE.INTER.VDW>
-30.2003

>  <SCORE.INTER.norm>
-1.0577

>  <SCORE.INTRA>
31.9781

>  <SCORE.INTRA.DIHEDRAL>
20.8145

>  <SCORE.INTRA.DIHEDRAL.0>
22.4324

>  <SCORE.INTRA.POLAR>
0.331399

>  <SCORE.INTRA.POLAR.0>
-1.83749

>  <SCORE.INTRA.REPUL>
0.0649372

>  <SCORE.INTRA.REPUL.0>
0

>  <SCORE.INTRA.SOLV>
-0.631855

>  <SCORE.INTRA.SOLV.lig_0>
-160.638

>  <SCORE.INTRA.VDW>
20.4353

>  <SCORE.INTRA.VDW.0>
-7.61953

>  <SCORE.INTRA.norm>
0.761383

>  <SCORE.RESTR>
2.30881

>  <SCORE.RESTR.CAVITY>
2.30881

>  <SCORE.RESTR.norm>
0.0549716

>  <SCORE.SYSTEM>
0

>  <SCORE.SYSTEM.CONST>
0

>  <SCORE.SYSTEM.DIHEDRAL>
0

>  <SCORE.SYSTEM.SOLV>
0

>  <SCORE.SYSTEM.norm>
0

>  <SCORE.heavy>
42

>  <SCORE.norm>
-0.241341

>  <RMSD>
11.745

$$$$
1NEM.B
 OpenBabel11021811403D
libRbt.so/2013.1/901 2013/11/27
 42 45  0  0  0  0  0  0  0  0999 V2000
  -10.4485   -5.7940    3.4364 O   0  0  0  0  0  0  0  0  0  0  0  0
   -9.2703   -6.3824    2.8815 C   0  0  0  0  0  0  0  0  0  0  0  0
   -8.6536   -5.5449    1.7622 C   0  0  1  0  0  0  0  0  0  0  0  0
   -7.6411   -4.6846    2.2763 O   0  0  0  0  0  0  0  0  0  0  0  0
   -7.9193   -6.3476    0.7001 C   0  0  1  0  0  0  0  0  0  0  0  0
   -8.9077   -7.0236   -0.0804 O   0  0  0  0  0  0  0  0  0  0  0  0
   -7.1768   -5.2143    0.0173 C   0  0  1  0  0  0  0  0  0  0  0  0
   -8.0564   -4.3590   -0.7202 O   0  0  0  0  0  0  0  0  0  0  0  0
   -6.6550   -4.4880    1.2627 C   0  0  2  0  0  0  0  0  0  0  0  0
   -8.6146   -8.3430   -0.4415 C   0  0  2  0  0  0  0  0  0  0  0  0
   -9.7803   -8.9146   -1.2600 C   0  0  2  0  0  0  0  0  0  0  0  0
  -11.0570   -8.7446   -0.5173 N   0  3  0  0  0  0  0  0  0  0  0  0
   -9.5260  -10.3819   -1.6201 C   0  0  1  0  0  0  0  0  0  0  0  0
   -8.4857  -10.4635   -2.5854 O   0  0  0  0  0  0  0  0  0  0  0  0
   -9.1423  -11.1968   -0.3811 C   0  0  2  0  0  0  0  0  0  0  0  0
  -10.2555  -11.3165    0.4956 O   0  0  0  0  0  0  0  0  0  0  0  0
   -7.9817  -10.5178    0.3407 C   0  0  1  0  0  0  0  0  0  0  0  0
   -8.3480   -9.1676    0.6855 O   0  0  0  0  0  0  0  0  0  0  0  0
   -7.5693  -11.2317    1.6159 C   0  0  0  0  0  0  0  0  0  0  0  0
   -6.9845  -12.5626    1.3395 N   0  3  0  0  0  0  0  0  0  0  0  0
   -5.2980   -0.7282    1.6881 C   0  0  0  0  0  0  0  0  0  0  0  0
   -4.7411   -2.6776    4.7892 C   0  0  2  0  0  0  0  0  0  0  0  0
   -5.9939   -2.3248    5.5873 C   0  0  2  0  0  0  0  0  0  0  0  0
   -6.2230   -3.3290    6.6533 N   0  3  0  0  0  0  0  0  0  0  0  0
   -7.2068   -2.2800    4.6676 C   0  0  1  0  0  0  0  0  0  0  0  0
   -8.3495   -1.8755    5.4059 O   0  0  0  0  0  0  0  0  0  0  0  0
   -6.9459   -1.3009    3.5251 C   0  0  2  0  0  0  0  0  0  0  0  0
   -8.0456   -1.3048    2.6239 O   0  0  0  0  0  0  0  0  0  0  0  0
   -3.8297   -0.6377    1.5181 N   0  3  0  0  0  0  0  0  0  0  0  0
   -5.6728   -1.7084    2.7860 C   0  0  2  0  0  0  0  0  0  0  0  0
   -4.5635   -1.7694    3.7054 O   0  0  0  0  0  0  0  0  0  0  0  0
   -1.9973   -3.7566    1.1883 C   0  0  2  0  0  0  0  0  0  0  0  0
   -0.9569   -4.1484    0.2098 N   0  3  0  0  0  0  0  0  0  0  0  0
   -1.4855   -3.9733    2.6079 C   0  0  0  0  0  0  0  0  0  0  0  0
   -2.5462   -3.5766    3.6252 C   0  0  2  0  0  0  0  0  0  0  0  0
   -1.9969   -3.8049    4.9542 N   0  3  0  0  0  0  0  0  0  0  0  0
   -3.8084   -4.4077    3.4074 C   0  0  1  0  0  0  0  0  0  0  0  0
   -4.8166   -4.0066    4.3555 O   0  0  0  0  0  0  0  0  0  0  0  0
   -4.3449   -4.2196    1.9816 C   0  0  2  0  0  0  0  0  0  0  0  0
   -5.4709   -5.0940    1.7764 O   0  0  0  0  0  0  0  0  0  0  0  0
   -3.2808   -4.5462    0.9368 C   0  0  1  0  0  0  0  0  0  0  0  0
   -3.7787   -4.2402   -0.3590 O   0  0  0  0  0  0  0  0  0  0  0  0
  1  2  1  0  0  0  0
  3  2  1  1  0  0  0
  3  5  1  0  0  0  0
  3  4  1  0  0  0  0
  4  9  1  0  0  0  0
  5  7  1  0  0  0  0
  5  6  1  6  0  0  0
  7  9  1  0  0  0  0
  7  8  1  1  0  0  0
  9 40  1  1  0  0  0
 10  6  1  1  0  0  0
 10 11  1  0  0  0  0
 10 18  1  0  0  0  0
 11 13  1  0  0  0  0
 11 12  1  1  0  0  0
 13 15  1  0  0  0  0
 13 14  1  6  0  0  0
 15 17  1  0  0  0  0
 15 16  1  1  0  0  0
 17 19  1  1  0  0  0
 17 18  1  0  0  0  0
 19 20  1  0  0  0  0
 21 29  1  0  0  0  0
 22 23  1  0  0  0  0
 22 31  1  0  0  0  0
 22 38  1  6  0  0  0
 23 25  1  0  0  0  0
 23 24  1  1  0  0  0
 25 27  1  0  0  0  0
 25 26  1  1  0  0  0
 27 30  1  0  0  0  0
 27 28  1  6  0  0  0
 30 21  1  6  0  0  0
 30 31  1  0  0  0  0
 32 34  1  0  0  0  0
 32 41  1  0  0  0  0
 32 33  1  6  0  0  0
 34 35  1  0  0  0  0
 35 37  1  0  0  0  0
 35 36  1  1  0  0  0
 37 39  1  0  0  0  0
 37 38  1  1  0  0  0
 39 41  1  0  0  0  0
 39 40  1  6  0  0  0
 41 42  1  6  0  0  0
M  CHG  6  12   1  20   1  24   1  29   1  33   1  36   1
M  END
>  <CHROM.1>
173.99305176,93.91432774,-139.17566130,179.53339242,-55.81748032,-118.08273346
-158.28239777,-67.73591672,-82.51532978,66.84195764,-170.58496732,147.54329114
-67.63883899,170.17770070,64.23432965,-70.62571889,176.76579699,-128.24411208
50.79276030,28.38671210,128.82199003,-55.95327744,-6.54236120,-5.44814859
1.83305754,2.09839593,-0.22141853,-2.56975881

>  <Name>
1NEM.B

>  <RI>
0

>  <Rbt.Current_Directory>
/home/itssahil/PROJECTS/Mol_Feturizer/New_Systems/rnas/1nem

>  <Rbt.Executable>
rbdock ($Id: //depot/dev/client3/rdock/2013.1/src/exe/rbdock.cxx#4 $)

>  <Rbt.Library>
libRbt.so (2013.1, Build901 2013/11/27)

>  <Rbt.Parameter_File>
/export/apps/rDock/src/rDock_2013.1_src/data/scripts/dock_solv.prm

>  <Rbt.Receptor>
prm/blind_docking_80.prm

>  <SCORE>
15.0539

>  <SCORE.INTER>
-8.07299

>  <SCORE.INTER.CONST>
1

>  <SCORE.INTER.POLAR>
-4.56232

>  <SCORE.INTER.ROT>
9

>  <SCORE.INTER.SOLV>
50.3486

>  <SCORE.INTER.VDW>
-16.5571

>  <SCORE.INTER.norm>
-0.192214

>  <SCORE.INTRA>
18.0609

>  <SCORE.INTRA.DIHEDRAL>
16.5212

>  <SCORE.INTRA.DIHEDRAL.0>
22.4324

>  <SCORE.INTRA.POLAR>
1.81816

>  <SCORE.INTRA.POLAR.0>
-1.83749

>  <SCORE.INTRA.REPUL>
0.011738

>  <SCORE.INTRA.REPUL.0>
0

>  <SCORE.INTRA.SOLV>
-3.89492

>  <SCORE.INTRA.SOLV.lig_0>
-160.638

>  <SCORE.INTRA.VDW>
5.5073

>  <SCORE.INTRA.VDW.0>
-7.61953

>  <SCORE.INTRA.norm>
0.430021

>  <SCORE.RESTR>
5.06598

>  <SCORE.RESTR.CAVITY>
5.06598

>  <SCORE.RESTR.norm>
0.120619

>  <SCORE.SYSTEM>
0

>  <SCORE.SYSTEM.CONST>
0

>  <SCORE.SYSTEM.DIHEDRAL>
0

>  <SCORE.SYSTEM.SOLV>
0

>  <SCORE.SYSTEM.norm>
0

>  <SCORE.heavy>
42

>  <SCORE.norm>
0.358425

>  <RMSD>
11.761

$$$$
1NEM.B
 OpenBabel11021811403D
libRbt.so/2013.1/901 2013/11/27
 42 45  0  0  0  0  0  0  0  0999 V2000
   -8.5372   -5.7994    3.7975 O   0  0  0  0  0  0  0  0  0  0  0  0
   -8.9955   -6.3414    2.5572 C   0  0  0  0  0  0  0  0  0  0  0  0
   -8.6653   -5.4541    1.3579 C   0  0  1  0  0  0  0  0  0  0  0  0
   -7.7154   -4.4550    1.7172 O   0  0  0  0  0  0  0  0  0  0  0  0
   -7.9894   -6.1748    0.2024 C   0  0  1  0  0  0  0  0  0  0  0  0
   -8.9790   -6.9939   -0.4244 O   0  0  0  0  0  0  0  0  0  0  0  0
   -7.5132   -4.9678   -0.5839 C   0  0  1  0  0  0  0  0  0  0  0  0
   -8.5973   -4.2543   -1.1878 O   0  0  0  0  0  0  0  0  0  0  0  0
   -6.9210   -4.1508    0.5705 C   0  0  2  0  0  0  0  0  0  0  0  0
   -8.6122   -8.3192   -0.6819 C   0  0  2  0  0  0  0  0  0  0  0  0
   -9.6913   -8.9840   -1.5473 C   0  0  2  0  0  0  0  0  0  0  0  0
  -11.0258   -8.8228   -0.9120 N   0  3  0  0  0  0  0  0  0  0  0  0
   -9.3579  -10.4583   -1.7977 C   0  0  1  0  0  0  0  0  0  0  0  0
   -8.2454  -10.5537   -2.6774 O   0  0  0  0  0  0  0  0  0  0  0  0
   -9.0400  -11.1836   -0.4866 C   0  0  2  0  0  0  0  0  0  0  0  0
  -10.2112  -11.2971    0.3117 O   0  0  0  0  0  0  0  0  0  0  0  0
   -7.9625  -10.4175    0.2756 C   0  0  1  0  0  0  0  0  0  0  0  0
   -8.4021   -9.0655    0.5097 O   0  0  0  0  0  0  0  0  0  0  0  0
   -7.6223  -11.0389    1.6188 C   0  0  0  0  0  0  0  0  0  0  0  0
   -7.0686  -12.4033    1.4719 N   0  3  0  0  0  0  0  0  0  0  0  0
   -1.6459   -2.5321    3.1714 C   0  0  0  0  0  0  0  0  0  0  0  0
   -4.7064   -0.7616    2.0643 C   0  0  2  0  0  0  0  0  0  0  0  0
   -4.1738    0.0284    0.8712 C   0  0  2  0  0  0  0  0  0  0  0  0
   -5.2920    0.4471   -0.0074 N   0  3  0  0  0  0  0  0  0  0  0  0
   -3.1962   -0.8231    0.0723 C   0  0  1  0  0  0  0  0  0  0  0  0
   -2.6500   -0.0529   -0.9875 O   0  0  0  0  0  0  0  0  0  0  0  0
   -2.0813   -1.3186    0.9906 C   0  0  2  0  0  0  0  0  0  0  0  0
   -1.2023   -2.1709    0.2679 O   0  0  0  0  0  0  0  0  0  0  0  0
   -2.2254   -3.4405    4.1872 N   0  3  0  0  0  0  0  0  0  0  0  0
   -2.6904   -2.0829    2.1644 C   0  0  2  0  0  0  0  0  0  0  0  0
   -3.6323   -1.2460    2.8659 O   0  0  0  0  0  0  0  0  0  0  0  0
   -4.8852   -4.7418    4.6038 C   0  0  2  0  0  0  0  0  0  0  0  0
   -5.1541   -5.8023    5.6019 N   0  3  0  0  0  0  0  0  0  0  0  0
   -5.6343   -3.4688    4.9814 C   0  0  0  0  0  0  0  0  0  0  0  0
   -5.3689   -2.3698    3.9621 C   0  0  2  0  0  0  0  0  0  0  0  0
   -6.1081   -1.1867    4.3793 N   0  3  0  0  0  0  0  0  0  0  0  0
   -5.8155   -2.8304    2.5765 C   0  0  1  0  0  0  0  0  0  0  0  0
   -5.5351   -1.7960    1.6133 O   0  0  0  0  0  0  0  0  0  0  0  0
   -5.0860   -4.1181    2.1694 C   0  0  2  0  0  0  0  0  0  0  0  0
   -5.6044   -4.5817    0.9081 O   0  0  0  0  0  0  0  0  0  0  0  0
   -5.2784   -5.2210    3.2073 C   0  0  1  0  0  0  0  0  0  0  0  0
   -4.4880   -6.3483    2.8537 O   0  0  0  0  0  0  0  0  0  0  0  0
  1  2  1  0  0  0  0
  3  2  1  1  0  0  0
  3  5  1  0  0  0  0
  3  4  1  0  0  0  0
  4  9  1  0  0  0  0
  5  7  1  0  0  0  0
  5  6  1  6  0  0  0
  7  9  1  0  0  0  0
  7  8  1  1  0  0  0
  9 40  1  1  0  0  0
 10  6  1  1  0  0  0
 10 11  1  0  0  0  0
 10 18  1  0  0  0  0
 11 13  1  0  0  0  0
 11 12  1  1  0  0  0
 13 15  1  0  0  0  0
 13 14  1  6  0  0  0
 15 17  1  0  0  0  0
 15 16  1  1  0  0  0
 17 19  1  1  0  0  0
 17 18  1  0  0  0  0
 19 20  1  0  0  0  0
 21 29  1  0  0  0  0
 22 23  1  0  0  0  0
 22 31  1  0  0  0  0
 22 38  1  6  0  0  0
 23 25  1  0  0  0  0
 23 24  1  6  0  0  0
 25 27  1  0  0  0  0
 25 26  1  6  0  0  0
 27 30  1  0  0  0  0
 27 28  1  6  0  0  0
 30 21  1  1  0  0  0
 30 31  1  0  0  0  0
 32 34  1  0  0  0  0
 32 41  1  0  0  0  0
 32 33  1  1  0  0  0
 34 35  1  0  0  0  0
 35 37  1  0  0  0  0
 35 36  1  1  0  0  0
 37 39  1  0  0  0  0
 37 38  1  6  0  0  0
 39 41  1  0  0  0  0
 39 40  1  6  0  0  0
 41 42  1  6  0  0  0
M  CHG  6  12   1  20   1  24   1  29   1  33   1  36   1
M  END
>  <CHROM.1>
61.69731484,13.44765342,-132.10024523,-171.05681278,69.64516979,-50.64401565
164.64645196,-62.58942887,84.13827236,62.35483510,-171.86174587,-171.39972883
62.30869773,163.91583144,-144.93362769,63.81197133,64.14621062,176.94460725
-154.03298364,12.29900946,-23.49056065,-30.41026410,-6.28357102,-5.19612329
1.35427213,-2.74738649,-0.96773785,-0.84272461

>  <Name>
1NEM.B

>  <RI>
0

>  <Rbt.Current_Directory>
/home/itssahil/PROJECTS/Mol_Feturizer/New_Systems/rnas/1nem

>  <Rbt.Executable>
rbdock ($Id: //depot/dev/client3/rdock/2013.1/src/exe/rbdock.cxx#4 $)

>  <Rbt.Library>
libRbt.so (2013.1, Build901 2013/11/27)

>  <Rbt.Parameter_File>
/export/apps/rDock/src/rDock_2013.1_src/data/scripts/dock_solv.prm

>  <Rbt.Receptor>
prm/blind_docking_80.prm

>  <SCORE>
-22.0286

>  <SCORE.INTER>
-54.4067

>  <SCORE.INTER.CONST>
1

>  <SCORE.INTER.POLAR>
-8.5521

>  <SCORE.INTER.ROT>
9

>  <SCORE.INTER.SOLV>
46.5556

>  <SCORE.INTER.VDW>
-32.8827

>  <SCORE.INTER.norm>
-1.2954

>  <SCORE.INTRA>
27.6501

>  <SCORE.INTRA.DIHEDRAL>
13.6322

>  <SCORE.INTRA.DIHEDRAL.0>
22.4324

>  <SCORE.INTRA.POLAR>
0.891633

>  <SCORE.INTRA.POLAR.0>
-1.83749

>  <SCORE.INTRA.REPUL>
0.0638151

>  <SCORE.INTRA.REPUL.0>
0

>  <SCORE.INTRA.SOLV>
0.246289

>  <SCORE.INTRA.SOLV.lig_0>
-160.638

>  <SCORE.INTRA.VDW>
17.3602

>  <SCORE.INTRA.VDW.0>
-7.61953

>  <SCORE.INTRA.norm>
0.658336

>  <SCORE.RESTR>
4.72809

>  <SCORE.RESTR.CAVITY>
4.72809

>  <SCORE.RESTR.norm>
0.112574

>  <SCORE.SYSTEM>
0

>  <SCORE.SYSTEM.CONST>
0

>  <SCORE.SYSTEM.DIHEDRAL>
0

>  <SCORE.SYSTEM.SOLV>
0

>  <SCORE.SYSTEM.norm>
0

>  <SCORE.heavy>
42

>  <SCORE.norm>
-0.524489

>  <RMSD>
11.787

$$$$
1NEM.B
 OpenBabel11021811403D
libRbt.so/2013.1/901 2013/11/27
 42 45  0  0  0  0  0  0  0  0999 V2000
   -9.9794   -6.5776    2.7811 O   0  0  0  0  0  0  0  0  0  0  0  0
   -8.7876   -5.8372    3.0523 C   0  0  0  0  0  0  0  0  0  0  0  0
   -8.3815   -4.9153    1.9034 C   0  0  1  0  0  0  0  0  0  0  0  0
   -7.2967   -4.0767    2.2902 O   0  0  0  0  0  0  0  0  0  0  0  0
   -7.8442   -5.6317    0.6748 C   0  0  1  0  0  0  0  0  0  0  0  0
   -8.9531   -6.2678    0.0352 O   0  0  0  0  0  0  0  0  0  0  0  0
   -7.2379   -4.4428   -0.0468 C   0  0  1  0  0  0  0  0  0  0  0  0
   -8.2369   -3.5527   -0.5557 O   0  0  0  0  0  0  0  0  0  0  0  0
   -6.5062   -3.7956    1.1349 C   0  0  2  0  0  0  0  0  0  0  0  0
   -9.1037   -7.6376    0.2766 C   0  0  2  0  0  0  0  0  0  0  0  0
   -8.1381   -8.4195   -0.6243 C   0  0  2  0  0  0  0  0  0  0  0  0
   -8.3244   -8.0163   -2.0432 N   0  3  0  0  0  0  0  0  0  0  0  0
   -8.3186   -9.9293   -0.4366 C   0  0  1  0  0  0  0  0  0  0  0  0
   -7.8275  -10.3138    0.8408 O   0  0  0  0  0  0  0  0  0  0  0  0
   -9.7917  -10.3299   -0.5626 C   0  0  2  0  0  0  0  0  0  0  0  0
  -10.2359  -10.1633   -1.9031 O   0  0  0  0  0  0  0  0  0  0  0  0
  -10.6382   -9.4753    0.3765 C   0  0  1  0  0  0  0  0  0  0  0  0
  -10.4395   -8.0805    0.0749 O   0  0  0  0  0  0  0  0  0  0  0  0
  -12.1248   -9.7691    0.2773 C   0  0  0  0  0  0  0  0  0  0  0  0
  -12.9443   -8.6553    0.8045 N   0  3  0  0  0  0  0  0  0  0  0  0
   -1.9938   -3.7368    0.5608 C   0  0  0  0  0  0  0  0  0  0  0  0
   -3.8951   -1.2909    2.5930 C   0  0  2  0  0  0  0  0  0  0  0  0
   -3.8238   -0.0515    1.7042 C   0  0  2  0  0  0  0  0  0  0  0  0
   -4.8881    0.9102    2.0783 N   0  3  0  0  0  0  0  0  0  0  0  0
   -3.9900   -0.4440    0.2422 C   0  0  1  0  0  0  0  0  0  0  0  0
   -3.8444    0.7048   -0.5786 O   0  0  0  0  0  0  0  0  0  0  0  0
   -2.9417   -1.4907   -0.1283 C   0  0  2  0  0  0  0  0  0  0  0  0
   -3.1338   -1.9133   -1.4721 O   0  0  0  0  0  0  0  0  0  0  0  0
   -0.6407   -3.2127    0.8563 N   0  3  0  0  0  0  0  0  0  0  0  0
   -3.0644   -2.6890    0.8110 C   0  0  2  0  0  0  0  0  0  0  0  0
   -2.9346   -2.2600    2.1817 O   0  0  0  0  0  0  0  0  0  0  0  0
   -4.3050   -5.2185    4.9472 C   0  0  2  0  0  0  0  0  0  0  0  0
   -4.4901   -6.4501    5.7487 N   0  3  0  0  0  0  0  0  0  0  0  0
   -5.0579   -4.0598    5.5911 C   0  0  0  0  0  0  0  0  0  0  0  0
   -4.8784   -2.7866    4.7761 C   0  0  2  0  0  0  0  0  0  0  0  0
   -5.6170   -1.7230    5.4419 N   0  3  0  0  0  0  0  0  0  0  0  0
   -5.3971   -3.0037    3.3565 C   0  0  1  0  0  0  0  0  0  0  0  0
   -5.1978   -1.8037    2.5840 O   0  0  0  0  0  0  0  0  0  0  0  0
   -4.6652   -4.1723    2.6821 C   0  0  2  0  0  0  0  0  0  0  0  0
   -5.2480   -4.4170    1.3878 O   0  0  0  0  0  0  0  0  0  0  0  0
   -4.7706   -5.4502    3.5107 C   0  0  1  0  0  0  0  0  0  0  0  0
   -3.9783   -6.4687    2.9146 O   0  0  0  0  0  0  0  0  0  0  0  0
  1  2  1  0  0  0  0
  3  2  1  1  0  0  0
  3  5  1  0  0  0  0
  3  4  1  0  0  0  0
  4  9  1  0  0  0  0
  5  7  1  0  0  0  0
  5  6  1  6  0  0  0
  7  9  1  0  0  0  0
  7  8  1  1  0  0  0
  9 40  1  1  0  0  0
 10  6  1  6  0  0  0
 10 11  1  0  0  0  0
 10 18  1  0  0  0  0
 11 13  1  0  0  0  0
 11 12  1  6  0  0  0
 13 15  1  0  0  0  0
 13 14  1  1  0  0  0
 15 17  1  0  0  0  0
 15 16  1  6  0  0  0
 17 19  1  6  0  0  0
 17 18  1  0  0  0  0
 19 20  1  0  0  0  0
 21 29  1  0  0  0  0
 22 23  1  0  0  0  0
 22 31  1  0  0  0  0
 22 38  1  6  0  0  0
 23 25  1  0  0  0  0
 23 24  1  1  0  0  0
 25 27  1  0  0  0  0
 25 26  1  6  0  0  0
 27 30  1  0  0  0  0
 27 28  1  6  0  0  0
 30 21  1  6  0  0  0
 30 31  1  0  0  0  0
 32 34  1  0  0  0  0
 32 41  1  0  0  0  0
 32 33  1  1  0  0  0
 34 35  1  0  0  0  0
 35 37  1  0  0  0  0
 35 36  1  1  0  0  0
 37 39  1  0  0  0  0
 37 38  1  6  0  0  0
 39 41  1  0  0  0  0
 39 40  1  6  0  0  0
 41 42  1  6  0  0  0
M  CHG  6  12   1  20   1  24   1  29   1  33   1  36   1
M  END
>  <CHROM.1>
-54.05505172,172.37311162,-100.25697852,-80.17760675,-137.40372208,-47.58109982
46.73118015,61.09225667,175.57854749,-159.91212160,172.59595721,64.56027029
164.61795888,178.29106911,33.41951973,63.26985482,173.72381204,73.08392788
-178.10695394,52.55729493,-13.99016763,-46.94832480,-6.44093133,-4.92391040
1.41474086,3.11413302,-0.85307179,-1.35113183

>  <Name>
1NEM.B

>  <RI>
0

>  <Rbt.Current_Directory>
/home/itssahil/PROJECTS/Mol_Feturizer/New_Systems/rnas/1nem

>  <Rbt.Executable>
rbdock ($Id: //depot/dev/client3/rdock/2013.1/src/exe/rbdock.cxx#4 $)

>  <Rbt.Library>
libRbt.so (2013.1, Build901 2013/11/27)

>  <Rbt.Parameter_File>
/export/apps/rDock/src/rDock_2013.1_src/data/scripts/dock_solv.prm

>  <Rbt.Receptor>
prm/blind_docking_80.prm

>  <SCORE>
-2.0573

>  <SCORE.INTER>
-24.9616

>  <SCORE.INTER.CONST>
1

>  <SCORE.INTER.POLAR>
-5.3435

>  <SCORE.INTER.ROT>
9

>  <SCORE.INTER.SOLV>
40.8983

>  <SCORE.INTER.VDW>
-22.0622

>  <SCORE.INTER.norm>
-0.594325

>  <SCORE.INTRA>
14.5294

>  <SCORE.INTRA.DIHEDRAL>
3.6886

>  <SCORE.INTRA.DIHEDRAL.0>
22.4324

>  <SCORE.INTRA.POLAR>
0.96297

>  <SCORE.INTRA.POLAR.0>
-1.83749

>  <SCORE.INTRA.REPUL>
0.143767

>  <SCORE.INTRA.REPUL.0>
0

>  <SCORE.INTRA.SOLV>
-5.21066

>  <SCORE.INTRA.SOLV.lig_0>
-160.638

>  <SCORE.INTRA.VDW>
11.2975

>  <SCORE.INTRA.VDW.0>
-7.61953

>  <SCORE.INTRA.norm>
0.345938

>  <SCORE.RESTR>
8.37496

>  <SCORE.RESTR.CAVITY>
8.37496

>  <SCORE.RESTR.norm>
0.199404

>  <SCORE.SYSTEM>
0

>  <SCORE.SYSTEM.CONST>
0

>  <SCORE.SYSTEM.DIHEDRAL>
0

>  <SCORE.SYSTEM.SOLV>
0

>  <SCORE.SYSTEM.norm>
0

>  <SCORE.heavy>
42

>  <SCORE.norm>
-0.0489834

>  <RMSD>
11.807

$$$$
1NEM.B
 OpenBabel11021811403D
libRbt.so/2013.1/901 2013/11/27
 42 45  0  0  0  0  0  0  0  0999 V2000
  -10.1796   -7.5407    2.1341 O   0  0  0  0  0  0  0  0  0  0  0  0
   -9.1183   -6.7072    2.6043 C   0  0  0  0  0  0  0  0  0  0  0  0
   -8.6676   -5.6736    1.5731 C   0  0  1  0  0  0  0  0  0  0  0  0
   -7.7362   -4.7618    2.1480 O   0  0  0  0  0  0  0  0  0  0  0  0
   -7.9044   -6.2484    0.3905 C   0  0  1  0  0  0  0  0  0  0  0  0
   -8.8485   -6.9442   -0.4267 O   0  0  0  0  0  0  0  0  0  0  0  0
   -7.3394   -4.9594   -0.1763 C   0  0  1  0  0  0  0  0  0  0  0  0
   -8.3531   -4.1381   -0.7653 O   0  0  0  0  0  0  0  0  0  0  0  0
   -6.8380   -4.3265    1.1270 C   0  0  2  0  0  0  0  0  0  0  0  0
   -8.5147   -8.2571   -0.7762 C   0  0  2  0  0  0  0  0  0  0  0  0
   -9.6672   -8.8755   -1.5792 C   0  0  2  0  0  0  0  0  0  0  0  0
  -10.9430   -8.7397   -0.8280 N   0  3  0  0  0  0  0  0  0  0  0  0
   -9.3674  -10.3375   -1.9258 C   0  0  1  0  0  0  0  0  0  0  0  0
   -8.3325  -10.3951   -2.8986 O   0  0  0  0  0  0  0  0  0  0  0  0
   -8.9474  -11.1259   -0.6815 C   0  0  2  0  0  0  0  0  0  0  0  0
  -10.0492  -11.2727    0.2054 O   0  0  0  0  0  0  0  0  0  0  0  0
   -7.8043  -10.4012    0.0237 C   0  0  1  0  0  0  0  0  0  0  0  0
   -8.2123   -9.0602    0.3572 O   0  0  0  0  0  0  0  0  0  0  0  0
   -7.3587  -11.0873    1.3030 C   0  0  0  0  0  0  0  0  0  0  0  0
   -7.8930  -10.4124    2.5067 N   0  3  0  0  0  0  0  0  0  0  0  0
   -1.5111   -3.5784    2.5494 C   0  0  0  0  0  0  0  0  0  0  0  0
   -4.5090   -1.6129    3.4856 C   0  0  2  0  0  0  0  0  0  0  0  0
   -4.2400   -0.3000    2.7544 C   0  0  2  0  0  0  0  0  0  0  0  0
   -5.4985    0.4679    2.5987 N   0  3  0  0  0  0  0  0  0  0  0  0
   -3.6449   -0.5770    1.3803 C   0  0  1  0  0  0  0  0  0  0  0  0
   -3.3277    0.6507    0.7426 O   0  0  0  0  0  0  0  0  0  0  0  0
   -2.3881   -1.4311    1.5305 C   0  0  2  0  0  0  0  0  0  0  0  0
   -1.8652   -1.7522    0.2479 O   0  0  0  0  0  0  0  0  0  0  0  0
   -1.8146   -5.0175    2.3769 N   0  3  0  0  0  0  0  0  0  0  0  0
   -2.7320   -2.7153    2.2827 C   0  0  2  0  0  0  0  0  0  0  0  0
   -3.3226   -2.3990    3.5597 O   0  0  0  0  0  0  0  0  0  0  0  0
   -5.3610   -5.8816    5.1280 C   0  0  2  0  0  0  0  0  0  0  0  0
   -5.7780   -7.1312    5.8047 N   0  3  0  0  0  0  0  0  0  0  0  0
   -6.1381   -4.6983    5.6938 C   0  0  0  0  0  0  0  0  0  0  0  0
   -5.7210   -3.4062    5.0054 C   0  0  2  0  0  0  0  0  0  0  0  0
   -6.4949   -2.3199    5.5894 N   0  3  0  0  0  0  0  0  0  0  0  0
   -5.9793   -3.5131    3.5043 C   0  0  1  0  0  0  0  0  0  0  0  0
   -5.5559   -2.2975    2.8567 O   0  0  0  0  0  0  0  0  0  0  0  0
   -5.2177   -4.7030    2.9042 C   0  0  2  0  0  0  0  0  0  0  0  0
   -5.5642   -4.8383    1.5126 O   0  0  0  0  0  0  0  0  0  0  0  0
   -5.5651   -6.0064    3.6191 C   0  0  1  0  0  0  0  0  0  0  0  0
   -4.7485   -7.0556    3.1161 O   0  0  0  0  0  0  0  0  0  0  0  0
  1  2  1  0  0  0  0
  3  2  1  1  0  0  0
  3  5  1  0  0  0  0
  3  4  1  0  0  0  0
  4  9  1  0  0  0  0
  5  7  1  0  0  0  0
  5  6  1  6  0  0  0
  7  9  1  0  0  0  0
  7  8  1  1  0  0  0
  9 40  1  1  0  0  0
 10  6  1  1  0  0  0
 10 11  1  0  0  0  0
 10 18  1  0  0  0  0
 11 13  1  0  0  0  0
 11 12  1  1  0  0  0
 13 15  1  0  0  0  0
 13 14  1  6  0  0  0
 15 17  1  0  0  0  0
 15 16  1  1  0  0  0
 17 19  1  1  0  0  0
 17 18  1  0  0  0  0
 19 20  1  0  0  0  0
 21 29  1  0  0  0  0
 22 23  1  0  0  0  0
 22 31  1  0  0  0  0
 22 38  1  6  0  0  0
 23 25  1  0  0  0  0
 23 24  1  6  0  0  0
 25 27  1  0  0  0  0
 25 26  1  1  0  0  0
 27 30  1  0  0  0  0
 27 28  1  6  0  0  0
 30 21  1  1  0  0  0
 30 31  1  0  0  0  0
 32 34  1  0  0  0  0
 32 41  1  0  0  0  0
 32 33  1  1  0  0  0
 34 35  1  0  0  0  0
 35 37  1  0  0  0  0
 35 36  1  1  0  0  0
 37 39  1  0  0  0  0
 37 38  1  6  0  0  0
 39 41  1  0  0  0  0
 39 40  1  6  0  0  0
 41 42  1  6  0  0  0
M  CHG  6  12   1  20   1  24   1  29   1  33   1  36   1
M  END
>  <CHROM.1>
179.70194347,172.43439862,-128.87544008,176.75279362,-163.49183849,-43.75909215
41.83714428,-62.99286792,173.01755874,-101.83059059,-23.65607975,-140.72837534
172.39401396,-175.70027381,76.38229776,-176.21903160,-53.16280413,-52.76883230
-73.15786936,28.82568554,-25.73833801,55.88851524,-6.42607302,-5.52439668
1.72588422,-3.04124252,-1.00930790,-1.09771366

>  <Name>
1NEM.B

>  <RI>
0

>  <Rbt.Current_Directory>
/home/itssahil/PROJECTS/Mol_Feturizer/New_Systems/rnas/1nem

>  <Rbt.Executable>
rbdock ($Id: //depot/dev/client3/rdock/2013.1/src/exe/rbdock.cxx#4 $)

>  <Rbt.Library>
libRbt.so (2013.1, Build901 2013/11/27)

>  <Rbt.Parameter_File>
/export/apps/rDock/src/rDock_2013.1_src/data/scripts/dock_solv.prm

>  <Rbt.Receptor>
prm/blind_docking_40.prm

>  <SCORE>
-20.4826

>  <SCORE.INTER>
-40.3231

>  <SCORE.INTER.CONST>
1

>  <SCORE.INTER.POLAR>
-5.23648

>  <SCORE.INTER.ROT>
9

>  <SCORE.INTER.SOLV>
35.9463

>  <SCORE.INTER.VDW>
-31.0093

>  <SCORE.INTER.norm>
-0.960074

>  <SCORE.INTRA>
14.4964

>  <SCORE.INTRA.DIHEDRAL>
8.75311

>  <SCORE.INTRA.DIHEDRAL.0>
22.4324

>  <SCORE.INTRA.POLAR>
0.494429

>  <SCORE.INTRA.POLAR.0>
-1.83749

>  <SCORE.INTRA.REPUL>
0

>  <SCORE.INTRA.REPUL.0>
0

>  <SCORE.INTRA.SOLV>
1.16346

>  <SCORE.INTRA.SOLV.lig_0>
-160.638

>  <SCORE.INTRA.VDW>
7.85708

>  <SCORE.INTRA.VDW.0>
-7.61953

>  <SCORE.INTRA.norm>
0.345153

>  <SCORE.RESTR>
5.34407

>  <SCORE.RESTR.CAVITY>
5.34407

>  <SCORE.RESTR.norm>
0.12724

>  <SCORE.SYSTEM>
0

>  <SCORE.SYSTEM.CONST>
0

>  <SCORE.SYSTEM.DIHEDRAL>
0

>  <SCORE.SYSTEM.SOLV>
0

>  <SCORE.SYSTEM.norm>
0

>  <SCORE.heavy>
42

>  <SCORE.norm>
-0.487681

>  <RMSD>
11.953

$$$$
1NEM.B
 OpenBabel11021811403D
libRbt.so/2013.1/901 2013/11/27
 42 45  0  0  0  0  0  0  0  0999 V2000
  -10.0010   -3.2642    0.9159 O   0  0  0  0  0  0  0  0  0  0  0  0
   -9.9724   -4.6907    0.8371 C   0  0  0  0  0  0  0  0  0  0  0  0
   -8.9979   -5.2123   -0.2179 C   0  0  1  0  0  0  0  0  0  0  0  0
   -7.7741   -4.4842   -0.1767 O   0  0  0  0  0  0  0  0  0  0  0  0
   -8.5517   -6.6512   -0.0133 C   0  0  1  0  0  0  0  0  0  0  0  0
   -9.6624   -7.4905   -0.3379 O   0  0  0  0  0  0  0  0  0  0  0  0
   -7.3806   -6.6758   -0.9775 C   0  0  1  0  0  0  0  0  0  0  0  0
   -7.8042   -6.6198   -2.3438 O   0  0  0  0  0  0  0  0  0  0  0  0
   -6.7148   -5.3543   -0.5762 C   0  0  2  0  0  0  0  0  0  0  0  0
   -9.4892   -8.8603   -0.1121 C   0  0  2  0  0  0  0  0  0  0  0  0
   -8.4099   -9.3973   -1.0618 C   0  0  2  0  0  0  0  0  0  0  0  0
   -8.7410   -9.0380   -2.4659 N   0  3  0  0  0  0  0  0  0  0  0  0
   -8.2363  -10.9099   -0.8905 C   0  0  1  0  0  0  0  0  0  0  0  0
   -7.6186  -11.1812    0.3606 O   0  0  0  0  0  0  0  0  0  0  0  0
   -9.5845  -11.6331   -0.9655 C   0  0  2  0  0  0  0  0  0  0  0  0
  -10.1099  -11.5631   -2.2850 O   0  0  0  0  0  0  0  0  0  0  0  0
  -10.5628  -10.9985    0.0189 C   0  0  1  0  0  0  0  0  0  0  0  0
  -10.6974   -9.5931   -0.2686 O   0  0  0  0  0  0  0  0  0  0  0  0
  -11.9472  -11.6208   -0.0270 C   0  0  0  0  0  0  0  0  0  0  0  0
  -12.5618  -11.5026   -1.3680 N   0  3  0  0  0  0  0  0  0  0  0  0
   -7.5288   -7.7361    3.4260 C   0  0  0  0  0  0  0  0  0  0  0  0
   -4.9123   -5.1135    3.4801 C   0  0  2  0  0  0  0  0  0  0  0  0
   -4.4634   -5.1760    4.9381 C   0  0  2  0  0  0  0  0  0  0  0  0
   -3.1259   -4.5551    5.0903 N   0  3  0  0  0  0  0  0  0  0  0  0
   -4.4037   -6.6236    5.4072 C   0  0  1  0  0  0  0  0  0  0  0  0
   -4.0610   -6.6641    6.7839 O   0  0  0  0  0  0  0  0  0  0  0  0
   -5.7596   -7.2895    5.1834 C   0  0  2  0  0  0  0  0  0  0  0  0
   -5.6924   -8.6604    5.5546 O   0  0  0  0  0  0  0  0  0  0  0  0
   -8.5436   -6.6622    3.3271 N   0  3  0  0  0  0  0  0  0  0  0  0
   -6.1472   -7.1731    3.7105 C   0  0  2  0  0  0  0  0  0  0  0  0
   -6.1556   -5.7884    3.3079 O   0  0  0  0  0  0  0  0  0  0  0  0
   -3.8114   -2.4483   -0.1492 C   0  0  2  0  0  0  0  0  0  0  0  0
   -3.5886   -1.7018   -1.4088 N   0  3  0  0  0  0  0  0  0  0  0  0
   -2.4913   -3.0146    0.3613 C   0  0  0  0  0  0  0  0  0  0  0  0
   -2.7055   -3.7869    1.6555 C   0  0  2  0  0  0  0  0  0  0  0  0
   -1.4128   -4.2979    2.0890 N   0  3  0  0  0  0  0  0  0  0  0  0
   -3.6911   -4.9290    1.4193 C   0  0  1  0  0  0  0  0  0  0  0  0
   -3.9100   -5.6373    2.6549 O   0  0  0  0  0  0  0  0  0  0  0  0
   -5.0301   -4.3928    0.8943 C   0  0  2  0  0  0  0  0  0  0  0  0
   -5.8983   -5.4993    0.5837 O   0  0  0  0  0  0  0  0  0  0  0  0
   -4.8403   -3.5562   -0.3686 C   0  0  1  0  0  0  0  0  0  0  0  0
   -6.0833   -2.9798   -0.7471 O   0  0  0  0  0  0  0  0  0  0  0  0
  1  2  1  0  0  0  0
  3  2  1  1  0  0  0
  3  5  1  0  0  0  0
  3  4  1  0  0  0  0
  4  9  1  0  0  0  0
  5  7  1  0  0  0  0
  5  6  1  6  0  0  0
  7  9  1  0  0  0  0
  7  8  1  6  0  0  0
  9 40  1  1  0  0  0
 10  6  1  6  0  0  0
 10 11  1  0  0  0  0
 10 18  1  0  0  0  0
 11 13  1  0  0  0  0
 11 12  1  6  0  0  0
 13 15  1  0  0  0  0
 13 14  1  1  0  0  0
 15 17  1  0  0  0  0
 15 16  1  6  0  0  0
 17 19  1  6  0  0  0
 17 18  1  0  0  0  0
 19 20  1  0  0  0  0
 21 29  1  0  0  0  0
 22 23  1  0  0  0  0
 22 31  1  0  0  0  0
 22 38  1  6  0  0  0
 23 25  1  0  0  0  0
 23 24  1  6  0  0  0
 25 27  1  0  0  0  0
 25 26  1  1  0  0  0
 27 30  1  0  0  0  0
 27 28  1  6  0  0  0
 30 21  1  1  0  0  0
 30 31  1  0  0  0  0
 32 34  1  0  0  0  0
 32 41  1  0  0  0  0
 32 33  1  6  0  0  0
 34 35  1  0  0  0  0
 35 37  1  0  0  0  0
 35 36  1  6  0  0  0
 37 39  1  0  0  0  0
 37 38  1  1  0  0  0
 39 41  1  0  0  0  0
 39 40  1  6  0  0  0
 41 42  1  1  0  0  0
M  CHG  6  12   1  20   1  24   1  29   1  33   1  36   1
M  END
>  <CHROM.1>
-55.88444366,42.66246856,-175.10888842,-65.87127195,125.92305037,-76.91925823
-28.37076316,-173.42869671,-69.46741646,-59.52608612,-63.25902820,100.24960545
-169.16035468,-139.81339979,-90.93329245,-43.36345865,-81.24450704,-139.70884709
-162.15616202,86.48148760,-141.99911887,104.28938106,-6.89769622,-6.67763674
1.06396180,3.05024542,0.81257751,2.22438267

>  <Name>
1NEM.B

>  <RI>
0

>  <Rbt.Current_Directory>
/home/itssahil/PROJECTS/Mol_Feturizer/New_Systems/rnas/1nem

>  <Rbt.Executable>
rbdock ($Id: //depot/dev/client3/rdock/2013.1/src/exe/rbdock.cxx#4 $)

>  <Rbt.Library>
libRbt.so (2013.1, Build901 2013/11/27)

>  <Rbt.Parameter_File>
/export/apps/rDock/src/rDock_2013.1_src/data/scripts/dock_solv.prm

>  <Rbt.Receptor>
prm/blind_docking_40.prm

>  <SCORE>
40.2678

>  <SCORE.INTER>
1.03287

>  <SCORE.INTER.CONST>
1

>  <SCORE.INTER.POLAR>
-5.17419

>  <SCORE.INTER.ROT>
9

>  <SCORE.INTER.SOLV>
38.9989

>  <SCORE.INTER.VDW>
-4.66374

>  <SCORE.INTER.norm>
0.0245921

>  <SCORE.INTRA>
30.8638

>  <SCORE.INTRA.DIHEDRAL>
22.362

>  <SCORE.INTRA.DIHEDRAL.0>
22.4324

>  <SCORE.INTRA.POLAR>
0.316426

>  <SCORE.INTRA.POLAR.0>
-1.83749

>  <SCORE.INTRA.REPUL>
0

>  <SCORE.INTRA.REPUL.0>
0

>  <SCORE.INTRA.SOLV>
8.13099

>  <SCORE.INTRA.SOLV.lig_0>
-160.638

>  <SCORE.INTRA.VDW>
14.5414

>  <SCORE.INTRA.VDW.0>
-7.61953

>  <SCORE.INTRA.norm>
0.734852

>  <SCORE.RESTR>
8.37113

>  <SCORE.RESTR.CAVITY>
8.37113

>  <SCORE.RESTR.norm>
0.199313

>  <SCORE.SYSTEM>
0

>  <SCORE.SYSTEM.CONST>
0

>  <SCORE.SYSTEM.DIHEDRAL>
0

>  <SCORE.SYSTEM.SOLV>
0

>  <SCORE.SYSTEM.norm>
0

>  <SCORE.heavy>
42

>  <SCORE.norm>
0.958757

>  <RMSD>
12.130

$$$$
1NEM.B
 OpenBabel11021811403D
libRbt.so/2013.1/901 2013/11/27
 42 45  0  0  0  0  0  0  0  0999 V2000
  -11.2279   -6.6565    1.9317 O   0  0  0  0  0  0  0  0  0  0  0  0
   -9.8408   -6.6055    2.2714 C   0  0  0  0  0  0  0  0  0  0  0  0
   -9.0442   -5.6433    1.3914 C   0  0  1  0  0  0  0  0  0  0  0  0
   -8.3331   -4.7020    2.1901 O   0  0  0  0  0  0  0  0  0  0  0  0
   -7.9465   -6.2977    0.5678 C   0  0  1  0  0  0  0  0  0  0  0  0
   -8.5830   -7.0389   -0.4756 O   0  0  0  0  0  0  0  0  0  0  0  0
   -7.1901   -5.0514    0.1479 C   0  0  1  0  0  0  0  0  0  0  0  0
   -7.9269   -4.2635   -0.7932 O   0  0  0  0  0  0  0  0  0  0  0  0
   -7.1346   -4.3389    1.5044 C   0  0  2  0  0  0  0  0  0  0  0  0
   -9.5874   -7.9282   -0.0784 C   0  0  2  0  0  0  0  0  0  0  0  0
   -8.9910   -8.9715    0.8761 C   0  0  2  0  0  0  0  0  0  0  0  0
   -7.8049   -9.6151    0.2521 N   0  3  0  0  0  0  0  0  0  0  0  0
  -10.0467  -10.0045    1.2835 C   0  0  1  0  0  0  0  0  0  0  0  0
  -10.9994   -9.3987    2.1471 O   0  0  0  0  0  0  0  0  0  0  0  0
  -10.7591  -10.5806    0.0559 C   0  0  2  0  0  0  0  0  0  0  0  0
   -9.8642  -11.3845   -0.7025 O   0  0  0  0  0  0  0  0  0  0  0  0
  -11.2956   -9.4423   -0.8074 C   0  0  1  0  0  0  0  0  0  0  0  0
  -10.2145   -8.5669   -1.1829 O   0  0  0  0  0  0  0  0  0  0  0  0
  -11.9728   -9.9226   -2.0789 C   0  0  0  0  0  0  0  0  0  0  0  0
  -13.4079  -10.2133   -1.8644 N   0  3  0  0  0  0  0  0  0  0  0  0
   -1.8878   -4.2016    2.3462 C   0  0  0  0  0  0  0  0  0  0  0  0
   -4.2772   -1.4363    1.7370 C   0  0  2  0  0  0  0  0  0  0  0  0
   -3.8804   -1.0104    0.3255 C   0  0  2  0  0  0  0  0  0  0  0  0
   -4.9791   -0.2416   -0.3064 N   0  3  0  0  0  0  0  0  0  0  0  0
   -3.5684   -2.2352   -0.5239 C   0  0  1  0  0  0  0  0  0  0  0  0
   -3.1266   -1.8236   -1.8085 O   0  0  0  0  0  0  0  0  0  0  0  0
   -2.4884   -3.0701    0.1605 C   0  0  2  0  0  0  0  0  0  0  0  0
   -2.2406   -4.2510   -0.5916 O   0  0  0  0  0  0  0  0  0  0  0  0
   -1.9004   -5.6454    2.0174 N   0  3  0  0  0  0  0  0  0  0  0  0
   -2.9492   -3.4433    1.5682 C   0  0  2  0  0  0  0  0  0  0  0  0
   -3.2644   -2.2529    2.3188 O   0  0  0  0  0  0  0  0  0  0  0  0
   -5.5854   -3.3560    5.7550 C   0  0  2  0  0  0  0  0  0  0  0  0
   -6.0985   -3.7789    7.0784 N   0  3  0  0  0  0  0  0  0  0  0  0
   -6.0994   -1.9607    5.4186 C   0  0  0  0  0  0  0  0  0  0  0  0
   -5.5813   -1.5135    4.0588 C   0  0  2  0  0  0  0  0  0  0  0  0
   -6.1044   -0.1796    3.7991 N   0  3  0  0  0  0  0  0  0  0  0  0
   -6.0370   -2.4962    2.9828 C   0  0  1  0  0  0  0  0  0  0  0  0
   -5.5193   -2.0814    1.7036 O   0  0  0  0  0  0  0  0  0  0  0  0
   -5.5436   -3.9153    3.2973 C   0  0  2  0  0  0  0  0  0  0  0  0
   -6.0765   -4.8325    2.3229 O   0  0  0  0  0  0  0  0  0  0  0  0
   -5.9917   -4.3678    4.6848 C   0  0  1  0  0  0  0  0  0  0  0  0
   -5.4110   -5.6306    4.9824 O   0  0  0  0  0  0  0  0  0  0  0  0
  1  2  1  0  0  0  0
  3  2  1  1  0  0  0
  3  5  1  0  0  0  0
  3  4  1  0  0  0  0
  4  9  1  0  0  0  0
  5  7  1  0  0  0  0
  5  6  1  6  0  0  0
  7  9  1  0  0  0  0
  7  8  1  6  0  0  0
  9 40  1  1  0  0  0
 10  6  1  6  0  0  0
 10 11  1  0  0  0  0
 10 18  1  0  0  0  0
 11 13  1  0  0  0  0
 11 12  1  6  0  0  0
 13 15  1  0  0  0  0
 13 14  1  1  0  0  0
 15 17  1  0  0  0  0
 15 16  1  6  0  0  0
 17 19  1  6  0  0  0
 17 18  1  0  0  0  0
 19 20  1  0  0  0  0
 21 29  1  0  0  0  0
 22 23  1  0  0  0  0
 22 31  1  0  0  0  0
 22 38  1  6  0  0  0
 23 25  1  0  0  0  0
 23 24  1  6  0  0  0
 25 27  1  0  0  0  0
 25 26  1  6  0  0  0
 27 30  1  0  0  0  0
 27 28  1  6  0  0  0
 30 21  1  1  0  0  0
 30 31  1  0  0  0  0
 32 34  1  0  0  0  0
 32 41  1  0  0  0  0
 32 33  1  1  0  0  0
 34 35  1  0  0  0  0
 35 37  1  0  0  0  0
 35 36  1  6  0  0  0
 37 39  1  0  0  0  0
 37 38  1  6  0  0  0
 39 41  1  0  0  0  0
 39 40  1  6  0  0  0
 41 42  1  1  0  0  0
M  CHG  6  12   1  20   1  24   1  29   1  33   1  36   1
M  END
>  <CHROM.1>
165.44332825,125.75618637,-51.78662829,-60.24268701,-140.82537848,-92.17777459
152.60206086,-136.14272312,74.76710840,87.65725917,58.92457966,-83.01002588
149.01156268,-177.91084960,-161.03983137,178.65046650,169.37363579,-179.41693671
41.40645760,32.04074409,-13.53520502,76.35387789,-6.93747710,-5.27727455
1.40981914,2.66700463,-0.72471658,-1.90328082

>  <Name>
1NEM.B

>  <RI>
0

>  <Rbt.Current_Directory>
/home/itssahil/PROJECTS/Mol_Feturizer/New_Systems/rnas/1nem

>  <Rbt.Executable>
rbdock ($Id: //depot/dev/client3/rdock/2013.1/src/exe/rbdock.cxx#4 $)

>  <Rbt.Library>
libRbt.so (2013.1, Build901 2013/11/27)

>  <Rbt.Parameter_File>
/export/apps/rDock/src/rDock_2013.1_src/data/scripts/dock_solv.prm

>  <Rbt.Receptor>
prm/blind_docking_20.prm

>  <SCORE>
8.38967

>  <SCORE.INTER>
-26.8776

>  <SCORE.INTER.CONST>
1

>  <SCORE.INTER.POLAR>
-6.00575

>  <SCORE.INTER.ROT>
9

>  <SCORE.INTER.SOLV>
42.7707

>  <SCORE.INTER.VDW>
-21.7562

>  <SCORE.INTER.norm>
-0.639944

>  <SCORE.INTRA>
23.44

>  <SCORE.INTRA.DIHEDRAL>
20.9153

>  <SCORE.INTRA.DIHEDRAL.0>
22.4324

>  <SCORE.INTRA.POLAR>
0.556018

>  <SCORE.INTRA.POLAR.0>
-1.83749

>  <SCORE.INTRA.REPUL>
0

>  <SCORE.INTRA.REPUL.0>
0

>  <SCORE.INTRA.SOLV>
-4.43799

>  <SCORE.INTRA.SOLV.lig_0>
-160.638

>  <SCORE.INTRA.VDW>
13.3108

>  <SCORE.INTRA.VDW.0>
-7.61953

>  <SCORE.INTRA.norm>
0.558094

>  <SCORE.RESTR>
11.8273

>  <SCORE.RESTR.CAVITY>
11.8273

>  <SCORE.RESTR.norm>
0.281604

>  <SCORE.SYSTEM>
0

>  <SCORE.SYSTEM.CONST>
0

>  <SCORE.SYSTEM.DIHEDRAL>
0

>  <SCORE.SYSTEM.SOLV>
0

>  <SCORE.SYSTEM.norm>
0

>  <SCORE.heavy>
42

>  <SCORE.norm>
0.199754

>  <RMSD>
12.176

$$$$
1NEM.B
 OpenBabel11021811403D
libRbt.so/2013.1/901 2013/11/27
 42 45  0  0  0  0  0  0  0  0999 V2000
   -9.9417   -7.7050    3.4202 O   0  0  0  0  0  0  0  0  0  0  0  0
   -9.0076   -6.6335    3.5663 C   0  0  0  0  0  0  0  0  0  0  0  0
   -8.7868   -5.8515    2.2723 C   0  0  1  0  0  0  0  0  0  0  0  0
   -7.8112   -4.8307    2.4610 O   0  0  0  0  0  0  0  0  0  0  0  0
   -8.2141   -6.6702    1.1262 C   0  0  1  0  0  0  0  0  0  0  0  0
   -9.2534   -7.5339    0.6604 O   0  0  0  0  0  0  0  0  0  0  0  0
   -7.8122   -5.5359    0.2022 C   0  0  1  0  0  0  0  0  0  0  0  0
   -8.9471   -4.8700   -0.3613 O   0  0  0  0  0  0  0  0  0  0  0  0
   -7.1221   -4.6280    1.2271 C   0  0  2  0  0  0  0  0  0  0  0  0
   -8.8518   -8.6095   -0.1391 C   0  0  2  0  0  0  0  0  0  0  0  0
   -9.7989   -8.7281   -1.3409 C   0  0  2  0  0  0  0  0  0  0  0  0
  -11.2090   -8.7954   -0.8747 N   0  3  0  0  0  0  0  0  0  0  0  0
   -9.4310   -9.9366   -2.2079 C   0  0  1  0  0  0  0  0  0  0  0  0
   -8.2069   -9.6839   -2.8847 O   0  0  0  0  0  0  0  0  0  0  0  0
   -9.2970  -11.2051   -1.3598 C   0  0  2  0  0  0  0  0  0  0  0  0
  -10.5677  -11.6010   -0.8590 O   0  0  0  0  0  0  0  0  0  0  0  0
   -8.3374  -10.9490   -0.2012 C   0  0  1  0  0  0  0  0  0  0  0  0
   -8.8079   -9.8343    0.5812 O   0  0  0  0  0  0  0  0  0  0  0  0
   -8.1861  -12.1419    0.7262 C   0  0  0  0  0  0  0  0  0  0  0  0
   -7.1702  -11.9008    1.7750 N   0  3  0  0  0  0  0  0  0  0  0  0
   -2.2790   -3.9027    0.2887 C   0  0  0  0  0  0  0  0  0  0  0  0
   -4.3416   -1.7634    2.5014 C   0  0  2  0  0  0  0  0  0  0  0  0
   -4.2751   -0.4278    1.7646 C   0  0  2  0  0  0  0  0  0  0  0  0
   -5.3850    0.4537    2.1989 N   0  3  0  0  0  0  0  0  0  0  0  0
   -4.3683   -0.6527    0.2614 C   0  0  1  0  0  0  0  0  0  0  0  0
   -4.2274    0.5872   -0.4150 O   0  0  0  0  0  0  0  0  0  0  0  0
   -3.2716   -1.6194   -0.1797 C   0  0  2  0  0  0  0  0  0  0  0  0
   -3.3946   -1.8886   -1.5704 O   0  0  0  0  0  0  0  0  0  0  0  0
   -1.0331   -3.5672    1.0154 N   0  3  0  0  0  0  0  0  0  0  0  0
   -3.3930   -2.9215    0.6096 C   0  0  2  0  0  0  0  0  0  0  0  0
   -3.3336   -2.6509    2.0248 O   0  0  0  0  0  0  0  0  0  0  0  0
   -5.0322   -5.4698    5.1499 C   0  0  2  0  0  0  0  0  0  0  0  0
   -5.3220   -6.5887    6.0759 N   0  3  0  0  0  0  0  0  0  0  0  0
   -5.7415   -4.2056    5.6221 C   0  0  0  0  0  0  0  0  0  0  0  0
   -5.4542   -3.0468    4.6778 C   0  0  2  0  0  0  0  0  0  0  0  0
   -6.1557   -1.8752    5.1832 N   0  3  0  0  0  0  0  0  0  0  0  0
   -5.9261   -3.3983    3.2688 C   0  0  1  0  0  0  0  0  0  0  0  0
   -5.6252   -2.3082    2.3759 O   0  0  0  0  0  0  0  0  0  0  0  0
   -5.2371   -4.6747    2.7665 C   0  0  2  0  0  0  0  0  0  0  0  0
   -5.7797   -5.0357    1.4820 O   0  0  0  0  0  0  0  0  0  0  0  0
   -5.4513   -5.8407    3.7283 C   0  0  1  0  0  0  0  0  0  0  0  0
   -4.6964   -6.9624    3.2896 O   0  0  0  0  0  0  0  0  0  0  0  0
  1  2  1  0  0  0  0
  3  2  1  1  0  0  0
  3  5  1  0  0  0  0
  3  4  1  0  0  0  0
  4  9  1  0  0  0  0
  5  7  1  0  0  0  0
  5  6  1  6  0  0  0
  7  9  1  0  0  0  0
  7  8  1  1  0  0  0
  9 40  1  1  0  0  0
 10  6  1  1  0  0  0
 10 11  1  0  0  0  0
 10 18  1  0  0  0  0
 11 13  1  0  0  0  0
 11 12  1  1  0  0  0
 13 15  1  0  0  0  0
 13 14  1  1  0  0  0
 15 17  1  0  0  0  0
 15 16  1  1  0  0  0
 17 19  1  1  0  0  0
 17 18  1  0  0  0  0
 19 20  1  0  0  0  0
 21 29  1  0  0  0  0
 22 23  1  0  0  0  0
 22 31  1  0  0  0  0
 22 38  1  6  0  0  0
 23 25  1  0  0  0  0
 23 24  1  1  0  0  0
 25 27  1  0  0  0  0
 25 26  1  6  0  0  0
 27 30  1  0  0  0  0
 27 28  1  6  0  0  0
 30 21  1  6  0  0  0
 30 31  1  0  0  0  0
 32 34  1  0  0  0  0
 32 41  1  0  0  0  0
 32 33  1  1  0  0  0
 34 35  1  0  0  0  0
 35 37  1  0  0  0  0
 35 36  1  1  0  0  0
 37 39  1  0  0  0  0
 37 38  1  6  0  0  0
 39 41  1  0  0  0  0
 39 40  1  6  0  0  0
 41 42  1  6  0  0  0
M  CHG  6  12   1  20   1  24   1  29   1  33   1  36   1
M  END
>  <CHROM.1>
-53.63086024,-177.76921696,-163.56414359,-135.58212988,-172.17806177,-39.54172009
-57.24022986,-169.89686593,79.70712352,175.44840511,-59.66838341,80.14221472
86.40611412,-166.08304139,-164.33826943,-168.50690531,73.40292961,-171.51172310
-149.24834259,45.26605190,-27.82241734,-38.47625672,-6.59195029,-5.61249383
1.42135780,2.99883476,-1.02311698,-1.49003998

>  <Name>
1NEM.B

>  <RI>
0

>  <Rbt.Current_Directory>
/home/itssahil/PROJECTS/Mol_Feturizer/New_Systems/rnas/1nem

>  <Rbt.Executable>
rbdock ($Id: //depot/dev/client3/rdock/2013.1/src/exe/rbdock.cxx#4 $)

>  <Rbt.Library>
libRbt.so (2013.1, Build901 2013/11/27)

>  <Rbt.Parameter_File>
/export/apps/rDock/src/rDock_2013.1_src/data/scripts/dock_solv.prm

>  <Rbt.Receptor>
prm/blind_docking_40.prm

>  <SCORE>
-14.5418

>  <SCORE.INTER>
-32.2471

>  <SCORE.INTER.CONST>
1

>  <SCORE.INTER.POLAR>
-5.95113

>  <SCORE.INTER.ROT>
9

>  <SCORE.INTER.SOLV>
39.2755

>  <SCORE.INTER.VDW>
-24.3528

>  <SCORE.INTER.norm>
-0.767789

>  <SCORE.INTRA>
12.3602

>  <SCORE.INTRA.DIHEDRAL>
5.25396

>  <SCORE.INTRA.DIHEDRAL.0>
22.4324

>  <SCORE.INTRA.POLAR>
1.43459

>  <SCORE.INTRA.POLAR.0>
-1.83749

>  <SCORE.INTRA.REPUL>
0

>  <SCORE.INTRA.REPUL.0>
0

>  <SCORE.INTRA.SOLV>
-5.63061

>  <SCORE.INTRA.SOLV.lig_0>
-160.638

>  <SCORE.INTRA.VDW>
7.67095

>  <SCORE.INTRA.VDW.0>
-7.61953

>  <SCORE.INTRA.norm>
0.294292

>  <SCORE.RESTR>
5.3451

>  <SCORE.RESTR.CAVITY>
5.3451

>  <SCORE.RESTR.norm>
0.127264

>  <SCORE.SYSTEM>
0

>  <SCORE.SYSTEM.CONST>
0

>  <SCORE.SYSTEM.DIHEDRAL>
0

>  <SCORE.SYSTEM.SOLV>
0

>  <SCORE.SYSTEM.norm>
0

>  <SCORE.heavy>
42

>  <SCORE.norm>
-0.346233

>  <RMSD>
12.205

$$$$
1NEM.B
 OpenBabel11021811403D
libRbt.so/2013.1/901 2013/11/27
 42 45  0  0  0  0  0  0  0  0999 V2000
  -11.3922   -7.0519    2.4802 O   0  0  0  0  0  0  0  0  0  0  0  0
  -10.3478   -6.1102    2.7341 C   0  0  0  0  0  0  0  0  0  0  0  0
   -9.6539   -5.6285    1.4608 C   0  0  1  0  0  0  0  0  0  0  0  0
   -8.6526   -4.6627    1.7676 O   0  0  0  0  0  0  0  0  0  0  0  0
   -8.8807   -6.7036    0.7141 C   0  0  1  0  0  0  0  0  0  0  0  0
   -9.8398   -7.5685    0.1014 O   0  0  0  0  0  0  0  0  0  0  0  0
   -8.0786   -5.8148   -0.2179 C   0  0  1  0  0  0  0  0  0  0  0  0
   -8.8987   -5.1999   -1.2170 O   0  0  0  0  0  0  0  0  0  0  0  0
   -7.6093   -4.7672    0.7985 C   0  0  2  0  0  0  0  0  0  0  0  0
   -9.5408   -8.9350    0.1193 C   0  0  2  0  0  0  0  0  0  0  0  0
   -8.3446   -9.2035   -0.8040 C   0  0  2  0  0  0  0  0  0  0  0  0
   -8.6083   -8.6448   -2.1562 N   0  3  0  0  0  0  0  0  0  0  0  0
   -8.0261  -10.7010   -0.8625 C   0  0  1  0  0  0  0  0  0  0  0  0
   -7.4763  -11.1213    0.3791 O   0  0  0  0  0  0  0  0  0  0  0  0
   -9.2819  -11.5216   -1.1725 C   0  0  2  0  0  0  0  0  0  0  0  0
   -9.7140  -11.2788   -2.5053 O   0  0  0  0  0  0  0  0  0  0  0  0
  -10.3906  -11.1539   -0.1904 C   0  0  1  0  0  0  0  0  0  0  0  0
  -10.6507   -9.7385   -0.2598 O   0  0  0  0  0  0  0  0  0  0  0  0
  -11.6950  -11.8837   -0.4589 C   0  0  0  0  0  0  0  0  0  0  0  0
  -11.5057  -13.3502   -0.5167 N   0  3  0  0  0  0  0  0  0  0  0  0
   -3.1580   -4.7061    4.5486 C   0  0  0  0  0  0  0  0  0  0  0  0
   -3.9319   -2.2119    1.9204 C   0  0  2  0  0  0  0  0  0  0  0  0
   -2.8167   -2.4885    0.9150 C   0  0  2  0  0  0  0  0  0  0  0  0
   -3.1781   -1.9431   -0.4152 N   0  3  0  0  0  0  0  0  0  0  0  0
   -2.5765   -3.9877    0.7970 C   0  0  1  0  0  0  0  0  0  0  0  0
   -1.4871   -4.2276   -0.0806 O   0  0  0  0  0  0  0  0  0  0  0  0
   -2.2765   -4.5673    2.1776 C   0  0  2  0  0  0  0  0  0  0  0  0
   -2.1193   -5.9775    2.0865 O   0  0  0  0  0  0  0  0  0  0  0  0
   -3.6830   -3.7454    5.5459 N   0  3  0  0  0  0  0  0  0  0  0  0
   -3.4252   -4.2376    3.1288 C   0  0  2  0  0  0  0  0  0  0  0  0
   -3.6342   -2.8115    3.1785 O   0  0  0  0  0  0  0  0  0  0  0  0
   -6.9322   -3.9279    5.0440 C   0  0  2  0  0  0  0  0  0  0  0  0
   -7.9612   -4.2362    6.0636 N   0  3  0  0  0  0  0  0  0  0  0  0
   -6.9828   -2.4475    4.6837 C   0  0  0  0  0  0  0  0  0  0  0  0
   -5.9312   -2.1162    3.6341 C   0  0  2  0  0  0  0  0  0  0  0  0
   -6.0306   -0.6944    3.3364 N   0  3  0  0  0  0  0  0  0  0  0  0
   -6.1706   -2.9533    2.3797 C   0  0  1  0  0  0  0  0  0  0  0  0
   -5.1549   -2.6546    1.4023 O   0  0  0  0  0  0  0  0  0  0  0  0
   -6.1359   -4.4518    2.7103 C   0  0  2  0  0  0  0  0  0  0  0  0
   -6.4678   -5.2084    1.5304 O   0  0  0  0  0  0  0  0  0  0  0  0
   -7.1349   -4.8047    3.8094 C   0  0  1  0  0  0  0  0  0  0  0  0
   -6.9816   -6.1713    4.1689 O   0  0  0  0  0  0  0  0  0  0  0  0
  1  2  1  0  0  0  0
  3  2  1  1  0  0  0
  3  5  1  0  0  0  0
  3  4  1  0  0  0  0
  4  9  1  0  0  0  0
  5  7  1  0  0  0  0
  5  6  1  6  0  0  0
  7  9  1  0  0  0  0
  7  8  1  6  0  0  0
  9 40  1  1  0  0  0
 10  6  1  6  0  0  0
 10 11  1  0  0  0  0
 10 18  1  0  0  0  0
 11 13  1  0  0  0  0
 11 12  1  6  0  0  0
 13 15  1  0  0  0  0
 13 14  1  1  0  0  0
 15 17  1  0  0  0  0
 15 16  1  6  0  0  0
 17 19  1  6  0  0  0
 17 18  1  0  0  0  0
 19 20  1  0  0  0  0
 21 29  1  0  0  0  0
 22 23  1  0  0  0  0
 22 31  1  0  0  0  0
 22 38  1  6  0  0  0
 23 25  1  0  0  0  0
 23 24  1  6  0  0  0
 25 27  1  0  0  0  0
 25 26  1  6  0  0  0
 27 30  1  0  0  0  0
 27 28  1  6  0  0  0
 30 21  1  1  0  0  0
 30 31  1  0  0  0  0
 32 34  1  0  0  0  0
 32 41  1  0  0  0  0
 32 33  1  1  0  0  0
 34 35  1  0  0  0  0
 35 37  1  0  0  0  0
 35 36  1  6  0  0  0
 37 39  1  0  0  0  0
 37 38  1  6  0  0  0
 39 41  1  0  0  0  0
 39 40  1  6  0  0  0
 41 42  1  1  0  0  0
M  CHG  6  12   1  20   1  24   1  29   1  33   1  36   1
M  END
>  <CHROM.1>
-176.37116072,178.17798707,-140.59919933,-68.88716446,38.10375378,-51.37017136
159.79698614,-172.85685667,-94.84156101,53.75143984,-54.43184325,142.90991379
-155.03403896,156.43437250,-173.15442623,67.14996129,61.09318220,-53.56428538
176.32992863,27.10667319,-46.98958244,62.31583801,-6.98318750,-6.01230728
1.48436123,2.26665785,-0.40167881,-2.39392173

>  <Name>
1NEM.B

>  <RI>
0

>  <Rbt.Current_Directory>
/home/itssahil/PROJECTS/Mol_Feturizer/New_Systems/rnas/1nem

>  <Rbt.Executable>
rbdock ($Id: //depot/dev/client3/rdock/2013.1/src/exe/rbdock.cxx#4 $)

>  <Rbt.Library>
libRbt.so (2013.1, Build901 2013/11/27)

>  <Rbt.Parameter_File>
/export/apps/rDock/src/rDock_2013.1_src/data/scripts/dock_solv.prm

>  <Rbt.Receptor>
prm/blind_docking_40.prm

>  <SCORE>
5.37427

>  <SCORE.INTER>
-23.9514

>  <SCORE.INTER.CONST>
1

>  <SCORE.INTER.POLAR>
-4.31014

>  <SCORE.INTER.ROT>
9

>  <SCORE.INTER.SOLV>
32.0981

>  <SCORE.INTER.VDW>
-21.8998

>  <SCORE.INTER.norm>
-0.570271

>  <SCORE.INTRA>
22.1416

>  <SCORE.INTRA.DIHEDRAL>
4.72554

>  <SCORE.INTRA.DIHEDRAL.0>
22.4324

>  <SCORE.INTRA.POLAR>
1.52567

>  <SCORE.INTRA.POLAR.0>
-1.83749

>  <SCORE.INTRA.REPUL>
0

>  <SCORE.INTRA.REPUL.0>
0

>  <SCORE.INTRA.SOLV>
0.789515

>  <SCORE.INTRA.SOLV.lig_0>
-160.638

>  <SCORE.INTRA.VDW>
14.1968

>  <SCORE.INTRA.VDW.0>
-7.61953

>  <SCORE.INTRA.norm>
0.527182

>  <SCORE.RESTR>
7.18403

>  <SCORE.RESTR.CAVITY>
7.18403

>  <SCORE.RESTR.norm>
0.171048

>  <SCORE.SYSTEM>
0

>  <SCORE.SYSTEM.CONST>
0

>  <SCORE.SYSTEM.DIHEDRAL>
0

>  <SCORE.SYSTEM.SOLV>
0

>  <SCORE.SYSTEM.norm>
0

>  <SCORE.heavy>
42

>  <SCORE.norm>
0.127959

>  <RMSD>
12.316

$$$$
1NEM.B
 OpenBabel11021811403D
libRbt.so/2013.1/901 2013/11/27
 42 45  0  0  0  0  0  0  0  0999 V2000
   -8.4137   -7.0602    3.6175 O   0  0  0  0  0  0  0  0  0  0  0  0
   -9.2917   -6.9575    2.4947 C   0  0  0  0  0  0  0  0  0  0  0  0
   -8.9109   -5.8280    1.5387 C   0  0  1  0  0  0  0  0  0  0  0  0
   -8.0178   -4.9145    2.1690 O   0  0  0  0  0  0  0  0  0  0  0  0
   -8.1388   -6.2727    0.3068 C   0  0  1  0  0  0  0  0  0  0  0  0
   -9.0595   -6.9537   -0.5486 O   0  0  0  0  0  0  0  0  0  0  0  0
   -7.6494   -4.9175   -0.1684 C   0  0  1  0  0  0  0  0  0  0  0  0
   -8.7129   -4.1083   -0.6813 O   0  0  0  0  0  0  0  0  0  0  0  0
   -7.1596   -4.3584    1.1726 C   0  0  2  0  0  0  0  0  0  0  0  0
   -9.3533   -8.2791   -0.2107 C   0  0  2  0  0  0  0  0  0  0  0  0
   -8.4553   -9.2201   -1.0252 C   0  0  2  0  0  0  0  0  0  0  0  0
   -8.5725   -8.9098   -2.4744 N   0  3  0  0  0  0  0  0  0  0  0  0
   -8.7920  -10.6855   -0.7311 C   0  0  1  0  0  0  0  0  0  0  0  0
   -8.3671  -11.0187    0.5838 O   0  0  0  0  0  0  0  0  0  0  0  0
  -10.2956  -10.9453   -0.8664 C   0  0  2  0  0  0  0  0  0  0  0  0
  -10.6949  -10.8378   -2.2270 O   0  0  0  0  0  0  0  0  0  0  0  0
  -11.0685   -9.9411   -0.0161 C   0  0  1  0  0  0  0  0  0  0  0  0
  -10.7232   -8.6003   -0.4146 O   0  0  0  0  0  0  0  0  0  0  0  0
  -12.5751  -10.0914   -0.1329 C   0  0  0  0  0  0  0  0  0  0  0  0
  -13.0283  -11.4417    0.2686 N   0  3  0  0  0  0  0  0  0  0  0  0
   -1.6524   -3.4378    1.8374 C   0  0  0  0  0  0  0  0  0  0  0  0
   -4.5023   -1.7362    3.4834 C   0  0  2  0  0  0  0  0  0  0  0  0
   -4.3237   -0.3069    2.9770 C   0  0  2  0  0  0  0  0  0  0  0  0
   -5.5894    0.4509    3.1224 N   0  3  0  0  0  0  0  0  0  0  0  0
   -3.9075   -0.3173    1.5122 C   0  0  1  0  0  0  0  0  0  0  0  0
   -3.6695    1.0120    1.0755 O   0  0  0  0  0  0  0  0  0  0  0  0
   -2.6443   -1.1591    1.3458 C   0  0  2  0  0  0  0  0  0  0  0  0
   -2.2884   -1.2310   -0.0288 O   0  0  0  0  0  0  0  0  0  0  0  0
   -1.8572   -4.7168    2.5553 N   0  3  0  0  0  0  0  0  0  0  0  0
   -2.8946   -2.5653    1.8872 C   0  0  2  0  0  0  0  0  0  0  0  0
   -3.3184   -2.4986    3.2640 O   0  0  0  0  0  0  0  0  0  0  0  0
   -5.6798   -5.9324    5.1023 C   0  0  2  0  0  0  0  0  0  0  0  0
   -6.1850   -7.1530    5.7716 N   0  3  0  0  0  0  0  0  0  0  0  0
   -6.3505   -4.6979    5.6942 C   0  0  0  0  0  0  0  0  0  0  0  0
   -5.8420   -3.4348    5.0137 C   0  0  2  0  0  0  0  0  0  0  0  0
   -6.5169   -2.2975    5.6228 N   0  3  0  0  0  0  0  0  0  0  0  0
   -6.1315   -3.5017    3.5160 C   0  0  1  0  0  0  0  0  0  0  0  0
   -5.6222   -2.3158    2.8752 O   0  0  0  0  0  0  0  0  0  0  0  0
   -5.4774   -4.7411    2.8898 C   0  0  2  0  0  0  0  0  0  0  0  0
   -5.8553   -4.8306    1.5028 O   0  0  0  0  0  0  0  0  0  0  0  0
   -5.9169   -6.0215    3.5956 C   0  0  1  0  0  0  0  0  0  0  0  0
   -5.1951   -7.1262    3.0673 O   0  0  0  0  0  0  0  0  0  0  0  0
  1  2  1  0  0  0  0
  3  2  1  1  0  0  0
  3  5  1  0  0  0  0
  3  4  1  0  0  0  0
  4  9  1  0  0  0  0
  5  7  1  0  0  0  0
  5  6  1  6  0  0  0
  7  9  1  0  0  0  0
  7  8  1  1  0  0  0
  9 40  1  1  0  0  0
 10  6  1  6  0  0  0
 10 11  1  0  0  0  0
 10 18  1  0  0  0  0
 11 13  1  0  0  0  0
 11 12  1  6  0  0  0
 13 15  1  0  0  0  0
 13 14  1  1  0  0  0
 15 17  1  0  0  0  0
 15 16  1  6  0  0  0
 17 19  1  6  0  0  0
 17 18  1  0  0  0  0
 19 20  1  0  0  0  0
 21 29  1  0  0  0  0
 22 23  1  0  0  0  0
 22 31  1  0  0  0  0
 22 38  1  6  0  0  0
 23 25  1  0  0  0  0
 23 24  1  6  0  0  0
 25 27  1  0  0  0  0
 25 26  1  1  0  0  0
 27 30  1  0  0  0  0
 27 28  1  6  0  0  0
 30 21  1  1  0  0  0
 30 31  1  0  0  0  0
 32 34  1  0  0  0  0
 32 41  1  0  0  0  0
 32 33  1  1  0  0  0
 34 35  1  0  0  0  0
 35 37  1  0  0  0  0
 35 36  1  1  0  0  0
 37 39  1  0  0  0  0
 37 38  1  6  0  0  0
 39 41  1  0  0  0  0
 39 40  1  6  0  0  0
 41 42  1  6  0  0  0
M  CHG  6  12   1  20   1  24   1  29   1  33   1  36   1
M  END
>  <CHROM.1>
-172.97696533,-16.54135048,-79.46256142,-95.90031971,-59.34798241,-45.71738589
-8.75146502,68.86128579,-65.72964209,58.81763988,79.04859606,171.12273065
68.18945309,-163.34655692,-158.17666002,59.51018767,64.67420024,-158.21800777
-70.12813246,29.70680513,-33.04596270,73.10572886,-6.88697375,-5.48800366
1.66687058,2.98221981,-0.92506556,-1.40315899

>  <Name>
1NEM.B

>  <RI>
0

>  <Rbt.Current_Directory>
/home/itssahil/PROJECTS/Mol_Feturizer/New_Systems/rnas/1nem

>  <Rbt.Executable>
rbdock ($Id: //depot/dev/client3/rdock/2013.1/src/exe/rbdock.cxx#4 $)

>  <Rbt.Library>
libRbt.so (2013.1, Build901 2013/11/27)

>  <Rbt.Parameter_File>
/export/apps/rDock/src/rDock_2013.1_src/data/scripts/dock_solv.prm

>  <Rbt.Receptor>
prm/blind_docking_40.prm

>  <SCORE>
-8.21685

>  <SCORE.INTER>
-30.8762

>  <SCORE.INTER.CONST>
1

>  <SCORE.INTER.POLAR>
-4.56171

>  <SCORE.INTER.ROT>
9

>  <SCORE.INTER.SOLV>
34.8069

>  <SCORE.INTER.VDW>
-26.5808

>  <SCORE.INTER.norm>
-0.735148

>  <SCORE.INTRA>
15.4976

>  <SCORE.INTRA.DIHEDRAL>
6.65482

>  <SCORE.INTRA.DIHEDRAL.0>
22.4324

>  <SCORE.INTRA.POLAR>
0.895643

>  <SCORE.INTRA.POLAR.0>
-1.83749

>  <SCORE.INTRA.REPUL>
0

>  <SCORE.INTRA.REPUL.0>
0

>  <SCORE.INTRA.SOLV>
-0.260081

>  <SCORE.INTRA.SOLV.lig_0>
-160.638

>  <SCORE.INTRA.VDW>
9.25503

>  <SCORE.INTRA.VDW.0>
-7.61953

>  <SCORE.INTRA.norm>
0.36899

>  <SCORE.RESTR>
7.1618

>  <SCORE.RESTR.CAVITY>
7.1618

>  <SCORE.RESTR.norm>
0.170519

>  <SCORE.SYSTEM>
0

>  <SCORE.SYSTEM.CONST>
0

>  <SCORE.SYSTEM.DIHEDRAL>
0

>  <SCORE.SYSTEM.SOLV>
0

>  <SCORE.SYSTEM.norm>
0

>  <SCORE.heavy>
42

>  <SCORE.norm>
-0.195639

>  <RMSD>
12.389

$$$$
