ligand
  PyMOL2.2          3D                             0

 11 12  0  0  0  0  0  0  0  0999 V2000
   12.1560   11.6080    9.3160 N   0  0  0  0  0  0  0  0  0  0  0  0
   11.6570   12.8520    9.4350 C   0  0  0  0  0  0  0  0  0  0  0  0
   11.6370   13.4600   10.6820 N   0  0  0  0  0  0  0  0  0  0  0  0
   11.1760   13.5190    8.3740 N   0  0  0  0  0  0  0  0  0  0  0  0
   11.1680   12.9700    7.1490 C   0  0  0  0  0  0  0  0  0  0  0  0
   11.6810   11.6660    6.9670 C   0  0  0  0  0  0  0  0  0  0  0  0
   12.1890   10.9860    8.1180 C   0  0  0  0  0  0  0  0  0  0  0  0
   12.7040    9.7170    8.0140 N   0  0  0  0  0  0  0  0  0  0  0  0
   11.5500   11.3620    5.6440 N   0  0  0  0  0  0  0  0  0  0  0  0
   11.0030   12.3660    5.0270 C   0  0  0  0  0  0  0  0  0  0  0  0
   10.7500   13.3860    5.9090 N   0  0  0  0  0  0  0  0  0  0  0  0
  1  7  4  0  0  0  0
  1  2  4  0  0  0  0
  2  3  1  0  0  0  0
  2  4  4  0  0  0  0
  4  5  4  0  0  0  0
  5  6  4  0  0  0  0
  6  7  4  0  0  0  0
  7  8  1  0  0  0  0
  6  9  4  0  0  0  0
  9 10  4  0  0  0  0
  5 11  4  0  0  0  0
 10 11  4  0  0  0  0
M  END
$$$$
