ligand
 OpenBabel11021811493D
libRbt.so/2013.1/901 2013/11/27
 11 12  0  0  0  0  0  0  0  0999 V2000
   12.4691   11.6541    8.8366 N   0  0  0  0  0  0  0  0  0  0  0  0
   11.9765   12.8872    9.0544 C   0  0  0  0  0  0  0  0  0  0  0  0
   12.0614   13.4386   10.3247 N   0  0  0  0  0  0  0  0  0  0  0  0
   11.4025   13.5969    8.0701 N   0  0  0  0  0  0  0  0  0  0  0  0
   11.2912   13.1032    6.8267 C   0  0  0  0  0  0  0  0  0  0  0  0
   11.7927   11.8131    6.5423 C   0  0  0  0  0  0  0  0  0  0  0  0
   12.4014   11.0867    7.6132 C   0  0  0  0  0  0  0  0  0  0  0  0
   12.9114    9.8280    7.4079 N   0  0  0  0  0  0  0  0  0  0  0  0
   11.5493   11.5675    5.2231 N   0  0  0  0  0  0  0  0  0  0  0  0
   10.9463   12.5934    4.7016 C   0  0  0  0  0  0  0  0  0  0  0  0
   10.7657   13.5707    5.6474 N   0  0  0  0  0  0  0  0  0  0  0  0
  1  7  2  0  0  0  0
  1  2  1  0  0  0  0
  2  3  1  0  0  0  0
  2  4  2  0  0  0  0
  4  5  1  0  0  0  0
  5  6  2  0  0  0  0
  5 11  1  0  0  0  0
  6  7  1  0  0  0  0
  6  9  1  0  0  0  0
  7  8  1  0  0  0  0
  9 10  1  0  0  0  0
 10 11  2  0  0  0  0
M  END
>  <CHROM.1>
11.78559970,12.28460767,7.31933775,-1.06126147,1.09056538,-2.10560655

>  <Name>
ligand

>  <RI>
0

>  <Rbt.Current_Directory>
/home/itssahil/PROJECTS/Mol_Feturizer/New_Systems/rnas/4FEO

>  <Rbt.Executable>
rbdock ($Id: //depot/dev/client3/rdock/2013.1/src/exe/rbdock.cxx#4 $)

>  <Rbt.Library>
libRbt.so (2013.1, Build901 2013/11/27)

>  <Rbt.Parameter_File>
/export/apps/rDock/src/rDock_2013.1_src/data/scripts/dock_solv.prm

>  <Rbt.Receptor>
prm/blind_docking_60.prm

>  <SCORE>
-11.1336

>  <SCORE.INTER>
-11.1336

>  <SCORE.INTER.CONST>
1

>  <SCORE.INTER.POLAR>
0

>  <SCORE.INTER.ROT>
0

>  <SCORE.INTER.SOLV>
18.2706

>  <SCORE.INTER.VDW>
-17.1126

>  <SCORE.INTER.norm>
-1.01215

>  <SCORE.INTRA>
0

>  <SCORE.INTRA.DIHEDRAL>
0

>  <SCORE.INTRA.DIHEDRAL.0>
0

>  <SCORE.INTRA.POLAR>
0

>  <SCORE.INTRA.POLAR.0>
0

>  <SCORE.INTRA.REPUL>
0

>  <SCORE.INTRA.REPUL.0>
0

>  <SCORE.INTRA.SOLV>
0

>  <SCORE.INTRA.SOLV.lig_0>
-48.9252

>  <SCORE.INTRA.VDW>
0

>  <SCORE.INTRA.VDW.0>
0

>  <SCORE.INTRA.norm>
0

>  <SCORE.RESTR>
0

>  <SCORE.RESTR.CAVITY>
0

>  <SCORE.RESTR.norm>
0

>  <SCORE.SYSTEM>
0

>  <SCORE.SYSTEM.CONST>
0

>  <SCORE.SYSTEM.DIHEDRAL>
0

>  <SCORE.SYSTEM.SOLV>
0

>  <SCORE.SYSTEM.norm>
0

>  <SCORE.heavy>
11

>  <SCORE.norm>
-1.01215

>  <RMSD>
0.486

$$$$
ligand
 OpenBabel11021811493D
libRbt.so/2013.1/901 2013/11/27
 11 12  0  0  0  0  0  0  0  0999 V2000
   12.4405   11.6346    8.8313 N   0  0  0  0  0  0  0  0  0  0  0  0
   11.9680   12.8753    9.0501 C   0  0  0  0  0  0  0  0  0  0  0  0
   12.0591   13.4230   10.3217 N   0  0  0  0  0  0  0  0  0  0  0  0
   11.4083   13.5962    8.0657 N   0  0  0  0  0  0  0  0  0  0  0  0
   11.2918   13.1067    6.8212 C   0  0  0  0  0  0  0  0  0  0  0  0
   11.7723   11.8089    6.5357 C   0  0  0  0  0  0  0  0  0  0  0  0
   12.3662   11.0705    7.6068 C   0  0  0  0  0  0  0  0  0  0  0  0
   12.8557    9.8039    7.4003 N   0  0  0  0  0  0  0  0  0  0  0  0
   11.5280   11.5697    5.2154 N   0  0  0  0  0  0  0  0  0  0  0  0
   10.9435   12.6065    4.6944 C   0  0  0  0  0  0  0  0  0  0  0  0
   10.7770   13.5850    5.6415 N   0  0  0  0  0  0  0  0  0  0  0  0
  1  7  2  0  0  0  0
  1  2  1  0  0  0  0
  2  3  1  0  0  0  0
  2  4  2  0  0  0  0
  4  5  1  0  0  0  0
  5  6  2  0  0  0  0
  5 11  1  0  0  0  0
  6  7  1  0  0  0  0
  6  9  1  0  0  0  0
  7  8  1  0  0  0  0
  9 10  1  0  0  0  0
 10 11  2  0  0  0  0
M  END
>  <CHROM.1>
11.77124049,12.27909330,7.31355716,-1.04689113,1.10613174,-2.11660753

>  <Name>
ligand

>  <RI>
0

>  <Rbt.Current_Directory>
/home/itssahil/PROJECTS/Mol_Feturizer/New_Systems/rnas/4FEO

>  <Rbt.Executable>
rbdock ($Id: //depot/dev/client3/rdock/2013.1/src/exe/rbdock.cxx#4 $)

>  <Rbt.Library>
libRbt.so (2013.1, Build901 2013/11/27)

>  <Rbt.Parameter_File>
/export/apps/rDock/src/rDock_2013.1_src/data/scripts/dock_solv.prm

>  <Rbt.Receptor>
prm/blind_docking_80.prm

>  <SCORE>
-11.1336

>  <SCORE.INTER>
-11.1336

>  <SCORE.INTER.CONST>
1

>  <SCORE.INTER.POLAR>
0

>  <SCORE.INTER.ROT>
0

>  <SCORE.INTER.SOLV>
18.4173

>  <SCORE.INTER.VDW>
-17.1615

>  <SCORE.INTER.norm>
-1.01215

>  <SCORE.INTRA>
0

>  <SCORE.INTRA.DIHEDRAL>
0

>  <SCORE.INTRA.DIHEDRAL.0>
0

>  <SCORE.INTRA.POLAR>
0

>  <SCORE.INTRA.POLAR.0>
0

>  <SCORE.INTRA.REPUL>
0

>  <SCORE.INTRA.REPUL.0>
0

>  <SCORE.INTRA.SOLV>
0

>  <SCORE.INTRA.SOLV.lig_0>
-48.9252

>  <SCORE.INTRA.VDW>
0

>  <SCORE.INTRA.VDW.0>
0

>  <SCORE.INTRA.norm>
0

>  <SCORE.RESTR>
0

>  <SCORE.RESTR.CAVITY>
0

>  <SCORE.RESTR.norm>
0

>  <SCORE.SYSTEM>
0

>  <SCORE.SYSTEM.CONST>
0

>  <SCORE.SYSTEM.DIHEDRAL>
0

>  <SCORE.SYSTEM.SOLV>
0

>  <SCORE.SYSTEM.norm>
0

>  <SCORE.heavy>
11

>  <SCORE.norm>
-1.01215

>  <RMSD>
0.486

$$$$
ligand
 OpenBabel11021811493D
libRbt.so/2013.1/901 2013/11/27
 11 12  0  0  0  0  0  0  0  0999 V2000
   12.4578   11.6502    8.8334 N   0  0  0  0  0  0  0  0  0  0  0  0
   11.9715   12.8857    9.0516 C   0  0  0  0  0  0  0  0  0  0  0  0
   12.0586   13.4359   10.3224 N   0  0  0  0  0  0  0  0  0  0  0  0
   11.4019   13.5990    8.0674 N   0  0  0  0  0  0  0  0  0  0  0  0
   11.2888   13.1067    6.8236 C   0  0  0  0  0  0  0  0  0  0  0  0
   11.7836   11.8141    6.5387 C   0  0  0  0  0  0  0  0  0  0  0  0
   12.3878   11.0838    7.6097 C   0  0  0  0  0  0  0  0  0  0  0  0
   12.8913    9.8226    7.4038 N   0  0  0  0  0  0  0  0  0  0  0  0
   11.5397   11.5706    5.2192 N   0  0  0  0  0  0  0  0  0  0  0  0
   10.9425   12.6000    4.6980 C   0  0  0  0  0  0  0  0  0  0  0  0
   10.7665   13.5777    5.6443 N   0  0  0  0  0  0  0  0  0  0  0  0
  1  7  2  0  0  0  0
  1  2  1  0  0  0  0
  2  3  1  0  0  0  0
  2  4  2  0  0  0  0
  4  5  1  0  0  0  0
  5  6  2  0  0  0  0
  5 11  1  0  0  0  0
  6  7  1  0  0  0  0
  6  9  1  0  0  0  0
  7  8  1  0  0  0  0
  9 10  1  0  0  0  0
 10 11  2  0  0  0  0
M  END
>  <CHROM.1>
11.77855067,12.28519421,7.31610391,-1.05652938,1.09543819,-2.10918952

>  <Name>
ligand

>  <RI>
0

>  <Rbt.Current_Directory>
/home/itssahil/PROJECTS/Mol_Feturizer/New_Systems/rnas/4FEO

>  <Rbt.Executable>
rbdock ($Id: //depot/dev/client3/rdock/2013.1/src/exe/rbdock.cxx#4 $)

>  <Rbt.Library>
libRbt.so (2013.1, Build901 2013/11/27)

>  <Rbt.Parameter_File>
/export/apps/rDock/src/rDock_2013.1_src/data/scripts/dock_solv.prm

>  <Rbt.Receptor>
prm/pocket_docking_3.prm

>  <SCORE>
-11.1343

>  <SCORE.INTER>
-11.1343

>  <SCORE.INTER.CONST>
1

>  <SCORE.INTER.POLAR>
0

>  <SCORE.INTER.ROT>
0

>  <SCORE.INTER.SOLV>
18.3298

>  <SCORE.INTER.VDW>
-17.1328

>  <SCORE.INTER.norm>
-1.0122

>  <SCORE.INTRA>
0

>  <SCORE.INTRA.DIHEDRAL>
0

>  <SCORE.INTRA.DIHEDRAL.0>
0

>  <SCORE.INTRA.POLAR>
0

>  <SCORE.INTRA.POLAR.0>
0

>  <SCORE.INTRA.REPUL>
0

>  <SCORE.INTRA.REPUL.0>
0

>  <SCORE.INTRA.SOLV>
0

>  <SCORE.INTRA.SOLV.lig_0>
-48.9252

>  <SCORE.INTRA.VDW>
0

>  <SCORE.INTRA.VDW.0>
0

>  <SCORE.INTRA.norm>
0

>  <SCORE.RESTR>
0

>  <SCORE.RESTR.CAVITY>
0

>  <SCORE.RESTR.norm>
0

>  <SCORE.SYSTEM>
0

>  <SCORE.SYSTEM.CONST>
0

>  <SCORE.SYSTEM.DIHEDRAL>
0

>  <SCORE.SYSTEM.SOLV>
0

>  <SCORE.SYSTEM.norm>
0

>  <SCORE.heavy>
11

>  <SCORE.norm>
-1.0122

>  <RMSD>
0.487

$$$$
ligand
 OpenBabel11021811493D
libRbt.so/2013.1/901 2013/11/27
 11 12  0  0  0  0  0  0  0  0999 V2000
   12.4358   11.6386    8.8311 N   0  0  0  0  0  0  0  0  0  0  0  0
   11.9659   12.8806    9.0486 C   0  0  0  0  0  0  0  0  0  0  0  0
   12.0576   13.4292   10.3197 N   0  0  0  0  0  0  0  0  0  0  0  0
   11.4081   13.6018    8.0633 N   0  0  0  0  0  0  0  0  0  0  0  0
   11.2911   13.1113    6.8191 C   0  0  0  0  0  0  0  0  0  0  0  0
   11.7690   11.8122    6.5350 C   0  0  0  0  0  0  0  0  0  0  0  0
   12.3609   11.0735    7.6070 C   0  0  0  0  0  0  0  0  0  0  0  0
   12.8477    9.8057    7.4020 N   0  0  0  0  0  0  0  0  0  0  0  0
   11.5247   11.5724    5.2149 N   0  0  0  0  0  0  0  0  0  0  0  0
   10.9427   12.6099    4.6926 C   0  0  0  0  0  0  0  0  0  0  0  0
   10.7779   13.5896    5.6388 N   0  0  0  0  0  0  0  0  0  0  0  0
  1  7  2  0  0  0  0
  1  2  1  0  0  0  0
  2  3  1  0  0  0  0
  2  4  2  0  0  0  0
  4  5  1  0  0  0  0
  5  6  2  0  0  0  0
  5 11  1  0  0  0  0
  6  7  1  0  0  0  0
  6  9  1  0  0  0  0
  7  8  1  0  0  0  0
  9 10  1  0  0  0  0
 10 11  2  0  0  0  0
M  END
>  <CHROM.1>
11.76860523,12.28313907,7.31245864,-1.04520372,1.10817560,-2.11903933

>  <Name>
ligand

>  <RI>
0

>  <Rbt.Current_Directory>
/home/itssahil/PROJECTS/Mol_Feturizer/New_Systems/rnas/4FEO

>  <Rbt.Executable>
rbdock ($Id: //depot/dev/client3/rdock/2013.1/src/exe/rbdock.cxx#4 $)

>  <Rbt.Library>
libRbt.so (2013.1, Build901 2013/11/27)

>  <Rbt.Parameter_File>
/export/apps/rDock/src/rDock_2013.1_src/data/scripts/dock_solv.prm

>  <Rbt.Receptor>
prm/pocket_docking_4.prm

>  <SCORE>
-11.1333

>  <SCORE.INTER>
-11.1333

>  <SCORE.INTER.CONST>
1

>  <SCORE.INTER.POLAR>
0

>  <SCORE.INTER.ROT>
0

>  <SCORE.INTER.SOLV>
18.4521

>  <SCORE.INTER.VDW>
-17.1729

>  <SCORE.INTER.norm>
-1.01212

>  <SCORE.INTRA>
0

>  <SCORE.INTRA.DIHEDRAL>
0

>  <SCORE.INTRA.DIHEDRAL.0>
0

>  <SCORE.INTRA.POLAR>
0

>  <SCORE.INTRA.POLAR.0>
0

>  <SCORE.INTRA.REPUL>
0

>  <SCORE.INTRA.REPUL.0>
0

>  <SCORE.INTRA.SOLV>
0

>  <SCORE.INTRA.SOLV.lig_0>
-48.9252

>  <SCORE.INTRA.VDW>
0

>  <SCORE.INTRA.VDW.0>
0

>  <SCORE.INTRA.norm>
0

>  <SCORE.RESTR>
0

>  <SCORE.RESTR.CAVITY>
0

>  <SCORE.RESTR.norm>
0

>  <SCORE.SYSTEM>
0

>  <SCORE.SYSTEM.CONST>
0

>  <SCORE.SYSTEM.DIHEDRAL>
0

>  <SCORE.SYSTEM.SOLV>
0

>  <SCORE.SYSTEM.norm>
0

>  <SCORE.heavy>
11

>  <SCORE.norm>
-1.01212

>  <RMSD>
0.487

$$$$
ligand
 OpenBabel11021811493D
libRbt.so/2013.1/901 2013/11/27
 11 12  0  0  0  0  0  0  0  0999 V2000
   12.4624   11.6500    8.8325 N   0  0  0  0  0  0  0  0  0  0  0  0
   11.9732   12.8841    9.0522 C   0  0  0  0  0  0  0  0  0  0  0  0
   12.0587   13.4329   10.3237 N   0  0  0  0  0  0  0  0  0  0  0  0
   11.4021   13.5973    8.0687 N   0  0  0  0  0  0  0  0  0  0  0  0
   11.2904   13.1063    6.8243 C   0  0  0  0  0  0  0  0  0  0  0  0
   11.7884   11.8153    6.5379 C   0  0  0  0  0  0  0  0  0  0  0  0
   12.3941   11.0851    7.6080 C   0  0  0  0  0  0  0  0  0  0  0  0
   12.9006    9.8253    7.4007 N   0  0  0  0  0  0  0  0  0  0  0  0
   11.5454   11.5729    5.2180 N   0  0  0  0  0  0  0  0  0  0  0  0
   10.9458   12.6015    4.6980 C   0  0  0  0  0  0  0  0  0  0  0  0
   10.7673   13.5775    5.6455 N   0  0  0  0  0  0  0  0  0  0  0  0
  1  7  2  0  0  0  0
  1  2  1  0  0  0  0
  2  3  1  0  0  0  0
  2  4  2  0  0  0  0
  4  5  1  0  0  0  0
  5  6  2  0  0  0  0
  5 11  1  0  0  0  0
  6  7  1  0  0  0  0
  6  9  1  0  0  0  0
  7  8  1  0  0  0  0
  9 10  1  0  0  0  0
 10 11  2  0  0  0  0
M  END
>  <CHROM.1>
11.78201014,12.28535777,7.31585581,-1.05960766,1.09351311,-2.10518869

>  <Name>
ligand

>  <RI>
0

>  <Rbt.Current_Directory>
/home/itssahil/PROJECTS/Mol_Feturizer/New_Systems/rnas/4FEO

>  <Rbt.Executable>
rbdock ($Id: //depot/dev/client3/rdock/2013.1/src/exe/rbdock.cxx#4 $)

>  <Rbt.Library>
libRbt.so (2013.1, Build901 2013/11/27)

>  <Rbt.Parameter_File>
/export/apps/rDock/src/rDock_2013.1_src/data/scripts/dock_solv.prm

>  <Rbt.Receptor>
prm/blind_docking_60.prm

>  <SCORE>
-11.1356

>  <SCORE.INTER>
-11.1356

>  <SCORE.INTER.CONST>
1

>  <SCORE.INTER.POLAR>
0

>  <SCORE.INTER.ROT>
0

>  <SCORE.INTER.SOLV>
18.2955

>  <SCORE.INTER.VDW>
-17.1223

>  <SCORE.INTER.norm>
-1.01233

>  <SCORE.INTRA>
0

>  <SCORE.INTRA.DIHEDRAL>
0

>  <SCORE.INTRA.DIHEDRAL.0>
0

>  <SCORE.INTRA.POLAR>
0

>  <SCORE.INTRA.POLAR.0>
0

>  <SCORE.INTRA.REPUL>
0

>  <SCORE.INTRA.REPUL.0>
0

>  <SCORE.INTRA.SOLV>
0

>  <SCORE.INTRA.SOLV.lig_0>
-48.9252

>  <SCORE.INTRA.VDW>
0

>  <SCORE.INTRA.VDW.0>
0

>  <SCORE.INTRA.norm>
0

>  <SCORE.RESTR>
0

>  <SCORE.RESTR.CAVITY>
0

>  <SCORE.RESTR.norm>
0

>  <SCORE.SYSTEM>
0

>  <SCORE.SYSTEM.CONST>
0

>  <SCORE.SYSTEM.DIHEDRAL>
0

>  <SCORE.SYSTEM.SOLV>
0

>  <SCORE.SYSTEM.norm>
0

>  <SCORE.heavy>
11

>  <SCORE.norm>
-1.01233

>  <RMSD>
0.489

$$$$
ligand
 OpenBabel11021811493D
libRbt.so/2013.1/901 2013/11/27
 11 12  0  0  0  0  0  0  0  0999 V2000
   12.4654   11.6505    8.8329 N   0  0  0  0  0  0  0  0  0  0  0  0
   11.9755   12.8842    9.0534 C   0  0  0  0  0  0  0  0  0  0  0  0
   12.0617   13.4326   10.3250 N   0  0  0  0  0  0  0  0  0  0  0  0
   11.4031   13.5973    8.0707 N   0  0  0  0  0  0  0  0  0  0  0  0
   11.2907   13.1067    6.8262 C   0  0  0  0  0  0  0  0  0  0  0  0
   11.7892   11.8161    6.5389 C   0  0  0  0  0  0  0  0  0  0  0  0
   12.3963   11.0859    7.6083 C   0  0  0  0  0  0  0  0  0  0  0  0
   12.9035    9.8266    7.4001 N   0  0  0  0  0  0  0  0  0  0  0  0
   11.5452   11.5739    5.2192 N   0  0  0  0  0  0  0  0  0  0  0  0
   10.9446   12.6023    4.7000 C   0  0  0  0  0  0  0  0  0  0  0  0
   10.7662   13.5779    5.6480 N   0  0  0  0  0  0  0  0  0  0  0  0
  1  7  2  0  0  0  0
  1  2  1  0  0  0  0
  2  3  1  0  0  0  0
  2  4  2  0  0  0  0
  4  5  1  0  0  0  0
  5  6  2  0  0  0  0
  5 11  1  0  0  0  0
  6  7  1  0  0  0  0
  6  9  1  0  0  0  0
  7  8  1  0  0  0  0
  9 10  1  0  0  0  0
 10 11  2  0  0  0  0
M  END
>  <CHROM.1>
11.78323217,12.28586590,7.31702060,-1.05872489,1.09249326,-2.10563800

>  <Name>
ligand

>  <RI>
0

>  <Rbt.Current_Directory>
/home/itssahil/PROJECTS/Mol_Feturizer/New_Systems/rnas/4FEO

>  <Rbt.Executable>
rbdock ($Id: //depot/dev/client3/rdock/2013.1/src/exe/rbdock.cxx#4 $)

>  <Rbt.Library>
libRbt.so (2013.1, Build901 2013/11/27)

>  <Rbt.Parameter_File>
/export/apps/rDock/src/rDock_2013.1_src/data/scripts/dock_solv.prm

>  <Rbt.Receptor>
prm/blind_docking_80.prm

>  <SCORE>
-11.1352

>  <SCORE.INTER>
-11.1352

>  <SCORE.INTER.CONST>
1

>  <SCORE.INTER.POLAR>
0

>  <SCORE.INTER.ROT>
0

>  <SCORE.INTER.SOLV>
18.2828

>  <SCORE.INTER.VDW>
-17.1177

>  <SCORE.INTER.norm>
-1.01229

>  <SCORE.INTRA>
0

>  <SCORE.INTRA.DIHEDRAL>
0

>  <SCORE.INTRA.DIHEDRAL.0>
0

>  <SCORE.INTRA.POLAR>
0

>  <SCORE.INTRA.POLAR.0>
0

>  <SCORE.INTRA.REPUL>
0

>  <SCORE.INTRA.REPUL.0>
0

>  <SCORE.INTRA.SOLV>
0

>  <SCORE.INTRA.SOLV.lig_0>
-48.9252

>  <SCORE.INTRA.VDW>
0

>  <SCORE.INTRA.VDW.0>
0

>  <SCORE.INTRA.norm>
0

>  <SCORE.RESTR>
0

>  <SCORE.RESTR.CAVITY>
0

>  <SCORE.RESTR.norm>
0

>  <SCORE.SYSTEM>
0

>  <SCORE.SYSTEM.CONST>
0

>  <SCORE.SYSTEM.DIHEDRAL>
0

>  <SCORE.SYSTEM.SOLV>
0

>  <SCORE.SYSTEM.norm>
0

>  <SCORE.heavy>
11

>  <SCORE.norm>
-1.01229

>  <RMSD>
0.489

$$$$
ligand
 OpenBabel11021811493D
libRbt.so/2013.1/901 2013/11/27
 11 12  0  0  0  0  0  0  0  0999 V2000
   12.4445   11.6403    8.8301 N   0  0  0  0  0  0  0  0  0  0  0  0
   11.9683   12.8795    9.0502 C   0  0  0  0  0  0  0  0  0  0  0  0
   12.0577   13.4261   10.3223 N   0  0  0  0  0  0  0  0  0  0  0  0
   11.4066   13.5997    8.0665 N   0  0  0  0  0  0  0  0  0  0  0  0
   11.2916   13.1111    6.8214 C   0  0  0  0  0  0  0  0  0  0  0  0
   11.7760   11.8150    6.5346 C   0  0  0  0  0  0  0  0  0  0  0  0
   12.3720   11.0773    7.6050 C   0  0  0  0  0  0  0  0  0  0  0  0
   12.8651    9.8123    7.3973 N   0  0  0  0  0  0  0  0  0  0  0  0
   11.5325   11.5765    5.2141 N   0  0  0  0  0  0  0  0  0  0  0  0
   10.9450   12.6121    4.6941 C   0  0  0  0  0  0  0  0  0  0  0  0
   10.7755   13.5891    5.6422 N   0  0  0  0  0  0  0  0  0  0  0  0
  1  7  2  0  0  0  0
  1  2  1  0  0  0  0
  2  3  1  0  0  0  0
  2  4  2  0  0  0  0
  4  5  1  0  0  0  0
  5  6  2  0  0  0  0
  5 11  1  0  0  0  0
  6  7  1  0  0  0  0
  6  9  1  0  0  0  0
  7  8  1  0  0  0  0
  9 10  1  0  0  0  0
 10 11  2  0  0  0  0
M  END
>  <CHROM.1>
11.77345243,12.28441704,7.31298369,-1.05041819,1.10365284,-2.11242626

>  <Name>
ligand

>  <RI>
0

>  <Rbt.Current_Directory>
/home/itssahil/PROJECTS/Mol_Feturizer/New_Systems/rnas/4FEO

>  <Rbt.Executable>
rbdock ($Id: //depot/dev/client3/rdock/2013.1/src/exe/rbdock.cxx#4 $)

>  <Rbt.Library>
libRbt.so (2013.1, Build901 2013/11/27)

>  <Rbt.Parameter_File>
/export/apps/rDock/src/rDock_2013.1_src/data/scripts/dock_solv.prm

>  <Rbt.Receptor>
prm/pocket_docking_5.prm

>  <SCORE>
-11.1329

>  <SCORE.INTER>
-11.1329

>  <SCORE.INTER.CONST>
1

>  <SCORE.INTER.POLAR>
0

>  <SCORE.INTER.ROT>
0

>  <SCORE.INTER.SOLV>
18.3969

>  <SCORE.INTER.VDW>
-17.1542

>  <SCORE.INTER.norm>
-1.01208

>  <SCORE.INTRA>
0

>  <SCORE.INTRA.DIHEDRAL>
0

>  <SCORE.INTRA.DIHEDRAL.0>
0

>  <SCORE.INTRA.POLAR>
0

>  <SCORE.INTRA.POLAR.0>
0

>  <SCORE.INTRA.REPUL>
0

>  <SCORE.INTRA.REPUL.0>
0

>  <SCORE.INTRA.SOLV>
0

>  <SCORE.INTRA.SOLV.lig_0>
-48.9252

>  <SCORE.INTRA.VDW>
0

>  <SCORE.INTRA.VDW.0>
0

>  <SCORE.INTRA.norm>
0

>  <SCORE.RESTR>
0

>  <SCORE.RESTR.CAVITY>
0

>  <SCORE.RESTR.norm>
0

>  <SCORE.SYSTEM>
0

>  <SCORE.SYSTEM.CONST>
0

>  <SCORE.SYSTEM.DIHEDRAL>
0

>  <SCORE.SYSTEM.SOLV>
0

>  <SCORE.SYSTEM.norm>
0

>  <SCORE.heavy>
11

>  <SCORE.norm>
-1.01208

>  <RMSD>
0.489

$$$$
ligand
 OpenBabel11021811493D
libRbt.so/2013.1/901 2013/11/27
 11 12  0  0  0  0  0  0  0  0999 V2000
   12.4640   11.6486    8.8312 N   0  0  0  0  0  0  0  0  0  0  0  0
   11.9743   12.8824    9.0515 C   0  0  0  0  0  0  0  0  0  0  0  0
   12.0593   13.4304   10.3233 N   0  0  0  0  0  0  0  0  0  0  0  0
   11.4031   13.5960    8.0683 N   0  0  0  0  0  0  0  0  0  0  0  0
   11.2919   13.1056    6.8236 C   0  0  0  0  0  0  0  0  0  0  0  0
   11.7904   11.8149    6.5365 C   0  0  0  0  0  0  0  0  0  0  0  0
   12.3961   11.0843    7.6064 C   0  0  0  0  0  0  0  0  0  0  0  0
   12.9031    9.8249    7.3984 N   0  0  0  0  0  0  0  0  0  0  0  0
   11.5478   11.5732    5.2165 N   0  0  0  0  0  0  0  0  0  0  0  0
   10.9480   12.6019    4.6969 C   0  0  0  0  0  0  0  0  0  0  0  0
   10.7689   13.5774    5.6449 N   0  0  0  0  0  0  0  0  0  0  0  0
  1  7  2  0  0  0  0
  1  2  1  0  0  0  0
  2  3  1  0  0  0  0
  2  4  2  0  0  0  0
  4  5  1  0  0  0  0
  5  6  2  0  0  0  0
  5 11  1  0  0  0  0
  6  7  1  0  0  0  0
  6  9  1  0  0  0  0
  7  8  1  0  0  0  0
  9 10  1  0  0  0  0
 10 11  2  0  0  0  0
M  END
>  <CHROM.1>
11.78369678,12.28456160,7.31477106,-1.06040919,1.09331632,-2.10389349

>  <Name>
ligand

>  <RI>
0

>  <Rbt.Current_Directory>
/home/itssahil/PROJECTS/Mol_Feturizer/New_Systems/rnas/4FEO

>  <Rbt.Executable>
rbdock ($Id: //depot/dev/client3/rdock/2013.1/src/exe/rbdock.cxx#4 $)

>  <Rbt.Library>
libRbt.so (2013.1, Build901 2013/11/27)

>  <Rbt.Parameter_File>
/export/apps/rDock/src/rDock_2013.1_src/data/scripts/dock_solv.prm

>  <Rbt.Receptor>
prm/pocket_docking_8.prm

>  <SCORE>
-11.135

>  <SCORE.INTER>
-11.135

>  <SCORE.INTER.CONST>
1

>  <SCORE.INTER.POLAR>
0

>  <SCORE.INTER.ROT>
0

>  <SCORE.INTER.SOLV>
18.2849

>  <SCORE.INTER.VDW>
-17.1183

>  <SCORE.INTER.norm>
-1.01227

>  <SCORE.INTRA>
0

>  <SCORE.INTRA.DIHEDRAL>
0

>  <SCORE.INTRA.DIHEDRAL.0>
0

>  <SCORE.INTRA.POLAR>
0

>  <SCORE.INTRA.POLAR.0>
0

>  <SCORE.INTRA.REPUL>
0

>  <SCORE.INTRA.REPUL.0>
0

>  <SCORE.INTRA.SOLV>
0

>  <SCORE.INTRA.SOLV.lig_0>
-48.9252

>  <SCORE.INTRA.VDW>
0

>  <SCORE.INTRA.VDW.0>
0

>  <SCORE.INTRA.norm>
0

>  <SCORE.RESTR>
0

>  <SCORE.RESTR.CAVITY>
0

>  <SCORE.RESTR.norm>
0

>  <SCORE.SYSTEM>
0

>  <SCORE.SYSTEM.CONST>
0

>  <SCORE.SYSTEM.DIHEDRAL>
0

>  <SCORE.SYSTEM.SOLV>
0

>  <SCORE.SYSTEM.norm>
0

>  <SCORE.heavy>
11

>  <SCORE.norm>
-1.01227

>  <RMSD>
0.490

$$$$
ligand
 OpenBabel11021811493D
libRbt.so/2013.1/901 2013/11/27
 11 12  0  0  0  0  0  0  0  0999 V2000
   12.4598   11.6478    8.8318 N   0  0  0  0  0  0  0  0  0  0  0  0
   11.9747   12.8838    9.0498 C   0  0  0  0  0  0  0  0  0  0  0  0
   12.0597   13.4330   10.3211 N   0  0  0  0  0  0  0  0  0  0  0  0
   11.4081   13.5985    8.0648 N   0  0  0  0  0  0  0  0  0  0  0  0
   11.2971   13.1072    6.8205 C   0  0  0  0  0  0  0  0  0  0  0  0
   11.7908   11.8142    6.5358 C   0  0  0  0  0  0  0  0  0  0  0  0
   12.3917   11.0824    7.6075 C   0  0  0  0  0  0  0  0  0  0  0  0
   12.8940    9.8207    7.4019 N   0  0  0  0  0  0  0  0  0  0  0  0
   11.5495   11.5720    5.2156 N   0  0  0  0  0  0  0  0  0  0  0  0
   10.9548   12.6025    4.6938 C   0  0  0  0  0  0  0  0  0  0  0  0
   10.7780   13.5797    5.6404 N   0  0  0  0  0  0  0  0  0  0  0  0
  1  7  2  0  0  0  0
  1  2  1  0  0  0  0
  2  3  1  0  0  0  0
  2  4  2  0  0  0  0
  4  5  1  0  0  0  0
  5  6  2  0  0  0  0
  5 11  1  0  0  0  0
  6  7  1  0  0  0  0
  6  9  1  0  0  0  0
  7  8  1  0  0  0  0
  9 10  1  0  0  0  0
 10 11  2  0  0  0  0
M  END
>  <CHROM.1>
11.78467151,12.28475593,7.31344412,-1.05915315,1.09767506,-2.10615509

>  <Name>
ligand

>  <RI>
0

>  <Rbt.Current_Directory>
/home/itssahil/PROJECTS/Mol_Feturizer/New_Systems/rnas/4FEO

>  <Rbt.Executable>
rbdock ($Id: //depot/dev/client3/rdock/2013.1/src/exe/rbdock.cxx#4 $)

>  <Rbt.Library>
libRbt.so (2013.1, Build901 2013/11/27)

>  <Rbt.Parameter_File>
/export/apps/rDock/src/rDock_2013.1_src/data/scripts/dock_solv.prm

>  <Rbt.Receptor>
prm/pocket_docking_5.prm

>  <SCORE>
-11.1313

>  <SCORE.INTER>
-11.1313

>  <SCORE.INTER.CONST>
1

>  <SCORE.INTER.POLAR>
0

>  <SCORE.INTER.ROT>
0

>  <SCORE.INTER.SOLV>
18.3212

>  <SCORE.INTER.VDW>
-17.1279

>  <SCORE.INTER.norm>
-1.01193

>  <SCORE.INTRA>
0

>  <SCORE.INTRA.DIHEDRAL>
0

>  <SCORE.INTRA.DIHEDRAL.0>
0

>  <SCORE.INTRA.POLAR>
0

>  <SCORE.INTRA.POLAR.0>
0

>  <SCORE.INTRA.REPUL>
0

>  <SCORE.INTRA.REPUL.0>
0

>  <SCORE.INTRA.SOLV>
0

>  <SCORE.INTRA.SOLV.lig_0>
-48.9252

>  <SCORE.INTRA.VDW>
0

>  <SCORE.INTRA.VDW.0>
0

>  <SCORE.INTRA.norm>
0

>  <SCORE.RESTR>
0

>  <SCORE.RESTR.CAVITY>
0

>  <SCORE.RESTR.norm>
0

>  <SCORE.SYSTEM>
0

>  <SCORE.SYSTEM.CONST>
0

>  <SCORE.SYSTEM.DIHEDRAL>
0

>  <SCORE.SYSTEM.SOLV>
0

>  <SCORE.SYSTEM.norm>
0

>  <SCORE.heavy>
11

>  <SCORE.norm>
-1.01193

>  <RMSD>
0.491

$$$$
ligand
 OpenBabel11021811493D
libRbt.so/2013.1/901 2013/11/27
 11 12  0  0  0  0  0  0  0  0999 V2000
   12.4543   11.5499    8.8241 N   0  0  0  0  0  0  0  0  0  0  0  0
   11.9985   12.7912    9.0735 C   0  0  0  0  0  0  0  0  0  0  0  0
   12.1057   13.3098   10.3559 N   0  0  0  0  0  0  0  0  0  0  0  0
   11.4403   13.5400    8.1093 N   0  0  0  0  0  0  0  0  0  0  0  0
   11.3087   13.0792    6.8553 C   0  0  0  0  0  0  0  0  0  0  0  0
   11.7713   11.7823    6.5380 C   0  0  0  0  0  0  0  0  0  0  0  0
   12.3642   11.0136    7.5882 C   0  0  0  0  0  0  0  0  0  0  0  0
   12.8367    9.7461    7.3505 N   0  0  0  0  0  0  0  0  0  0  0  0
   11.5144   11.5749    5.2147 N   0  0  0  0  0  0  0  0  0  0  0  0
   10.9386   12.6297    4.7209 C   0  0  0  0  0  0  0  0  0  0  0  0
   10.7910   13.5892    5.6903 N   0  0  0  0  0  0  0  0  0  0  0  0
  1  7  2  0  0  0  0
  1  2  1  0  0  0  0
  2  3  1  0  0  0  0
  2  4  2  0  0  0  0
  4  5  1  0  0  0  0
  5  6  2  0  0  0  0
  5 11  1  0  0  0  0
  6  7  1  0  0  0  0
  6  9  1  0  0  0  0
  7  8  1  0  0  0  0
  9 10  1  0  0  0  0
 10 11  2  0  0  0  0
M  END
>  <CHROM.1>
11.78171302,12.23535529,7.32588463,-1.01835247,1.11247424,-2.12037296

>  <Name>
ligand

>  <RI>
0

>  <Rbt.Current_Directory>
/home/itssahil/PROJECTS/Mol_Feturizer/New_Systems/rnas/4FEO

>  <Rbt.Executable>
rbdock ($Id: //depot/dev/client3/rdock/2013.1/src/exe/rbdock.cxx#4 $)

>  <Rbt.Library>
libRbt.so (2013.1, Build901 2013/11/27)

>  <Rbt.Parameter_File>
/export/apps/rDock/src/rDock_2013.1_src/data/scripts/dock_solv.prm

>  <Rbt.Receptor>
prm/pocket_docking_3.prm

>  <SCORE>
-11.055

>  <SCORE.INTER>
-11.055

>  <SCORE.INTER.CONST>
1

>  <SCORE.INTER.POLAR>
0

>  <SCORE.INTER.ROT>
0

>  <SCORE.INTER.SOLV>
18.3153

>  <SCORE.INTER.VDW>
-17.0751

>  <SCORE.INTER.norm>
-1.005

>  <SCORE.INTRA>
0

>  <SCORE.INTRA.DIHEDRAL>
0

>  <SCORE.INTRA.DIHEDRAL.0>
0

>  <SCORE.INTRA.POLAR>
0

>  <SCORE.INTRA.POLAR.0>
0

>  <SCORE.INTRA.REPUL>
0

>  <SCORE.INTRA.REPUL.0>
0

>  <SCORE.INTRA.SOLV>
0

>  <SCORE.INTRA.SOLV.lig_0>
-48.9252

>  <SCORE.INTRA.VDW>
0

>  <SCORE.INTRA.VDW.0>
0

>  <SCORE.INTRA.norm>
0

>  <SCORE.RESTR>
0

>  <SCORE.RESTR.CAVITY>
0

>  <SCORE.RESTR.norm>
0

>  <SCORE.SYSTEM>
0

>  <SCORE.SYSTEM.CONST>
0

>  <SCORE.SYSTEM.DIHEDRAL>
0

>  <SCORE.SYSTEM.SOLV>
0

>  <SCORE.SYSTEM.norm>
0

>  <SCORE.heavy>
11

>  <SCORE.norm>
-1.005

>  <RMSD>
0.492

$$$$
ligand
 OpenBabel11021811493D
libRbt.so/2013.1/901 2013/11/27
 11 12  0  0  0  0  0  0  0  0999 V2000
   12.4969   11.6681    8.8381 N   0  0  0  0  0  0  0  0  0  0  0  0
   11.9830   12.8921    9.0583 C   0  0  0  0  0  0  0  0  0  0  0  0
   12.0583   13.4422   10.3298 N   0  0  0  0  0  0  0  0  0  0  0  0
   11.3971   13.5937    8.0753 N   0  0  0  0  0  0  0  0  0  0  0  0
   11.2946   13.1008    6.8309 C   0  0  0  0  0  0  0  0  0  0  0  0
   11.8182   11.8201    6.5440 C   0  0  0  0  0  0  0  0  0  0  0  0
   12.4392   11.1020    7.6136 C   0  0  0  0  0  0  0  0  0  0  0  0
   12.9709    9.8528    7.4058 N   0  0  0  0  0  0  0  0  0  0  0  0
   11.5793   11.5730    5.2242 N   0  0  0  0  0  0  0  0  0  0  0  0
   10.9589   12.5894    4.7047 C   0  0  0  0  0  0  0  0  0  0  0  0
   10.7613   13.5615    5.6525 N   0  0  0  0  0  0  0  0  0  0  0  0
  1  7  2  0  0  0  0
  1  2  1  0  0  0  0
  2  3  1  0  0  0  0
  2  4  2  0  0  0  0
  4  5  1  0  0  0  0
  5  6  2  0  0  0  0
  5 11  1  0  0  0  0
  6  7  1  0  0  0  0
  6  9  1  0  0  0  0
  7  8  1  0  0  0  0
  9 10  1  0  0  0  0
 10 11  2  0  0  0  0
M  END
>  <CHROM.1>
11.80288879,12.28980172,7.32200156,-1.08008031,1.07575533,-2.08693831

>  <Name>
ligand

>  <RI>
0

>  <Rbt.Current_Directory>
/home/itssahil/PROJECTS/Mol_Feturizer/New_Systems/rnas/4FEO

>  <Rbt.Executable>
rbdock ($Id: //depot/dev/client3/rdock/2013.1/src/exe/rbdock.cxx#4 $)

>  <Rbt.Library>
libRbt.so (2013.1, Build901 2013/11/27)

>  <Rbt.Parameter_File>
/export/apps/rDock/src/rDock_2013.1_src/data/scripts/dock_solv.prm

>  <Rbt.Receptor>
prm/pocket_docking_3.prm

>  <SCORE>
-11.1367

>  <SCORE.INTER>
-11.1367

>  <SCORE.INTER.CONST>
1

>  <SCORE.INTER.POLAR>
0

>  <SCORE.INTER.ROT>
0

>  <SCORE.INTER.SOLV>
18.0927

>  <SCORE.INTER.VDW>
-17.0554

>  <SCORE.INTER.norm>
-1.01243

>  <SCORE.INTRA>
0

>  <SCORE.INTRA.DIHEDRAL>
0

>  <SCORE.INTRA.DIHEDRAL.0>
0

>  <SCORE.INTRA.POLAR>
0

>  <SCORE.INTRA.POLAR.0>
0

>  <SCORE.INTRA.REPUL>
0

>  <SCORE.INTRA.REPUL.0>
0

>  <SCORE.INTRA.SOLV>
0

>  <SCORE.INTRA.SOLV.lig_0>
-48.9252

>  <SCORE.INTRA.VDW>
0

>  <SCORE.INTRA.VDW.0>
0

>  <SCORE.INTRA.norm>
0

>  <SCORE.RESTR>
0

>  <SCORE.RESTR.CAVITY>
0

>  <SCORE.RESTR.norm>
0

>  <SCORE.SYSTEM>
0

>  <SCORE.SYSTEM.CONST>
0

>  <SCORE.SYSTEM.DIHEDRAL>
0

>  <SCORE.SYSTEM.SOLV>
0

>  <SCORE.SYSTEM.norm>
0

>  <SCORE.heavy>
11

>  <SCORE.norm>
-1.01243

>  <RMSD>
0.492

$$$$
ligand
 OpenBabel11021811493D
libRbt.so/2013.1/901 2013/11/27
 11 12  0  0  0  0  0  0  0  0999 V2000
   12.4922   11.6657    8.8313 N   0  0  0  0  0  0  0  0  0  0  0  0
   11.9817   12.8901    9.0570 C   0  0  0  0  0  0  0  0  0  0  0  0
   12.0682   13.4389   10.3284 N   0  0  0  0  0  0  0  0  0  0  0  0
   11.3884   13.5935    8.0797 N   0  0  0  0  0  0  0  0  0  0  0  0
   11.2749   13.1020    6.8357 C   0  0  0  0  0  0  0  0  0  0  0  0
   11.7946   11.8209    6.5431 C   0  0  0  0  0  0  0  0  0  0  0  0
   12.4236   11.1010    7.6067 C   0  0  0  0  0  0  0  0  0  0  0  0
   12.9520    9.8514    7.3932 N   0  0  0  0  0  0  0  0  0  0  0  0
   11.5444   11.5755    5.2251 N   0  0  0  0  0  0  0  0  0  0  0  0
   10.9209   12.5932    4.7118 C   0  0  0  0  0  0  0  0  0  0  0  0
   10.7324   13.5646    5.6622 N   0  0  0  0  0  0  0  0  0  0  0  0
  1  7  2  0  0  0  0
  1  2  1  0  0  0  0
  2  3  1  0  0  0  0
  2  4  2  0  0  0  0
  4  5  1  0  0  0  0
  5  6  2  0  0  0  0
  5 11  1  0  0  0  0
  6  7  1  0  0  0  0
  6  9  1  0  0  0  0
  7  8  1  0  0  0  0
  9 10  1  0  0  0  0
 10 11  2  0  0  0  0
M  END
>  <CHROM.1>
11.78634329,12.28987365,7.32167220,-1.06360585,1.07266238,-2.10038209

>  <Name>
ligand

>  <RI>
0

>  <Rbt.Current_Directory>
/home/itssahil/PROJECTS/Mol_Feturizer/New_Systems/rnas/4FEO

>  <Rbt.Executable>
rbdock ($Id: //depot/dev/client3/rdock/2013.1/src/exe/rbdock.cxx#4 $)

>  <Rbt.Library>
libRbt.so (2013.1, Build901 2013/11/27)

>  <Rbt.Parameter_File>
/export/apps/rDock/src/rDock_2013.1_src/data/scripts/dock_solv.prm

>  <Rbt.Receptor>
prm/pocket_docking_8.prm

>  <SCORE>
-11.1357

>  <SCORE.INTER>
-11.1357

>  <SCORE.INTER.CONST>
1

>  <SCORE.INTER.POLAR>
0

>  <SCORE.INTER.ROT>
0

>  <SCORE.INTER.SOLV>
18.1335

>  <SCORE.INTER.VDW>
-17.0683

>  <SCORE.INTER.norm>
-1.01233

>  <SCORE.INTRA>
0

>  <SCORE.INTRA.DIHEDRAL>
0

>  <SCORE.INTRA.DIHEDRAL.0>
0

>  <SCORE.INTRA.POLAR>
0

>  <SCORE.INTRA.POLAR.0>
0

>  <SCORE.INTRA.REPUL>
0

>  <SCORE.INTRA.REPUL.0>
0

>  <SCORE.INTRA.SOLV>
0

>  <SCORE.INTRA.SOLV.lig_0>
-48.9252

>  <SCORE.INTRA.VDW>
0

>  <SCORE.INTRA.VDW.0>
0

>  <SCORE.INTRA.norm>
0

>  <SCORE.RESTR>
0

>  <SCORE.RESTR.CAVITY>
0

>  <SCORE.RESTR.norm>
0

>  <SCORE.SYSTEM>
0

>  <SCORE.SYSTEM.CONST>
0

>  <SCORE.SYSTEM.DIHEDRAL>
0

>  <SCORE.SYSTEM.SOLV>
0

>  <SCORE.SYSTEM.norm>
0

>  <SCORE.heavy>
11

>  <SCORE.norm>
-1.01233

>  <RMSD>
0.492

$$$$
ligand
 OpenBabel11021811493D
libRbt.so/2013.1/901 2013/11/27
 11 12  0  0  0  0  0  0  0  0999 V2000
   12.4877   11.6701    8.8258 N   0  0  0  0  0  0  0  0  0  0  0  0
   11.9670   12.8924    9.0396 C   0  0  0  0  0  0  0  0  0  0  0  0
   12.0400   13.4500   10.3079 N   0  0  0  0  0  0  0  0  0  0  0  0
   11.3765   13.5852    8.0531 N   0  0  0  0  0  0  0  0  0  0  0  0
   11.2759   13.0848    6.8115 C   0  0  0  0  0  0  0  0  0  0  0  0
   11.8067   11.8055    6.5314 C   0  0  0  0  0  0  0  0  0  0  0  0
   12.4324   11.0969    7.6045 C   0  0  0  0  0  0  0  0  0  0  0  0
   12.9710    9.8496    7.4033 N   0  0  0  0  0  0  0  0  0  0  0  0
   11.5683   11.5497    5.2131 N   0  0  0  0  0  0  0  0  0  0  0  0
   10.9418   12.5597    4.6884 C   0  0  0  0  0  0  0  0  0  0  0  0
   10.7393   13.5359    5.6309 N   0  0  0  0  0  0  0  0  0  0  0  0
  1  7  2  0  0  0  0
  1  2  1  0  0  0  0
  2  3  1  0  0  0  0
  2  4  2  0  0  0  0
  4  5  1  0  0  0  0
  5  6  2  0  0  0  0
  5 11  1  0  0  0  0
  6  7  1  0  0  0  0
  6  9  1  0  0  0  0
  7  8  1  0  0  0  0
  9 10  1  0  0  0  0
 10 11  2  0  0  0  0
M  END
>  <CHROM.1>
11.78917165,12.27945086,7.30676867,-1.08472653,1.07050198,-2.08841329

>  <Name>
ligand

>  <RI>
0

>  <Rbt.Current_Directory>
/home/itssahil/PROJECTS/Mol_Feturizer/New_Systems/rnas/4FEO

>  <Rbt.Executable>
rbdock ($Id: //depot/dev/client3/rdock/2013.1/src/exe/rbdock.cxx#4 $)

>  <Rbt.Library>
libRbt.so (2013.1, Build901 2013/11/27)

>  <Rbt.Parameter_File>
/export/apps/rDock/src/rDock_2013.1_src/data/scripts/dock_solv.prm

>  <Rbt.Receptor>
prm/blind_docking_40.prm

>  <SCORE>
-11.1372

>  <SCORE.INTER>
-11.1372

>  <SCORE.INTER.CONST>
1

>  <SCORE.INTER.POLAR>
0

>  <SCORE.INTER.ROT>
0

>  <SCORE.INTER.SOLV>
18.1236

>  <SCORE.INTER.VDW>
-17.066

>  <SCORE.INTER.norm>
-1.01247

>  <SCORE.INTRA>
0

>  <SCORE.INTRA.DIHEDRAL>
0

>  <SCORE.INTRA.DIHEDRAL.0>
0

>  <SCORE.INTRA.POLAR>
0

>  <SCORE.INTRA.POLAR.0>
0

>  <SCORE.INTRA.REPUL>
0

>  <SCORE.INTRA.REPUL.0>
0

>  <SCORE.INTRA.SOLV>
0

>  <SCORE.INTRA.SOLV.lig_0>
-48.9252

>  <SCORE.INTRA.VDW>
0

>  <SCORE.INTRA.VDW.0>
0

>  <SCORE.INTRA.norm>
0

>  <SCORE.RESTR>
0

>  <SCORE.RESTR.CAVITY>
0

>  <SCORE.RESTR.norm>
0

>  <SCORE.SYSTEM>
0

>  <SCORE.SYSTEM.CONST>
0

>  <SCORE.SYSTEM.DIHEDRAL>
0

>  <SCORE.SYSTEM.SOLV>
0

>  <SCORE.SYSTEM.norm>
0

>  <SCORE.heavy>
11

>  <SCORE.norm>
-1.01247

>  <RMSD>
0.495

$$$$
ligand
 OpenBabel11021811493D
libRbt.so/2013.1/901 2013/11/27
 11 12  0  0  0  0  0  0  0  0999 V2000
   12.5140   11.7001    8.8369 N   0  0  0  0  0  0  0  0  0  0  0  0
   11.9648   12.9052    9.0750 C   0  0  0  0  0  0  0  0  0  0  0  0
   12.0350   13.4440   10.3517 N   0  0  0  0  0  0  0  0  0  0  0  0
   11.3483   13.5988    8.1050 N   0  0  0  0  0  0  0  0  0  0  0  0
   11.2493   13.1161    6.8563 C   0  0  0  0  0  0  0  0  0  0  0  0
   11.8094   11.8553    6.5508 C   0  0  0  0  0  0  0  0  0  0  0  0
   12.4622   11.1455    7.6069 C   0  0  0  0  0  0  0  0  0  0  0  0
   13.0301    9.9156    7.3807 N   0  0  0  0  0  0  0  0  0  0  0  0
   11.5658   11.6149    5.2306 N   0  0  0  0  0  0  0  0  0  0  0  0
   10.9095   12.6171    4.7278 C   0  0  0  0  0  0  0  0  0  0  0  0
   10.6910   13.5726    5.6879 N   0  0  0  0  0  0  0  0  0  0  0  0
  1  7  2  0  0  0  0
  1  2  1  0  0  0  0
  2  3  1  0  0  0  0
  2  4  2  0  0  0  0
  4  5  1  0  0  0  0
  5  6  2  0  0  0  0
  5 11  1  0  0  0  0
  6  7  1  0  0  0  0
  6  9  1  0  0  0  0
  7  8  1  0  0  0  0
  9 10  1  0  0  0  0
 10 11  2  0  0  0  0
M  END
>  <CHROM.1>
11.78695471,12.31607461,7.33397323,-1.09403064,1.04429096,-2.06406218

>  <Name>
ligand

>  <RI>
0

>  <Rbt.Current_Directory>
/home/itssahil/PROJECTS/Mol_Feturizer/New_Systems/rnas/4FEO

>  <Rbt.Executable>
rbdock ($Id: //depot/dev/client3/rdock/2013.1/src/exe/rbdock.cxx#4 $)

>  <Rbt.Library>
libRbt.so (2013.1, Build901 2013/11/27)

>  <Rbt.Parameter_File>
/export/apps/rDock/src/rDock_2013.1_src/data/scripts/dock_solv.prm

>  <Rbt.Receptor>
prm/pocket_docking_3.prm

>  <SCORE>
-11.0974

>  <SCORE.INTER>
-11.0974

>  <SCORE.INTER.CONST>
1

>  <SCORE.INTER.POLAR>
0

>  <SCORE.INTER.ROT>
0

>  <SCORE.INTER.SOLV>
17.9195

>  <SCORE.INTER.VDW>
-16.9714

>  <SCORE.INTER.norm>
-1.00885

>  <SCORE.INTRA>
0

>  <SCORE.INTRA.DIHEDRAL>
0

>  <SCORE.INTRA.DIHEDRAL.0>
0

>  <SCORE.INTRA.POLAR>
0

>  <SCORE.INTRA.POLAR.0>
0

>  <SCORE.INTRA.REPUL>
0

>  <SCORE.INTRA.REPUL.0>
0

>  <SCORE.INTRA.SOLV>
0

>  <SCORE.INTRA.SOLV.lig_0>
-48.9252

>  <SCORE.INTRA.VDW>
0

>  <SCORE.INTRA.VDW.0>
0

>  <SCORE.INTRA.norm>
0

>  <SCORE.RESTR>
0

>  <SCORE.RESTR.CAVITY>
0

>  <SCORE.RESTR.norm>
0

>  <SCORE.SYSTEM>
0

>  <SCORE.SYSTEM.CONST>
0

>  <SCORE.SYSTEM.DIHEDRAL>
0

>  <SCORE.SYSTEM.SOLV>
0

>  <SCORE.SYSTEM.norm>
0

>  <SCORE.heavy>
11

>  <SCORE.norm>
-1.00885

>  <RMSD>
0.495

$$$$
ligand
 OpenBabel11021811493D
libRbt.so/2013.1/901 2013/11/27
 11 12  0  0  0  0  0  0  0  0999 V2000
   12.5009   11.6687    8.8347 N   0  0  0  0  0  0  0  0  0  0  0  0
   11.9892   12.8938    9.0537 C   0  0  0  0  0  0  0  0  0  0  0  0
   12.0683   13.4464   10.3239 N   0  0  0  0  0  0  0  0  0  0  0  0
   11.4018   13.5944    8.0708 N   0  0  0  0  0  0  0  0  0  0  0  0
   11.2957   13.0991    6.8276 C   0  0  0  0  0  0  0  0  0  0  0  0
   11.8169   11.8171    6.5419 C   0  0  0  0  0  0  0  0  0  0  0  0
   12.4394   11.1003    7.6114 C   0  0  0  0  0  0  0  0  0  0  0  0
   12.9689    9.8500    7.4048 N   0  0  0  0  0  0  0  0  0  0  0  0
   11.5744   11.5678    5.2232 N   0  0  0  0  0  0  0  0  0  0  0  0
   10.9541   12.5840    4.7032 C   0  0  0  0  0  0  0  0  0  0  0  0
   10.7601   13.5582    5.6495 N   0  0  0  0  0  0  0  0  0  0  0  0
  1  7  2  0  0  0  0
  1  2  1  0  0  0  0
  2  3  1  0  0  0  0
  2  4  2  0  0  0  0
  4  5  1  0  0  0  0
  5  6  2  0  0  0  0
  5 11  1  0  0  0  0
  6  7  1  0  0  0  0
  6  9  1  0  0  0  0
  7  8  1  0  0  0  0
  9 10  1  0  0  0  0
 10 11  2  0  0  0  0
M  END
>  <CHROM.1>
11.80406228,12.28838913,7.31904345,-1.07421743,1.07574266,-2.09406804

>  <Name>
ligand

>  <RI>
0

>  <Rbt.Current_Directory>
/home/itssahil/PROJECTS/Mol_Feturizer/New_Systems/rnas/4FEO

>  <Rbt.Executable>
rbdock ($Id: //depot/dev/client3/rdock/2013.1/src/exe/rbdock.cxx#4 $)

>  <Rbt.Library>
libRbt.so (2013.1, Build901 2013/11/27)

>  <Rbt.Parameter_File>
/export/apps/rDock/src/rDock_2013.1_src/data/scripts/dock_solv.prm

>  <Rbt.Receptor>
prm/pocket_docking_4.prm

>  <SCORE>
-11.1642

>  <SCORE.INTER>
-11.1642

>  <SCORE.INTER.CONST>
1

>  <SCORE.INTER.POLAR>
0

>  <SCORE.INTER.ROT>
0

>  <SCORE.INTER.SOLV>
18.1077

>  <SCORE.INTER.VDW>
-17.0787

>  <SCORE.INTER.norm>
-1.01492

>  <SCORE.INTRA>
0

>  <SCORE.INTRA.DIHEDRAL>
0

>  <SCORE.INTRA.DIHEDRAL.0>
0

>  <SCORE.INTRA.POLAR>
0

>  <SCORE.INTRA.POLAR.0>
0

>  <SCORE.INTRA.REPUL>
0

>  <SCORE.INTRA.REPUL.0>
0

>  <SCORE.INTRA.SOLV>
0

>  <SCORE.INTRA.SOLV.lig_0>
-48.9252

>  <SCORE.INTRA.VDW>
0

>  <SCORE.INTRA.VDW.0>
0

>  <SCORE.INTRA.norm>
0

>  <SCORE.RESTR>
0

>  <SCORE.RESTR.CAVITY>
0

>  <SCORE.RESTR.norm>
0

>  <SCORE.SYSTEM>
0

>  <SCORE.SYSTEM.CONST>
0

>  <SCORE.SYSTEM.DIHEDRAL>
0

>  <SCORE.SYSTEM.SOLV>
0

>  <SCORE.SYSTEM.norm>
0

>  <SCORE.heavy>
11

>  <SCORE.norm>
-1.01492

>  <RMSD>
0.495

$$$$
ligand
 OpenBabel11021811493D
libRbt.so/2013.1/901 2013/11/27
 11 12  0  0  0  0  0  0  0  0999 V2000
   12.4998   11.6646    8.8269 N   0  0  0  0  0  0  0  0  0  0  0  0
   11.9748   12.8845    9.0436 C   0  0  0  0  0  0  0  0  0  0  0  0
   12.0477   13.4403   10.3128 N   0  0  0  0  0  0  0  0  0  0  0  0
   11.3799   13.5768    8.0593 N   0  0  0  0  0  0  0  0  0  0  0  0
   11.2792   13.0780    6.8170 C   0  0  0  0  0  0  0  0  0  0  0  0
   11.8143   11.8012    6.5338 C   0  0  0  0  0  0  0  0  0  0  0  0
   12.4446   11.0933    7.6047 C   0  0  0  0  0  0  0  0  0  0  0  0
   12.9877    9.8484    7.4004 N   0  0  0  0  0  0  0  0  0  0  0  0
   11.5747   11.5468    5.2156 N   0  0  0  0  0  0  0  0  0  0  0  0
   10.9434   12.5552    4.6936 C   0  0  0  0  0  0  0  0  0  0  0  0
   10.7388   13.5291    5.6381 N   0  0  0  0  0  0  0  0  0  0  0  0
  1  7  2  0  0  0  0
  1  2  1  0  0  0  0
  2  3  1  0  0  0  0
  2  4  2  0  0  0  0
  4  5  1  0  0  0  0
  5  6  2  0  0  0  0
  5 11  1  0  0  0  0
  6  7  1  0  0  0  0
  6  9  1  0  0  0  0
  7  8  1  0  0  0  0
  9 10  1  0  0  0  0
 10 11  2  0  0  0  0
M  END
>  <CHROM.1>
11.79634010,12.27382475,7.31003182,-1.08559930,1.06631890,-2.08596222

>  <Name>
ligand

>  <RI>
0

>  <Rbt.Current_Directory>
/home/itssahil/PROJECTS/Mol_Feturizer/New_Systems/rnas/4FEO

>  <Rbt.Executable>
rbdock ($Id: //depot/dev/client3/rdock/2013.1/src/exe/rbdock.cxx#4 $)

>  <Rbt.Library>
libRbt.so (2013.1, Build901 2013/11/27)

>  <Rbt.Parameter_File>
/export/apps/rDock/src/rDock_2013.1_src/data/scripts/dock_solv.prm

>  <Rbt.Receptor>
prm/pocket_docking_6.prm

>  <SCORE>
-11.138

>  <SCORE.INTER>
-11.138

>  <SCORE.INTER.CONST>
1

>  <SCORE.INTER.POLAR>
0

>  <SCORE.INTER.ROT>
0

>  <SCORE.INTER.SOLV>
18.0437

>  <SCORE.INTER.VDW>
-17.0399

>  <SCORE.INTER.norm>
-1.01255

>  <SCORE.INTRA>
0

>  <SCORE.INTRA.DIHEDRAL>
0

>  <SCORE.INTRA.DIHEDRAL.0>
0

>  <SCORE.INTRA.POLAR>
0

>  <SCORE.INTRA.POLAR.0>
0

>  <SCORE.INTRA.REPUL>
0

>  <SCORE.INTRA.REPUL.0>
0

>  <SCORE.INTRA.SOLV>
0

>  <SCORE.INTRA.SOLV.lig_0>
-48.9252

>  <SCORE.INTRA.VDW>
0

>  <SCORE.INTRA.VDW.0>
0

>  <SCORE.INTRA.norm>
0

>  <SCORE.RESTR>
0

>  <SCORE.RESTR.CAVITY>
0

>  <SCORE.RESTR.norm>
0

>  <SCORE.SYSTEM>
0

>  <SCORE.SYSTEM.CONST>
0

>  <SCORE.SYSTEM.DIHEDRAL>
0

>  <SCORE.SYSTEM.SOLV>
0

>  <SCORE.SYSTEM.norm>
0

>  <SCORE.heavy>
11

>  <SCORE.norm>
-1.01255

>  <RMSD>
0.495

$$$$
ligand
 OpenBabel11021811493D
libRbt.so/2013.1/901 2013/11/27
 11 12  0  0  0  0  0  0  0  0999 V2000
   12.4814   11.6683    8.8238 N   0  0  0  0  0  0  0  0  0  0  0  0
   11.9633   12.8914    9.0388 C   0  0  0  0  0  0  0  0  0  0  0  0
   12.0364   13.4472   10.3080 N   0  0  0  0  0  0  0  0  0  0  0  0
   11.3750   13.5869    8.0528 N   0  0  0  0  0  0  0  0  0  0  0  0
   11.2744   13.0884    6.8105 C   0  0  0  0  0  0  0  0  0  0  0  0
   11.8026   11.8083    6.5290 C   0  0  0  0  0  0  0  0  0  0  0  0
   12.4258   11.0969    7.6017 C   0  0  0  0  0  0  0  0  0  0  0  0
   12.9618    9.8487    7.3992 N   0  0  0  0  0  0  0  0  0  0  0  0
   11.5647   11.5549    5.2102 N   0  0  0  0  0  0  0  0  0  0  0  0
   10.9408   12.5670    4.6864 C   0  0  0  0  0  0  0  0  0  0  0  0
   10.7397   13.5424    5.6300 N   0  0  0  0  0  0  0  0  0  0  0  0
  1  7  2  0  0  0  0
  1  2  1  0  0  0  0
  2  3  1  0  0  0  0
  2  4  2  0  0  0  0
  4  5  1  0  0  0  0
  5  6  2  0  0  0  0
  5 11  1  0  0  0  0
  6  7  1  0  0  0  0
  6  9  1  0  0  0  0
  7  8  1  0  0  0  0
  9 10  1  0  0  0  0
 10 11  2  0  0  0  0
M  END
>  <CHROM.1>
11.78547498,12.28127026,7.30503433,-1.08392571,1.07283275,-2.08775205

>  <Name>
ligand

>  <RI>
0

>  <Rbt.Current_Directory>
/home/itssahil/PROJECTS/Mol_Feturizer/New_Systems/rnas/4FEO

>  <Rbt.Executable>
rbdock ($Id: //depot/dev/client3/rdock/2013.1/src/exe/rbdock.cxx#4 $)

>  <Rbt.Library>
libRbt.so (2013.1, Build901 2013/11/27)

>  <Rbt.Parameter_File>
/export/apps/rDock/src/rDock_2013.1_src/data/scripts/dock_solv.prm

>  <Rbt.Receptor>
prm/blind_docking_80.prm

>  <SCORE>
-11.1376

>  <SCORE.INTER>
-11.1376

>  <SCORE.INTER.CONST>
1

>  <SCORE.INTER.POLAR>
0

>  <SCORE.INTER.ROT>
0

>  <SCORE.INTER.SOLV>
18.1546

>  <SCORE.INTER.VDW>
-17.0766

>  <SCORE.INTER.norm>
-1.01251

>  <SCORE.INTRA>
0

>  <SCORE.INTRA.DIHEDRAL>
0

>  <SCORE.INTRA.DIHEDRAL.0>
0

>  <SCORE.INTRA.POLAR>
0

>  <SCORE.INTRA.POLAR.0>
0

>  <SCORE.INTRA.REPUL>
0

>  <SCORE.INTRA.REPUL.0>
0

>  <SCORE.INTRA.SOLV>
0

>  <SCORE.INTRA.SOLV.lig_0>
-48.9252

>  <SCORE.INTRA.VDW>
0

>  <SCORE.INTRA.VDW.0>
0

>  <SCORE.INTRA.norm>
0

>  <SCORE.RESTR>
0

>  <SCORE.RESTR.CAVITY>
0

>  <SCORE.RESTR.norm>
0

>  <SCORE.SYSTEM>
0

>  <SCORE.SYSTEM.CONST>
0

>  <SCORE.SYSTEM.DIHEDRAL>
0

>  <SCORE.SYSTEM.SOLV>
0

>  <SCORE.SYSTEM.norm>
0

>  <SCORE.heavy>
11

>  <SCORE.norm>
-1.01251

>  <RMSD>
0.496

$$$$
ligand
 OpenBabel11021811493D
libRbt.so/2013.1/901 2013/11/27
 11 12  0  0  0  0  0  0  0  0999 V2000
   12.4884   11.6684    8.8333 N   0  0  0  0  0  0  0  0  0  0  0  0
   11.9809   12.8953    9.0522 C   0  0  0  0  0  0  0  0  0  0  0  0
   12.0572   13.4457   10.3235 N   0  0  0  0  0  0  0  0  0  0  0  0
   11.4003   13.5997    8.0680 N   0  0  0  0  0  0  0  0  0  0  0  0
   11.2970   13.1067    6.8236 C   0  0  0  0  0  0  0  0  0  0  0  0
   11.8140   11.8231    6.5381 C   0  0  0  0  0  0  0  0  0  0  0  0
   12.4294   11.1021    7.6090 C   0  0  0  0  0  0  0  0  0  0  0  0
   12.9545    9.8499    7.4026 N   0  0  0  0  0  0  0  0  0  0  0  0
   11.5758   11.5767    5.2181 N   0  0  0  0  0  0  0  0  0  0  0  0
   10.9617   12.5962    4.6971 C   0  0  0  0  0  0  0  0  0  0  0  0
   10.7680   13.5699    5.6442 N   0  0  0  0  0  0  0  0  0  0  0  0
  1  7  2  0  0  0  0
  1  2  1  0  0  0  0
  2  3  1  0  0  0  0
  2  4  2  0  0  0  0
  4  5  1  0  0  0  0
  5  6  2  0  0  0  0
  5 11  1  0  0  0  0
  6  7  1  0  0  0  0
  6  9  1  0  0  0  0
  7  8  1  0  0  0  0
  9 10  1  0  0  0  0
 10 11  2  0  0  0  0
M  END
>  <CHROM.1>
11.80009059,12.29323645,7.31587776,-1.07714805,1.08128498,-2.08998188

>  <Name>
ligand

>  <RI>
0

>  <Rbt.Current_Directory>
/home/itssahil/PROJECTS/Mol_Feturizer/New_Systems/rnas/4FEO

>  <Rbt.Executable>
rbdock ($Id: //depot/dev/client3/rdock/2013.1/src/exe/rbdock.cxx#4 $)

>  <Rbt.Library>
libRbt.so (2013.1, Build901 2013/11/27)

>  <Rbt.Parameter_File>
/export/apps/rDock/src/rDock_2013.1_src/data/scripts/dock_solv.prm

>  <Rbt.Receptor>
prm/pocket_docking_5.prm

>  <SCORE>
-11.1653

>  <SCORE.INTER>
-11.1653

>  <SCORE.INTER.CONST>
1

>  <SCORE.INTER.POLAR>
0

>  <SCORE.INTER.ROT>
0

>  <SCORE.INTER.SOLV>
18.1618

>  <SCORE.INTER.VDW>
-17.0975

>  <SCORE.INTER.norm>
-1.01503

>  <SCORE.INTRA>
0

>  <SCORE.INTRA.DIHEDRAL>
0

>  <SCORE.INTRA.DIHEDRAL.0>
0

>  <SCORE.INTRA.POLAR>
0

>  <SCORE.INTRA.POLAR.0>
0

>  <SCORE.INTRA.REPUL>
0

>  <SCORE.INTRA.REPUL.0>
0

>  <SCORE.INTRA.SOLV>
0

>  <SCORE.INTRA.SOLV.lig_0>
-48.9252

>  <SCORE.INTRA.VDW>
0

>  <SCORE.INTRA.VDW.0>
0

>  <SCORE.INTRA.norm>
0

>  <SCORE.RESTR>
0

>  <SCORE.RESTR.CAVITY>
0

>  <SCORE.RESTR.norm>
0

>  <SCORE.SYSTEM>
0

>  <SCORE.SYSTEM.CONST>
0

>  <SCORE.SYSTEM.DIHEDRAL>
0

>  <SCORE.SYSTEM.SOLV>
0

>  <SCORE.SYSTEM.norm>
0

>  <SCORE.heavy>
11

>  <SCORE.norm>
-1.01503

>  <RMSD>
0.496

$$$$
ligand
 OpenBabel11021811493D
libRbt.so/2013.1/901 2013/11/27
 11 12  0  0  0  0  0  0  0  0999 V2000
   12.4892   11.6633    8.8287 N   0  0  0  0  0  0  0  0  0  0  0  0
   11.9796   12.8878    9.0560 C   0  0  0  0  0  0  0  0  0  0  0  0
   12.0600   13.4319   10.3298 N   0  0  0  0  0  0  0  0  0  0  0  0
   11.3930   13.5957    8.0779 N   0  0  0  0  0  0  0  0  0  0  0  0
   11.2855   13.1088    6.8315 C   0  0  0  0  0  0  0  0  0  0  0  0
   11.8046   11.8279    6.5372 C   0  0  0  0  0  0  0  0  0  0  0  0
   12.4264   11.1031    7.6018 C   0  0  0  0  0  0  0  0  0  0  0  0
   12.9538    9.8533    7.3867 N   0  0  0  0  0  0  0  0  0  0  0  0
   11.5613   11.5877    5.2170 N   0  0  0  0  0  0  0  0  0  0  0  0
   10.9424   12.6083    4.7039 C   0  0  0  0  0  0  0  0  0  0  0  0
   10.7503   13.5766    5.6567 N   0  0  0  0  0  0  0  0  0  0  0  0
  1  7  2  0  0  0  0
  1  2  1  0  0  0  0
  2  3  1  0  0  0  0
  2  4  2  0  0  0  0
  4  5  1  0  0  0  0
  5  6  2  0  0  0  0
  5 11  1  0  0  0  0
  6  7  1  0  0  0  0
  6  9  1  0  0  0  0
  7  8  1  0  0  0  0
  9 10  1  0  0  0  0
 10 11  2  0  0  0  0
M  END
>  <CHROM.1>
11.79281485,12.29411050,7.31743764,-1.07185518,1.07695416,-2.08955161

>  <Name>
ligand

>  <RI>
0

>  <Rbt.Current_Directory>
/home/itssahil/PROJECTS/Mol_Feturizer/New_Systems/rnas/4FEO

>  <Rbt.Executable>
rbdock ($Id: //depot/dev/client3/rdock/2013.1/src/exe/rbdock.cxx#4 $)

>  <Rbt.Library>
libRbt.so (2013.1, Build901 2013/11/27)

>  <Rbt.Parameter_File>
/export/apps/rDock/src/rDock_2013.1_src/data/scripts/dock_solv.prm

>  <Rbt.Receptor>
prm/blind_docking_80.prm

>  <SCORE>
-11.1357

>  <SCORE.INTER>
-11.1357

>  <SCORE.INTER.CONST>
1

>  <SCORE.INTER.POLAR>
0

>  <SCORE.INTER.ROT>
0

>  <SCORE.INTER.SOLV>
18.1348

>  <SCORE.INTER.VDW>
-17.0688

>  <SCORE.INTER.norm>
-1.01234

>  <SCORE.INTRA>
0

>  <SCORE.INTRA.DIHEDRAL>
0

>  <SCORE.INTRA.DIHEDRAL.0>
0

>  <SCORE.INTRA.POLAR>
0

>  <SCORE.INTRA.POLAR.0>
0

>  <SCORE.INTRA.REPUL>
0

>  <SCORE.INTRA.REPUL.0>
0

>  <SCORE.INTRA.SOLV>
0

>  <SCORE.INTRA.SOLV.lig_0>
-48.9252

>  <SCORE.INTRA.VDW>
0

>  <SCORE.INTRA.VDW.0>
0

>  <SCORE.INTRA.norm>
0

>  <SCORE.RESTR>
0

>  <SCORE.RESTR.CAVITY>
0

>  <SCORE.RESTR.norm>
0

>  <SCORE.SYSTEM>
0

>  <SCORE.SYSTEM.CONST>
0

>  <SCORE.SYSTEM.DIHEDRAL>
0

>  <SCORE.SYSTEM.SOLV>
0

>  <SCORE.SYSTEM.norm>
0

>  <SCORE.heavy>
11

>  <SCORE.norm>
-1.01234

>  <RMSD>
0.497

$$$$
ligand
 OpenBabel11021811493D
libRbt.so/2013.1/901 2013/11/27
 11 12  0  0  0  0  0  0  0  0999 V2000
   12.4958   11.6708    8.8303 N   0  0  0  0  0  0  0  0  0  0  0  0
   11.9882   12.8975    9.0500 C   0  0  0  0  0  0  0  0  0  0  0  0
   12.0719   13.4504   10.3198 N   0  0  0  0  0  0  0  0  0  0  0  0
   11.4004   13.5993    8.0682 N   0  0  0  0  0  0  0  0  0  0  0  0
   11.2898   13.1038    6.8255 C   0  0  0  0  0  0  0  0  0  0  0  0
   11.8067   11.8202    6.5391 C   0  0  0  0  0  0  0  0  0  0  0  0
   12.4297   11.1021    7.6075 C   0  0  0  0  0  0  0  0  0  0  0  0
   12.9551    9.8501    7.4001 N   0  0  0  0  0  0  0  0  0  0  0  0
   11.5604   11.5710    5.2211 N   0  0  0  0  0  0  0  0  0  0  0  0
   10.9417   12.5888    4.7022 C   0  0  0  0  0  0  0  0  0  0  0  0
   10.7528   13.5640    5.6486 N   0  0  0  0  0  0  0  0  0  0  0  0
  1  7  2  0  0  0  0
  1  2  1  0  0  0  0
  2  3  1  0  0  0  0
  2  4  2  0  0  0  0
  4  5  1  0  0  0  0
  5  6  2  0  0  0  0
  5 11  1  0  0  0  0
  6  7  1  0  0  0  0
  6  9  1  0  0  0  0
  7  8  1  0  0  0  0
  9 10  1  0  0  0  0
 10 11  2  0  0  0  0
M  END
>  <CHROM.1>
11.79708149,12.29186018,7.31608195,-1.06678729,1.07703881,-2.10102673

>  <Name>
ligand

>  <RI>
0

>  <Rbt.Current_Directory>
/home/itssahil/PROJECTS/Mol_Feturizer/New_Systems/rnas/4FEO

>  <Rbt.Executable>
rbdock ($Id: //depot/dev/client3/rdock/2013.1/src/exe/rbdock.cxx#4 $)

>  <Rbt.Library>
libRbt.so (2013.1, Build901 2013/11/27)

>  <Rbt.Parameter_File>
/export/apps/rDock/src/rDock_2013.1_src/data/scripts/dock_solv.prm

>  <Rbt.Receptor>
prm/pocket_docking_4.prm

>  <SCORE>
-11.1604

>  <SCORE.INTER>
-11.1604

>  <SCORE.INTER.CONST>
1

>  <SCORE.INTER.POLAR>
0

>  <SCORE.INTER.ROT>
0

>  <SCORE.INTER.SOLV>
18.1607

>  <SCORE.INTER.VDW>
-17.0938

>  <SCORE.INTER.norm>
-1.01458

>  <SCORE.INTRA>
0

>  <SCORE.INTRA.DIHEDRAL>
0

>  <SCORE.INTRA.DIHEDRAL.0>
0

>  <SCORE.INTRA.POLAR>
0

>  <SCORE.INTRA.POLAR.0>
0

>  <SCORE.INTRA.REPUL>
0

>  <SCORE.INTRA.REPUL.0>
0

>  <SCORE.INTRA.SOLV>
0

>  <SCORE.INTRA.SOLV.lig_0>
-48.9252

>  <SCORE.INTRA.VDW>
0

>  <SCORE.INTRA.VDW.0>
0

>  <SCORE.INTRA.norm>
0

>  <SCORE.RESTR>
0

>  <SCORE.RESTR.CAVITY>
0

>  <SCORE.RESTR.norm>
0

>  <SCORE.SYSTEM>
0

>  <SCORE.SYSTEM.CONST>
0

>  <SCORE.SYSTEM.DIHEDRAL>
0

>  <SCORE.SYSTEM.SOLV>
0

>  <SCORE.SYSTEM.norm>
0

>  <SCORE.heavy>
11

>  <SCORE.norm>
-1.01458

>  <RMSD>
0.497

$$$$
ligand
 OpenBabel11021811493D
libRbt.so/2013.1/901 2013/11/27
 11 12  0  0  0  0  0  0  0  0999 V2000
   12.5218   11.6876    8.8337 N   0  0  0  0  0  0  0  0  0  0  0  0
   11.9881   12.9018    9.0609 C   0  0  0  0  0  0  0  0  0  0  0  0
   12.0667   13.4518   10.3322 N   0  0  0  0  0  0  0  0  0  0  0  0
   11.3793   13.5939    8.0850 N   0  0  0  0  0  0  0  0  0  0  0  0
   11.2727   13.1006    6.8411 C   0  0  0  0  0  0  0  0  0  0  0  0
   11.8164   11.8299    6.5470 C   0  0  0  0  0  0  0  0  0  0  0  0
   12.4615   11.1220    7.6091 C   0  0  0  0  0  0  0  0  0  0  0  0
   13.0135    9.8829    7.3940 N   0  0  0  0  0  0  0  0  0  0  0  0
   11.5682   11.5800    5.2294 N   0  0  0  0  0  0  0  0  0  0  0  0
   10.9240   12.5856    4.7178 C   0  0  0  0  0  0  0  0  0  0  0  0
   10.7188   13.5529    5.6689 N   0  0  0  0  0  0  0  0  0  0  0  0
  1  7  2  0  0  0  0
  1  2  1  0  0  0  0
  2  3  1  0  0  0  0
  2  4  2  0  0  0  0
  4  5  1  0  0  0  0
  5  6  2  0  0  0  0
  5 11  1  0  0  0  0
  6  7  1  0  0  0  0
  6  9  1  0  0  0  0
  7  8  1  0  0  0  0
  9 10  1  0  0  0  0
 10 11  2  0  0  0  0
M  END
>  <CHROM.1>
11.80073764,12.29838464,7.32574337,-1.07969789,1.05483671,-2.08603393

>  <Name>
ligand

>  <RI>
0

>  <Rbt.Current_Directory>
/home/itssahil/PROJECTS/Mol_Feturizer/New_Systems/rnas/4FEO

>  <Rbt.Executable>
rbdock ($Id: //depot/dev/client3/rdock/2013.1/src/exe/rbdock.cxx#4 $)

>  <Rbt.Library>
libRbt.so (2013.1, Build901 2013/11/27)

>  <Rbt.Parameter_File>
/export/apps/rDock/src/rDock_2013.1_src/data/scripts/dock_solv.prm

>  <Rbt.Receptor>
prm/pocket_docking_4.prm

>  <SCORE>
-11.1405

>  <SCORE.INTER>
-11.1405

>  <SCORE.INTER.CONST>
1

>  <SCORE.INTER.POLAR>
0

>  <SCORE.INTER.ROT>
0

>  <SCORE.INTER.SOLV>
17.9715

>  <SCORE.INTER.VDW>
-17.0175

>  <SCORE.INTER.norm>
-1.01278

>  <SCORE.INTRA>
0

>  <SCORE.INTRA.DIHEDRAL>
0

>  <SCORE.INTRA.DIHEDRAL.0>
0

>  <SCORE.INTRA.POLAR>
0

>  <SCORE.INTRA.POLAR.0>
0

>  <SCORE.INTRA.REPUL>
0

>  <SCORE.INTRA.REPUL.0>
0

>  <SCORE.INTRA.SOLV>
0

>  <SCORE.INTRA.SOLV.lig_0>
-48.9252

>  <SCORE.INTRA.VDW>
0

>  <SCORE.INTRA.VDW.0>
0

>  <SCORE.INTRA.norm>
0

>  <SCORE.RESTR>
0

>  <SCORE.RESTR.CAVITY>
0

>  <SCORE.RESTR.norm>
0

>  <SCORE.SYSTEM>
0

>  <SCORE.SYSTEM.CONST>
0

>  <SCORE.SYSTEM.DIHEDRAL>
0

>  <SCORE.SYSTEM.SOLV>
0

>  <SCORE.SYSTEM.norm>
0

>  <SCORE.heavy>
11

>  <SCORE.norm>
-1.01278

>  <RMSD>
0.497

$$$$
ligand
 OpenBabel11021811493D
libRbt.so/2013.1/901 2013/11/27
 11 12  0  0  0  0  0  0  0  0999 V2000
   12.4106   11.4687    8.8171 N   0  0  0  0  0  0  0  0  0  0  0  0
   12.0193   12.7336    9.0570 C   0  0  0  0  0  0  0  0  0  0  0  0
   12.1649   13.2599   10.3324 N   0  0  0  0  0  0  0  0  0  0  0  0
   11.4892   13.4989    8.0899 N   0  0  0  0  0  0  0  0  0  0  0  0
   11.3223   13.0318    6.8424 C   0  0  0  0  0  0  0  0  0  0  0  0
   11.7170   11.7102    6.5352 C   0  0  0  0  0  0  0  0  0  0  0  0
   12.2816   10.9243    7.5882 C   0  0  0  0  0  0  0  0  0  0  0  0
   12.6884    9.6325    7.3602 N   0  0  0  0  0  0  0  0  0  0  0  0
   11.4368   11.5017    5.2169 N   0  0  0  0  0  0  0  0  0  0  0  0
   10.9091   12.5784    4.7167 C   0  0  0  0  0  0  0  0  0  0  0  0
   10.8188   13.5544    5.6768 N   0  0  0  0  0  0  0  0  0  0  0  0
  1  7  2  0  0  0  0
  1  2  1  0  0  0  0
  2  3  1  0  0  0  0
  2  4  2  0  0  0  0
  4  5  1  0  0  0  0
  5  6  2  0  0  0  0
  5 11  1  0  0  0  0
  6  7  1  0  0  0  0
  6  9  1  0  0  0  0
  7  8  1  0  0  0  0
  9 10  1  0  0  0  0
 10 11  2  0  0  0  0
M  END
>  <CHROM.1>
11.75773046,12.17059231,7.31785799,-0.93433979,1.14813039,-2.20731838

>  <Name>
ligand

>  <RI>
0

>  <Rbt.Current_Directory>
/home/itssahil/PROJECTS/Mol_Feturizer/New_Systems/rnas/4FEO

>  <Rbt.Executable>
rbdock ($Id: //depot/dev/client3/rdock/2013.1/src/exe/rbdock.cxx#4 $)

>  <Rbt.Library>
libRbt.so (2013.1, Build901 2013/11/27)

>  <Rbt.Parameter_File>
/export/apps/rDock/src/rDock_2013.1_src/data/scripts/dock_solv.prm

>  <Rbt.Receptor>
prm/pocket_docking_4.prm

>  <SCORE>
-11.1178

>  <SCORE.INTER>
-11.1178

>  <SCORE.INTER.CONST>
1

>  <SCORE.INTER.POLAR>
0

>  <SCORE.INTER.ROT>
0

>  <SCORE.INTER.SOLV>
18.605

>  <SCORE.INTER.VDW>
-17.2135

>  <SCORE.INTER.norm>
-1.01071

>  <SCORE.INTRA>
0

>  <SCORE.INTRA.DIHEDRAL>
0

>  <SCORE.INTRA.DIHEDRAL.0>
0

>  <SCORE.INTRA.POLAR>
0

>  <SCORE.INTRA.POLAR.0>
0

>  <SCORE.INTRA.REPUL>
0

>  <SCORE.INTRA.REPUL.0>
0

>  <SCORE.INTRA.SOLV>
0

>  <SCORE.INTRA.SOLV.lig_0>
-48.9252

>  <SCORE.INTRA.VDW>
0

>  <SCORE.INTRA.VDW.0>
0

>  <SCORE.INTRA.norm>
0

>  <SCORE.RESTR>
0

>  <SCORE.RESTR.CAVITY>
0

>  <SCORE.RESTR.norm>
0

>  <SCORE.SYSTEM>
0

>  <SCORE.SYSTEM.CONST>
0

>  <SCORE.SYSTEM.DIHEDRAL>
0

>  <SCORE.SYSTEM.SOLV>
0

>  <SCORE.SYSTEM.norm>
0

>  <SCORE.heavy>
11

>  <SCORE.norm>
-1.01071

>  <RMSD>
0.498

$$$$
ligand
 OpenBabel11021811493D
libRbt.so/2013.1/901 2013/11/27
 11 12  0  0  0  0  0  0  0  0999 V2000
   12.4971   11.6686    8.8324 N   0  0  0  0  0  0  0  0  0  0  0  0
   11.9854   12.8936    9.0524 C   0  0  0  0  0  0  0  0  0  0  0  0
   12.0604   13.4434   10.3240 N   0  0  0  0  0  0  0  0  0  0  0  0
   11.4018   13.5966    8.0689 N   0  0  0  0  0  0  0  0  0  0  0  0
   11.2996   13.1041    6.8243 C   0  0  0  0  0  0  0  0  0  0  0  0
   11.8211   11.8225    6.5376 C   0  0  0  0  0  0  0  0  0  0  0  0
   12.4395   11.1030    7.6077 C   0  0  0  0  0  0  0  0  0  0  0  0
   12.9689    9.8528    7.4002 N   0  0  0  0  0  0  0  0  0  0  0  0
   11.5831   11.5762    5.2175 N   0  0  0  0  0  0  0  0  0  0  0  0
   10.9652   12.5939    4.6976 C   0  0  0  0  0  0  0  0  0  0  0  0
   10.7685   13.5662    5.6454 N   0  0  0  0  0  0  0  0  0  0  0  0
  1  7  2  0  0  0  0
  1  2  1  0  0  0  0
  2  3  1  0  0  0  0
  2  4  2  0  0  0  0
  4  5  1  0  0  0  0
  5  6  2  0  0  0  0
  5 11  1  0  0  0  0
  6  7  1  0  0  0  0
  6  9  1  0  0  0  0
  7  8  1  0  0  0  0
  9 10  1  0  0  0  0
 10 11  2  0  0  0  0
M  END
>  <CHROM.1>
11.80585496,12.29206428,7.31572890,-1.07993083,1.07798932,-2.08685168

>  <Name>
ligand

>  <RI>
0

>  <Rbt.Current_Directory>
/home/itssahil/PROJECTS/Mol_Feturizer/New_Systems/rnas/4FEO

>  <Rbt.Executable>
rbdock ($Id: //depot/dev/client3/rdock/2013.1/src/exe/rbdock.cxx#4 $)

>  <Rbt.Library>
libRbt.so (2013.1, Build901 2013/11/27)

>  <Rbt.Parameter_File>
/export/apps/rDock/src/rDock_2013.1_src/data/scripts/dock_solv.prm

>  <Rbt.Receptor>
prm/pocket_docking_5.prm

>  <SCORE>
-11.164

>  <SCORE.INTER>
-11.164

>  <SCORE.INTER.CONST>
1

>  <SCORE.INTER.POLAR>
0

>  <SCORE.INTER.ROT>
0

>  <SCORE.INTER.SOLV>
18.1103

>  <SCORE.INTER.VDW>
-17.0795

>  <SCORE.INTER.norm>
-1.01491

>  <SCORE.INTRA>
0

>  <SCORE.INTRA.DIHEDRAL>
0

>  <SCORE.INTRA.DIHEDRAL.0>
0

>  <SCORE.INTRA.POLAR>
0

>  <SCORE.INTRA.POLAR.0>
0

>  <SCORE.INTRA.REPUL>
0

>  <SCORE.INTRA.REPUL.0>
0

>  <SCORE.INTRA.SOLV>
0

>  <SCORE.INTRA.SOLV.lig_0>
-48.9252

>  <SCORE.INTRA.VDW>
0

>  <SCORE.INTRA.VDW.0>
0

>  <SCORE.INTRA.norm>
0

>  <SCORE.RESTR>
0

>  <SCORE.RESTR.CAVITY>
0

>  <SCORE.RESTR.norm>
0

>  <SCORE.SYSTEM>
0

>  <SCORE.SYSTEM.CONST>
0

>  <SCORE.SYSTEM.DIHEDRAL>
0

>  <SCORE.SYSTEM.SOLV>
0

>  <SCORE.SYSTEM.norm>
0

>  <SCORE.heavy>
11

>  <SCORE.norm>
-1.01491

>  <RMSD>
0.498

$$$$
ligand
 OpenBabel11021811493D
libRbt.so/2013.1/901 2013/11/27
 11 12  0  0  0  0  0  0  0  0999 V2000
   12.5005   11.6710    8.8336 N   0  0  0  0  0  0  0  0  0  0  0  0
   11.9875   12.8955    9.0530 C   0  0  0  0  0  0  0  0  0  0  0  0
   12.0637   13.4467   10.3240 N   0  0  0  0  0  0  0  0  0  0  0  0
   11.4014   13.5967    8.0698 N   0  0  0  0  0  0  0  0  0  0  0  0
   11.2980   13.1028    6.8258 C   0  0  0  0  0  0  0  0  0  0  0  0
   11.8208   11.8216    6.5396 C   0  0  0  0  0  0  0  0  0  0  0  0
   12.4418   11.1040    7.6095 C   0  0  0  0  0  0  0  0  0  0  0  0
   12.9727    9.8544    7.4024 N   0  0  0  0  0  0  0  0  0  0  0  0
   11.5810   11.5736    5.2202 N   0  0  0  0  0  0  0  0  0  0  0  0
   10.9609   12.5899    4.7002 C   0  0  0  0  0  0  0  0  0  0  0  0
   10.7644   13.5629    5.6473 N   0  0  0  0  0  0  0  0  0  0  0  0
  1  7  2  0  0  0  0
  1  2  1  0  0  0  0
  2  3  1  0  0  0  0
  2  4  2  0  0  0  0
  4  5  1  0  0  0  0
  5  6  2  0  0  0  0
  5 11  1  0  0  0  0
  6  7  1  0  0  0  0
  6  9  1  0  0  0  0
  7  8  1  0  0  0  0
  9 10  1  0  0  0  0
 10 11  2  0  0  0  0
M  END
>  <CHROM.1>
11.80608333,12.29194440,7.31729933,-1.07854036,1.07600874,-2.08909832

>  <Name>
ligand

>  <RI>
0

>  <Rbt.Current_Directory>
/home/itssahil/PROJECTS/Mol_Feturizer/New_Systems/rnas/4FEO

>  <Rbt.Executable>
rbdock ($Id: //depot/dev/client3/rdock/2013.1/src/exe/rbdock.cxx#4 $)

>  <Rbt.Library>
libRbt.so (2013.1, Build901 2013/11/27)

>  <Rbt.Parameter_File>
/export/apps/rDock/src/rDock_2013.1_src/data/scripts/dock_solv.prm

>  <Rbt.Receptor>
prm/pocket_docking_5.prm

>  <SCORE>
-11.164

>  <SCORE.INTER>
-11.164

>  <SCORE.INTER.CONST>
1

>  <SCORE.INTER.POLAR>
0

>  <SCORE.INTER.ROT>
0

>  <SCORE.INTER.SOLV>
18.1018

>  <SCORE.INTER.VDW>
-17.0766

>  <SCORE.INTER.norm>
-1.01491

>  <SCORE.INTRA>
0

>  <SCORE.INTRA.DIHEDRAL>
0

>  <SCORE.INTRA.DIHEDRAL.0>
0

>  <SCORE.INTRA.POLAR>
0

>  <SCORE.INTRA.POLAR.0>
0

>  <SCORE.INTRA.REPUL>
0

>  <SCORE.INTRA.REPUL.0>
0

>  <SCORE.INTRA.SOLV>
0

>  <SCORE.INTRA.SOLV.lig_0>
-48.9252

>  <SCORE.INTRA.VDW>
0

>  <SCORE.INTRA.VDW.0>
0

>  <SCORE.INTRA.norm>
0

>  <SCORE.RESTR>
0

>  <SCORE.RESTR.CAVITY>
0

>  <SCORE.RESTR.norm>
0

>  <SCORE.SYSTEM>
0

>  <SCORE.SYSTEM.CONST>
0

>  <SCORE.SYSTEM.DIHEDRAL>
0

>  <SCORE.SYSTEM.SOLV>
0

>  <SCORE.SYSTEM.norm>
0

>  <SCORE.heavy>
11

>  <SCORE.norm>
-1.01491

>  <RMSD>
0.498

$$$$
ligand
 OpenBabel11021811493D
libRbt.so/2013.1/901 2013/11/27
 11 12  0  0  0  0  0  0  0  0999 V2000
   12.4949   11.6672    8.8260 N   0  0  0  0  0  0  0  0  0  0  0  0
   11.9742   12.8887    9.0440 C   0  0  0  0  0  0  0  0  0  0  0  0
   12.0466   13.4416   10.3145 N   0  0  0  0  0  0  0  0  0  0  0  0
   11.3841   13.5852    8.0598 N   0  0  0  0  0  0  0  0  0  0  0  0
   11.2841   13.0893    6.8164 C   0  0  0  0  0  0  0  0  0  0  0  0
   11.8150   11.8110    6.5317 C   0  0  0  0  0  0  0  0  0  0  0  0
   12.4402   11.0985    7.6026 C   0  0  0  0  0  0  0  0  0  0  0  0
   12.9789    9.8520    7.3970 N   0  0  0  0  0  0  0  0  0  0  0  0
   11.5772   11.5602    5.2125 N   0  0  0  0  0  0  0  0  0  0  0  0
   10.9509   12.5721    4.6912 C   0  0  0  0  0  0  0  0  0  0  0  0
   10.7480   13.5448    5.6372 N   0  0  0  0  0  0  0  0  0  0  0  0
  1  7  2  0  0  0  0
  1  2  1  0  0  0  0
  2  3  1  0  0  0  0
  2  4  2  0  0  0  0
  4  5  1  0  0  0  0
  5  6  2  0  0  0  0
  5 11  1  0  0  0  0
  6  7  1  0  0  0  0
  6  9  1  0  0  0  0
  7  8  1  0  0  0  0
  9 10  1  0  0  0  0
 10 11  2  0  0  0  0
M  END
>  <CHROM.1>
11.79713418,12.28213767,7.30888223,-1.08554949,1.07074419,-2.08400128

>  <Name>
ligand

>  <RI>
0

>  <Rbt.Current_Directory>
/home/itssahil/PROJECTS/Mol_Feturizer/New_Systems/rnas/4FEO

>  <Rbt.Executable>
rbdock ($Id: //depot/dev/client3/rdock/2013.1/src/exe/rbdock.cxx#4 $)

>  <Rbt.Library>
libRbt.so (2013.1, Build901 2013/11/27)

>  <Rbt.Parameter_File>
/export/apps/rDock/src/rDock_2013.1_src/data/scripts/dock_solv.prm

>  <Rbt.Receptor>
prm/pocket_docking_6.prm

>  <SCORE>
-11.1367

>  <SCORE.INTER>
-11.1367

>  <SCORE.INTER.CONST>
1

>  <SCORE.INTER.POLAR>
0

>  <SCORE.INTER.ROT>
0

>  <SCORE.INTER.SOLV>
18.0843

>  <SCORE.INTER.VDW>
-17.0526

>  <SCORE.INTER.norm>
-1.01243

>  <SCORE.INTRA>
0

>  <SCORE.INTRA.DIHEDRAL>
0

>  <SCORE.INTRA.DIHEDRAL.0>
0

>  <SCORE.INTRA.POLAR>
0

>  <SCORE.INTRA.POLAR.0>
0

>  <SCORE.INTRA.REPUL>
0

>  <SCORE.INTRA.REPUL.0>
0

>  <SCORE.INTRA.SOLV>
0

>  <SCORE.INTRA.SOLV.lig_0>
-48.9252

>  <SCORE.INTRA.VDW>
0

>  <SCORE.INTRA.VDW.0>
0

>  <SCORE.INTRA.norm>
0

>  <SCORE.RESTR>
0

>  <SCORE.RESTR.CAVITY>
0

>  <SCORE.RESTR.norm>
0

>  <SCORE.SYSTEM>
0

>  <SCORE.SYSTEM.CONST>
0

>  <SCORE.SYSTEM.DIHEDRAL>
0

>  <SCORE.SYSTEM.SOLV>
0

>  <SCORE.SYSTEM.norm>
0

>  <SCORE.heavy>
11

>  <SCORE.norm>
-1.01243

>  <RMSD>
0.498

$$$$
ligand
 OpenBabel11021811493D
libRbt.so/2013.1/901 2013/11/27
 11 12  0  0  0  0  0  0  0  0999 V2000
   12.4936   11.6660    8.8305 N   0  0  0  0  0  0  0  0  0  0  0  0
   11.9861   12.8924    9.0517 C   0  0  0  0  0  0  0  0  0  0  0  0
   12.0656   13.4419   10.3233 N   0  0  0  0  0  0  0  0  0  0  0  0
   11.4024   13.5973    8.0697 N   0  0  0  0  0  0  0  0  0  0  0  0
   11.2959   13.1052    6.8253 C   0  0  0  0  0  0  0  0  0  0  0  0
   11.8128   11.8220    6.5373 C   0  0  0  0  0  0  0  0  0  0  0  0
   12.4316   11.1006    7.6059 C   0  0  0  0  0  0  0  0  0  0  0  0
   12.9568    9.8488    7.3971 N   0  0  0  0  0  0  0  0  0  0  0  0
   11.5711   11.5766    5.2177 N   0  0  0  0  0  0  0  0  0  0  0  0
   10.9551   12.5962    4.6993 C   0  0  0  0  0  0  0  0  0  0  0  0
   10.7635   13.5690    5.6476 N   0  0  0  0  0  0  0  0  0  0  0  0
  1  7  2  0  0  0  0
  1  2  1  0  0  0  0
  2  3  1  0  0  0  0
  2  4  2  0  0  0  0
  4  5  1  0  0  0  0
  5  6  2  0  0  0  0
  5 11  1  0  0  0  0
  6  7  1  0  0  0  0
  6  9  1  0  0  0  0
  7  8  1  0  0  0  0
  9 10  1  0  0  0  0
 10 11  2  0  0  0  0
M  END
>  <CHROM.1>
11.80080635,12.29161310,7.31547786,-1.07259867,1.07945834,-2.09322773

>  <Name>
ligand

>  <RI>
0

>  <Rbt.Current_Directory>
/home/itssahil/PROJECTS/Mol_Feturizer/New_Systems/rnas/4FEO

>  <Rbt.Executable>
rbdock ($Id: //depot/dev/client3/rdock/2013.1/src/exe/rbdock.cxx#4 $)

>  <Rbt.Library>
libRbt.so (2013.1, Build901 2013/11/27)

>  <Rbt.Parameter_File>
/export/apps/rDock/src/rDock_2013.1_src/data/scripts/dock_solv.prm

>  <Rbt.Receptor>
prm/pocket_docking_8.prm

>  <SCORE>
-11.1648

>  <SCORE.INTER>
-11.1648

>  <SCORE.INTER.CONST>
1

>  <SCORE.INTER.POLAR>
0

>  <SCORE.INTER.ROT>
0

>  <SCORE.INTER.SOLV>
18.1422

>  <SCORE.INTER.VDW>
-17.0906

>  <SCORE.INTER.norm>
-1.01498

>  <SCORE.INTRA>
0

>  <SCORE.INTRA.DIHEDRAL>
0

>  <SCORE.INTRA.DIHEDRAL.0>
0

>  <SCORE.INTRA.POLAR>
0

>  <SCORE.INTRA.POLAR.0>
0

>  <SCORE.INTRA.REPUL>
0

>  <SCORE.INTRA.REPUL.0>
0

>  <SCORE.INTRA.SOLV>
0

>  <SCORE.INTRA.SOLV.lig_0>
-48.9252

>  <SCORE.INTRA.VDW>
0

>  <SCORE.INTRA.VDW.0>
0

>  <SCORE.INTRA.norm>
0

>  <SCORE.RESTR>
0

>  <SCORE.RESTR.CAVITY>
0

>  <SCORE.RESTR.norm>
0

>  <SCORE.SYSTEM>
0

>  <SCORE.SYSTEM.CONST>
0

>  <SCORE.SYSTEM.DIHEDRAL>
0

>  <SCORE.SYSTEM.SOLV>
0

>  <SCORE.SYSTEM.norm>
0

>  <SCORE.heavy>
11

>  <SCORE.norm>
-1.01498

>  <RMSD>
0.498

$$$$
ligand
 OpenBabel11021811493D
libRbt.so/2013.1/901 2013/11/27
 11 12  0  0  0  0  0  0  0  0999 V2000
   12.5026   11.6631    8.8243 N   0  0  0  0  0  0  0  0  0  0  0  0
   11.9774   12.8824    9.0438 C   0  0  0  0  0  0  0  0  0  0  0  0
   12.0496   13.4348   10.3145 N   0  0  0  0  0  0  0  0  0  0  0  0
   11.3832   13.5772    8.0610 N   0  0  0  0  0  0  0  0  0  0  0  0
   11.2833   13.0817    6.8174 C   0  0  0  0  0  0  0  0  0  0  0  0
   11.8186   11.8057    6.5311 C   0  0  0  0  0  0  0  0  0  0  0  0
   12.4482   11.0950    7.6006 C   0  0  0  0  0  0  0  0  0  0  0  0
   12.9915    9.8506    7.3934 N   0  0  0  0  0  0  0  0  0  0  0  0
   11.5799   11.5547    5.2121 N   0  0  0  0  0  0  0  0  0  0  0  0
   10.9489   12.5645    4.6924 C   0  0  0  0  0  0  0  0  0  0  0  0
   10.7436   13.5359    5.6393 N   0  0  0  0  0  0  0  0  0  0  0  0
  1  7  2  0  0  0  0
  1  2  1  0  0  0  0
  2  3  1  0  0  0  0
  2  4  2  0  0  0  0
  4  5  1  0  0  0  0
  5  6  2  0  0  0  0
  5 11  1  0  0  0  0
  6  7  1  0  0  0  0
  6  9  1  0  0  0  0
  7  8  1  0  0  0  0
  9 10  1  0  0  0  0
 10 11  2  0  0  0  0
M  END
>  <CHROM.1>
11.80013279,12.27626211,7.30858244,-1.08678689,1.06661446,-2.08228971

>  <Name>
ligand

>  <RI>
0

>  <Rbt.Current_Directory>
/home/itssahil/PROJECTS/Mol_Feturizer/New_Systems/rnas/4FEO

>  <Rbt.Executable>
rbdock ($Id: //depot/dev/client3/rdock/2013.1/src/exe/rbdock.cxx#4 $)

>  <Rbt.Library>
libRbt.so (2013.1, Build901 2013/11/27)

>  <Rbt.Parameter_File>
/export/apps/rDock/src/rDock_2013.1_src/data/scripts/dock_solv.prm

>  <Rbt.Receptor>
prm/blind_docking_100.prm

>  <SCORE>
-11.1363

>  <SCORE.INTER>
-11.1363

>  <SCORE.INTER.CONST>
1

>  <SCORE.INTER.POLAR>
0

>  <SCORE.INTER.ROT>
0

>  <SCORE.INTER.SOLV>
18.0295

>  <SCORE.INTER.VDW>
-17.034

>  <SCORE.INTER.norm>
-1.01239

>  <SCORE.INTRA>
0

>  <SCORE.INTRA.DIHEDRAL>
0

>  <SCORE.INTRA.DIHEDRAL.0>
0

>  <SCORE.INTRA.POLAR>
0

>  <SCORE.INTRA.POLAR.0>
0

>  <SCORE.INTRA.REPUL>
0

>  <SCORE.INTRA.REPUL.0>
0

>  <SCORE.INTRA.SOLV>
0

>  <SCORE.INTRA.SOLV.lig_0>
-48.9252

>  <SCORE.INTRA.VDW>
0

>  <SCORE.INTRA.VDW.0>
0

>  <SCORE.INTRA.norm>
0

>  <SCORE.RESTR>
0

>  <SCORE.RESTR.CAVITY>
0

>  <SCORE.RESTR.norm>
0

>  <SCORE.SYSTEM>
0

>  <SCORE.SYSTEM.CONST>
0

>  <SCORE.SYSTEM.DIHEDRAL>
0

>  <SCORE.SYSTEM.SOLV>
0

>  <SCORE.SYSTEM.norm>
0

>  <SCORE.heavy>
11

>  <SCORE.norm>
-1.01239

>  <RMSD>
0.499

$$$$
ligand
 OpenBabel11021811493D
libRbt.so/2013.1/901 2013/11/27
 11 12  0  0  0  0  0  0  0  0999 V2000
   12.4916   11.6685    8.8301 N   0  0  0  0  0  0  0  0  0  0  0  0
   11.9841   12.8951    9.0508 C   0  0  0  0  0  0  0  0  0  0  0  0
   12.0628   13.4446   10.3223 N   0  0  0  0  0  0  0  0  0  0  0  0
   11.4014   13.6000    8.0682 N   0  0  0  0  0  0  0  0  0  0  0  0
   11.2958   13.1078    6.8237 C   0  0  0  0  0  0  0  0  0  0  0  0
   11.8127   11.8245    6.5363 C   0  0  0  0  0  0  0  0  0  0  0  0
   12.4305   11.1031    7.6055 C   0  0  0  0  0  0  0  0  0  0  0  0
   12.9556    9.8512    7.3971 N   0  0  0  0  0  0  0  0  0  0  0  0
   11.5720   11.5790    5.2166 N   0  0  0  0  0  0  0  0  0  0  0  0
   10.9565   12.5986    4.6975 C   0  0  0  0  0  0  0  0  0  0  0  0
   10.7643   13.5716    5.6456 N   0  0  0  0  0  0  0  0  0  0  0  0
  1  7  2  0  0  0  0
  1  2  1  0  0  0  0
  2  3  1  0  0  0  0
  2  4  2  0  0  0  0
  4  5  1  0  0  0  0
  5  6  2  0  0  0  0
  5 11  1  0  0  0  0
  6  7  1  0  0  0  0
  6  9  1  0  0  0  0
  7  8  1  0  0  0  0
  9 10  1  0  0  0  0
 10 11  2  0  0  0  0
M  END
>  <CHROM.1>
11.80015328,12.29415262,7.31440205,-1.07388332,1.08000003,-2.09218108

>  <Name>
ligand

>  <RI>
0

>  <Rbt.Current_Directory>
/home/itssahil/PROJECTS/Mol_Feturizer/New_Systems/rnas/4FEO

>  <Rbt.Executable>
rbdock ($Id: //depot/dev/client3/rdock/2013.1/src/exe/rbdock.cxx#4 $)

>  <Rbt.Library>
libRbt.so (2013.1, Build901 2013/11/27)

>  <Rbt.Parameter_File>
/export/apps/rDock/src/rDock_2013.1_src/data/scripts/dock_solv.prm

>  <Rbt.Receptor>
prm/pocket_docking_4.prm

>  <SCORE>
-11.1635

>  <SCORE.INTER>
-11.1635

>  <SCORE.INTER.CONST>
1

>  <SCORE.INTER.POLAR>
0

>  <SCORE.INTER.ROT>
0

>  <SCORE.INTER.SOLV>
18.1557

>  <SCORE.INTER.VDW>
-17.0942

>  <SCORE.INTER.norm>
-1.01486

>  <SCORE.INTRA>
0

>  <SCORE.INTRA.DIHEDRAL>
0

>  <SCORE.INTRA.DIHEDRAL.0>
0

>  <SCORE.INTRA.POLAR>
0

>  <SCORE.INTRA.POLAR.0>
0

>  <SCORE.INTRA.REPUL>
0

>  <SCORE.INTRA.REPUL.0>
0

>  <SCORE.INTRA.SOLV>
0

>  <SCORE.INTRA.SOLV.lig_0>
-48.9252

>  <SCORE.INTRA.VDW>
0

>  <SCORE.INTRA.VDW.0>
0

>  <SCORE.INTRA.norm>
0

>  <SCORE.RESTR>
0

>  <SCORE.RESTR.CAVITY>
0

>  <SCORE.RESTR.norm>
0

>  <SCORE.SYSTEM>
0

>  <SCORE.SYSTEM.CONST>
0

>  <SCORE.SYSTEM.DIHEDRAL>
0

>  <SCORE.SYSTEM.SOLV>
0

>  <SCORE.SYSTEM.norm>
0

>  <SCORE.heavy>
11

>  <SCORE.norm>
-1.01486

>  <RMSD>
0.499

$$$$
ligand
 OpenBabel11021811493D
libRbt.so/2013.1/901 2013/11/27
 11 12  0  0  0  0  0  0  0  0999 V2000
   12.5020   11.6722    8.8242 N   0  0  0  0  0  0  0  0  0  0  0  0
   11.9728   12.8903    9.0404 C   0  0  0  0  0  0  0  0  0  0  0  0
   12.0430   13.4465   10.3095 N   0  0  0  0  0  0  0  0  0  0  0  0
   11.3764   13.5805    8.0555 N   0  0  0  0  0  0  0  0  0  0  0  0
   11.2783   13.0813    6.8133 C   0  0  0  0  0  0  0  0  0  0  0  0
   11.8179   11.8063    6.5306 C   0  0  0  0  0  0  0  0  0  0  0  0
   12.4497   11.1005    7.6021 C   0  0  0  0  0  0  0  0  0  0  0  0
   12.9970    9.8574    7.3984 N   0  0  0  0  0  0  0  0  0  0  0  0
   11.5801   11.5509    5.2122 N   0  0  0  0  0  0  0  0  0  0  0  0
   10.9459   12.5571    4.6896 C   0  0  0  0  0  0  0  0  0  0  0  0
   10.7373   13.5304    5.6339 N   0  0  0  0  0  0  0  0  0  0  0  0
  1  7  2  0  0  0  0
  1  2  1  0  0  0  0
  2  3  1  0  0  0  0
  2  4  2  0  0  0  0
  4  5  1  0  0  0  0
  5  6  2  0  0  0  0
  5 11  1  0  0  0  0
  6  7  1  0  0  0  0
  6  9  1  0  0  0  0
  7  8  1  0  0  0  0
  9 10  1  0  0  0  0
 10 11  2  0  0  0  0
M  END
>  <CHROM.1>
11.79773637,12.27886681,7.30676195,-1.09034852,1.06380901,-2.08192259

>  <Name>
ligand

>  <RI>
0

>  <Rbt.Current_Directory>
/home/itssahil/PROJECTS/Mol_Feturizer/New_Systems/rnas/4FEO

>  <Rbt.Executable>
rbdock ($Id: //depot/dev/client3/rdock/2013.1/src/exe/rbdock.cxx#4 $)

>  <Rbt.Library>
libRbt.so (2013.1, Build901 2013/11/27)

>  <Rbt.Parameter_File>
/export/apps/rDock/src/rDock_2013.1_src/data/scripts/dock_solv.prm

>  <Rbt.Receptor>
prm/pocket_docking_7.prm

>  <SCORE>
-11.1365

>  <SCORE.INTER>
-11.1365

>  <SCORE.INTER.CONST>
1

>  <SCORE.INTER.POLAR>
0

>  <SCORE.INTER.ROT>
0

>  <SCORE.INTER.SOLV>
18.0358

>  <SCORE.INTER.VDW>
-17.0363

>  <SCORE.INTER.norm>
-1.01241

>  <SCORE.INTRA>
0

>  <SCORE.INTRA.DIHEDRAL>
0

>  <SCORE.INTRA.DIHEDRAL.0>
0

>  <SCORE.INTRA.POLAR>
0

>  <SCORE.INTRA.POLAR.0>
0

>  <SCORE.INTRA.REPUL>
0

>  <SCORE.INTRA.REPUL.0>
0

>  <SCORE.INTRA.SOLV>
0

>  <SCORE.INTRA.SOLV.lig_0>
-48.9252

>  <SCORE.INTRA.VDW>
0

>  <SCORE.INTRA.VDW.0>
0

>  <SCORE.INTRA.norm>
0

>  <SCORE.RESTR>
0

>  <SCORE.RESTR.CAVITY>
0

>  <SCORE.RESTR.norm>
0

>  <SCORE.SYSTEM>
0

>  <SCORE.SYSTEM.CONST>
0

>  <SCORE.SYSTEM.DIHEDRAL>
0

>  <SCORE.SYSTEM.SOLV>
0

>  <SCORE.SYSTEM.norm>
0

>  <SCORE.heavy>
11

>  <SCORE.norm>
-1.01241

>  <RMSD>
0.499

$$$$
ligand
 OpenBabel11021811493D
libRbt.so/2013.1/901 2013/11/27
 11 12  0  0  0  0  0  0  0  0999 V2000
   12.4860   11.6695    8.8279 N   0  0  0  0  0  0  0  0  0  0  0  0
   11.9810   12.8970    9.0492 C   0  0  0  0  0  0  0  0  0  0  0  0
   12.0596   13.4452   10.3214 N   0  0  0  0  0  0  0  0  0  0  0  0
   11.4007   13.6040    8.0667 N   0  0  0  0  0  0  0  0  0  0  0  0
   11.2953   13.1132    6.8217 C   0  0  0  0  0  0  0  0  0  0  0  0
   11.8097   11.8290    6.5336 C   0  0  0  0  0  0  0  0  0  0  0  0
   12.4248   11.1052    7.6028 C   0  0  0  0  0  0  0  0  0  0  0  0
   12.9474    9.8524    7.3938 N   0  0  0  0  0  0  0  0  0  0  0  0
   11.5697   11.5852    5.2134 N   0  0  0  0  0  0  0  0  0  0  0  0
   10.9570   12.6067    4.6947 C   0  0  0  0  0  0  0  0  0  0  0  0
   10.7660   13.5792    5.6435 N   0  0  0  0  0  0  0  0  0  0  0  0
  1  7  2  0  0  0  0
  1  2  1  0  0  0  0
  2  3  1  0  0  0  0
  2  4  2  0  0  0  0
  4  5  1  0  0  0  0
  5  6  2  0  0  0  0
  5 11  1  0  0  0  0
  6  7  1  0  0  0  0
  6  9  1  0  0  0  0
  7  8  1  0  0  0  0
  9 10  1  0  0  0  0
 10 11  2  0  0  0  0
M  END
>  <CHROM.1>
11.79736871,12.29797303,7.31214796,-1.07333424,1.08239938,-2.09177117

>  <Name>
ligand

>  <RI>
0

>  <Rbt.Current_Directory>
/home/itssahil/PROJECTS/Mol_Feturizer/New_Systems/rnas/4FEO

>  <Rbt.Executable>
rbdock ($Id: //depot/dev/client3/rdock/2013.1/src/exe/rbdock.cxx#4 $)

>  <Rbt.Library>
libRbt.so (2013.1, Build901 2013/11/27)

>  <Rbt.Parameter_File>
/export/apps/rDock/src/rDock_2013.1_src/data/scripts/dock_solv.prm

>  <Rbt.Receptor>
prm/pocket_docking_5.prm

>  <SCORE>
-11.1615

>  <SCORE.INTER>
-11.1615

>  <SCORE.INTER.CONST>
1

>  <SCORE.INTER.POLAR>
0

>  <SCORE.INTER.ROT>
0

>  <SCORE.INTER.SOLV>
18.1893

>  <SCORE.INTER.VDW>
-17.1041

>  <SCORE.INTER.norm>
-1.01468

>  <SCORE.INTRA>
0

>  <SCORE.INTRA.DIHEDRAL>
0

>  <SCORE.INTRA.DIHEDRAL.0>
0

>  <SCORE.INTRA.POLAR>
0

>  <SCORE.INTRA.POLAR.0>
0

>  <SCORE.INTRA.REPUL>
0

>  <SCORE.INTRA.REPUL.0>
0

>  <SCORE.INTRA.SOLV>
0

>  <SCORE.INTRA.SOLV.lig_0>
-48.9252

>  <SCORE.INTRA.VDW>
0

>  <SCORE.INTRA.VDW.0>
0

>  <SCORE.INTRA.norm>
0

>  <SCORE.RESTR>
0

>  <SCORE.RESTR.CAVITY>
0

>  <SCORE.RESTR.norm>
0

>  <SCORE.SYSTEM>
0

>  <SCORE.SYSTEM.CONST>
0

>  <SCORE.SYSTEM.DIHEDRAL>
0

>  <SCORE.SYSTEM.SOLV>
0

>  <SCORE.SYSTEM.norm>
0

>  <SCORE.heavy>
11

>  <SCORE.norm>
-1.01468

>  <RMSD>
0.500

$$$$
ligand
 OpenBabel11021811493D
libRbt.so/2013.1/901 2013/11/27
 11 12  0  0  0  0  0  0  0  0999 V2000
   12.5224   11.6582    8.8301 N   0  0  0  0  0  0  0  0  0  0  0  0
   12.0078   12.8807    9.0567 C   0  0  0  0  0  0  0  0  0  0  0  0
   12.0941   13.4297   10.3280 N   0  0  0  0  0  0  0  0  0  0  0  0
   11.4106   13.5820    8.0802 N   0  0  0  0  0  0  0  0  0  0  0  0
   11.2972   13.0901    6.8363 C   0  0  0  0  0  0  0  0  0  0  0  0
   11.8211   11.8110    6.5429 C   0  0  0  0  0  0  0  0  0  0  0  0
   12.4541   11.0933    7.6056 C   0  0  0  0  0  0  0  0  0  0  0  0
   12.9867    9.8456    7.3913 N   0  0  0  0  0  0  0  0  0  0  0  0
   11.5699   11.5648    5.2252 N   0  0  0  0  0  0  0  0  0  0  0  0
   10.9421   12.5803    4.7129 C   0  0  0  0  0  0  0  0  0  0  0  0
   10.7514   13.5509    5.6636 N   0  0  0  0  0  0  0  0  0  0  0  0
  1  7  2  0  0  0  0
  1  2  1  0  0  0  0
  2  3  1  0  0  0  0
  2  4  2  0  0  0  0
  4  5  1  0  0  0  0
  5  6  2  0  0  0  0
  5 11  1  0  0  0  0
  6  7  1  0  0  0  0
  6  9  1  0  0  0  0
  7  8  1  0  0  0  0
  9 10  1  0  0  0  0
 10 11  2  0  0  0  0
M  END
>  <CHROM.1>
11.81219826,12.27986999,7.32152647,-1.06492262,1.06884620,-2.09916444

>  <Name>
ligand

>  <RI>
0

>  <Rbt.Current_Directory>
/home/itssahil/PROJECTS/Mol_Feturizer/New_Systems/rnas/4FEO

>  <Rbt.Executable>
rbdock ($Id: //depot/dev/client3/rdock/2013.1/src/exe/rbdock.cxx#4 $)

>  <Rbt.Library>
libRbt.so (2013.1, Build901 2013/11/27)

>  <Rbt.Parameter_File>
/export/apps/rDock/src/rDock_2013.1_src/data/scripts/dock_solv.prm

>  <Rbt.Receptor>
prm/pocket_docking_5.prm

>  <SCORE>
-11.1343

>  <SCORE.INTER>
-11.1343

>  <SCORE.INTER.CONST>
1

>  <SCORE.INTER.POLAR>
0

>  <SCORE.INTER.ROT>
0

>  <SCORE.INTER.SOLV>
17.9995

>  <SCORE.INTER.VDW>
-17.0227

>  <SCORE.INTER.norm>
-1.01221

>  <SCORE.INTRA>
0

>  <SCORE.INTRA.DIHEDRAL>
0

>  <SCORE.INTRA.DIHEDRAL.0>
0

>  <SCORE.INTRA.POLAR>
0

>  <SCORE.INTRA.POLAR.0>
0

>  <SCORE.INTRA.REPUL>
0

>  <SCORE.INTRA.REPUL.0>
0

>  <SCORE.INTRA.SOLV>
0

>  <SCORE.INTRA.SOLV.lig_0>
-48.9252

>  <SCORE.INTRA.VDW>
0

>  <SCORE.INTRA.VDW.0>
0

>  <SCORE.INTRA.norm>
0

>  <SCORE.RESTR>
0

>  <SCORE.RESTR.CAVITY>
0

>  <SCORE.RESTR.norm>
0

>  <SCORE.SYSTEM>
0

>  <SCORE.SYSTEM.CONST>
0

>  <SCORE.SYSTEM.DIHEDRAL>
0

>  <SCORE.SYSTEM.SOLV>
0

>  <SCORE.SYSTEM.norm>
0

>  <SCORE.heavy>
11

>  <SCORE.norm>
-1.01221

>  <RMSD>
0.500

$$$$
ligand
 OpenBabel11021811493D
libRbt.so/2013.1/901 2013/11/27
 11 12  0  0  0  0  0  0  0  0999 V2000
   12.5065   11.6717    8.8315 N   0  0  0  0  0  0  0  0  0  0  0  0
   11.9887   12.8938    9.0528 C   0  0  0  0  0  0  0  0  0  0  0  0
   12.0613   13.4427   10.3250 N   0  0  0  0  0  0  0  0  0  0  0  0
   11.4013   13.5948    8.0702 N   0  0  0  0  0  0  0  0  0  0  0  0
   11.3012   13.1030    6.8252 C   0  0  0  0  0  0  0  0  0  0  0  0
   11.8290   11.8243    6.5371 C   0  0  0  0  0  0  0  0  0  0  0  0
   12.4514   11.1069    7.6063 C   0  0  0  0  0  0  0  0  0  0  0  0
   12.9871    9.8596    7.3974 N   0  0  0  0  0  0  0  0  0  0  0  0
   11.5918   11.5780    5.2169 N   0  0  0  0  0  0  0  0  0  0  0  0
   10.9686   12.5931    4.6981 C   0  0  0  0  0  0  0  0  0  0  0  0
   10.7673   13.5635    5.6469 N   0  0  0  0  0  0  0  0  0  0  0  0
  1  7  2  0  0  0  0
  1  2  1  0  0  0  0
  2  3  1  0  0  0  0
  2  4  2  0  0  0  0
  4  5  1  0  0  0  0
  5  6  2  0  0  0  0
  5 11  1  0  0  0  0
  6  7  1  0  0  0  0
  6  9  1  0  0  0  0
  7  8  1  0  0  0  0
  9 10  1  0  0  0  0
 10 11  2  0  0  0  0
M  END
>  <CHROM.1>
11.81166292,12.29303385,7.31566301,-1.08456658,1.07340658,-2.08181590

>  <Name>
ligand

>  <RI>
0

>  <Rbt.Current_Directory>
/home/itssahil/PROJECTS/Mol_Feturizer/New_Systems/rnas/4FEO

>  <Rbt.Executable>
rbdock ($Id: //depot/dev/client3/rdock/2013.1/src/exe/rbdock.cxx#4 $)

>  <Rbt.Library>
libRbt.so (2013.1, Build901 2013/11/27)

>  <Rbt.Parameter_File>
/export/apps/rDock/src/rDock_2013.1_src/data/scripts/dock_solv.prm

>  <Rbt.Receptor>
prm/blind_docking_80.prm

>  <SCORE>
-11.1619

>  <SCORE.INTER>
-11.1619

>  <SCORE.INTER.CONST>
1

>  <SCORE.INTER.POLAR>
0

>  <SCORE.INTER.ROT>
0

>  <SCORE.INTER.SOLV>
18.0543

>  <SCORE.INTER.VDW>
-17.0593

>  <SCORE.INTER.norm>
-1.01471

>  <SCORE.INTRA>
0

>  <SCORE.INTRA.DIHEDRAL>
0

>  <SCORE.INTRA.DIHEDRAL.0>
0

>  <SCORE.INTRA.POLAR>
0

>  <SCORE.INTRA.POLAR.0>
0

>  <SCORE.INTRA.REPUL>
0

>  <SCORE.INTRA.REPUL.0>
0

>  <SCORE.INTRA.SOLV>
0

>  <SCORE.INTRA.SOLV.lig_0>
-48.9252

>  <SCORE.INTRA.VDW>
0

>  <SCORE.INTRA.VDW.0>
0

>  <SCORE.INTRA.norm>
0

>  <SCORE.RESTR>
0

>  <SCORE.RESTR.CAVITY>
0

>  <SCORE.RESTR.norm>
0

>  <SCORE.SYSTEM>
0

>  <SCORE.SYSTEM.CONST>
0

>  <SCORE.SYSTEM.DIHEDRAL>
0

>  <SCORE.SYSTEM.SOLV>
0

>  <SCORE.SYSTEM.norm>
0

>  <SCORE.heavy>
11

>  <SCORE.norm>
-1.01471

>  <RMSD>
0.501

$$$$
ligand
 OpenBabel11021811493D
libRbt.so/2013.1/901 2013/11/27
 11 12  0  0  0  0  0  0  0  0999 V2000
   12.5028   11.6673    8.8219 N   0  0  0  0  0  0  0  0  0  0  0  0
   11.9791   12.8871    9.0418 C   0  0  0  0  0  0  0  0  0  0  0  0
   12.0552   13.4408   10.3117 N   0  0  0  0  0  0  0  0  0  0  0  0
   11.3824   13.5814    8.0599 N   0  0  0  0  0  0  0  0  0  0  0  0
   11.2787   13.0847    6.8171 C   0  0  0  0  0  0  0  0  0  0  0  0
   11.8124   11.8081    6.5306 C   0  0  0  0  0  0  0  0  0  0  0  0
   12.4446   11.0980    7.5989 C   0  0  0  0  0  0  0  0  0  0  0  0
   12.9864    9.8531    7.3914 N   0  0  0  0  0  0  0  0  0  0  0  0
   11.5697   11.5560    5.2124 N   0  0  0  0  0  0  0  0  0  0  0  0
   10.9379   12.5656    4.6935 C   0  0  0  0  0  0  0  0  0  0  0  0
   10.7360   13.5381    5.6401 N   0  0  0  0  0  0  0  0  0  0  0  0
  1  7  2  0  0  0  0
  1  2  1  0  0  0  0
  2  3  1  0  0  0  0
  2  4  2  0  0  0  0
  4  5  1  0  0  0  0
  5  6  2  0  0  0  0
  5 11  1  0  0  0  0
  6  7  1  0  0  0  0
  6  9  1  0  0  0  0
  7  8  1  0  0  0  0
  9 10  1  0  0  0  0
 10 11  2  0  0  0  0
M  END
>  <CHROM.1>
11.79642237,12.27940604,7.30762035,-1.08100419,1.06578817,-2.08834237

>  <Name>
ligand

>  <RI>
0

>  <Rbt.Current_Directory>
/home/itssahil/PROJECTS/Mol_Feturizer/New_Systems/rnas/4FEO

>  <Rbt.Executable>
rbdock ($Id: //depot/dev/client3/rdock/2013.1/src/exe/rbdock.cxx#4 $)

>  <Rbt.Library>
libRbt.so (2013.1, Build901 2013/11/27)

>  <Rbt.Parameter_File>
/export/apps/rDock/src/rDock_2013.1_src/data/scripts/dock_solv.prm

>  <Rbt.Receptor>
prm/pocket_docking_4.prm

>  <SCORE>
-11.1346

>  <SCORE.INTER>
-11.1346

>  <SCORE.INTER.CONST>
1

>  <SCORE.INTER.POLAR>
0

>  <SCORE.INTER.ROT>
0

>  <SCORE.INTER.SOLV>
18.0548

>  <SCORE.INTER.VDW>
-17.0413

>  <SCORE.INTER.norm>
-1.01224

>  <SCORE.INTRA>
0

>  <SCORE.INTRA.DIHEDRAL>
0

>  <SCORE.INTRA.DIHEDRAL.0>
0

>  <SCORE.INTRA.POLAR>
0

>  <SCORE.INTRA.POLAR.0>
0

>  <SCORE.INTRA.REPUL>
0

>  <SCORE.INTRA.REPUL.0>
0

>  <SCORE.INTRA.SOLV>
0

>  <SCORE.INTRA.SOLV.lig_0>
-48.9252

>  <SCORE.INTRA.VDW>
0

>  <SCORE.INTRA.VDW.0>
0

>  <SCORE.INTRA.norm>
0

>  <SCORE.RESTR>
0

>  <SCORE.RESTR.CAVITY>
0

>  <SCORE.RESTR.norm>
0

>  <SCORE.SYSTEM>
0

>  <SCORE.SYSTEM.CONST>
0

>  <SCORE.SYSTEM.DIHEDRAL>
0

>  <SCORE.SYSTEM.SOLV>
0

>  <SCORE.SYSTEM.norm>
0

>  <SCORE.heavy>
11

>  <SCORE.norm>
-1.01224

>  <RMSD>
0.501

$$$$
ligand
 OpenBabel11021811493D
libRbt.so/2013.1/901 2013/11/27
 11 12  0  0  0  0  0  0  0  0999 V2000
   12.4919   11.6652    8.8287 N   0  0  0  0  0  0  0  0  0  0  0  0
   11.9827   12.8907    9.0514 C   0  0  0  0  0  0  0  0  0  0  0  0
   12.0578   13.4369   10.3246 N   0  0  0  0  0  0  0  0  0  0  0  0
   11.4015   13.5976    8.0693 N   0  0  0  0  0  0  0  0  0  0  0  0
   11.2992   13.1086    6.8233 C   0  0  0  0  0  0  0  0  0  0  0  0
   11.8181   11.8265    6.5337 C   0  0  0  0  0  0  0  0  0  0  0  0
   12.4341   11.1029    7.6024 C   0  0  0  0  0  0  0  0  0  0  0  0
   12.9609    9.8521    7.3920 N   0  0  0  0  0  0  0  0  0  0  0  0
   11.5806   11.5842    5.2128 N   0  0  0  0  0  0  0  0  0  0  0  0
   10.9654   12.6047    4.6951 C   0  0  0  0  0  0  0  0  0  0  0  0
   10.7701   13.5749    5.6452 N   0  0  0  0  0  0  0  0  0  0  0  0
  1  7  2  0  0  0  0
  1  2  1  0  0  0  0
  2  3  1  0  0  0  0
  2  4  2  0  0  0  0
  4  5  1  0  0  0  0
  5  6  2  0  0  0  0
  5 11  1  0  0  0  0
  6  7  1  0  0  0  0
  6  9  1  0  0  0  0
  7  8  1  0  0  0  0
  9 10  1  0  0  0  0
 10 11  2  0  0  0  0
M  END
>  <CHROM.1>
11.80325953,12.29412737,7.31305815,-1.07914520,1.08030142,-2.08491360

>  <Name>
ligand

>  <RI>
0

>  <Rbt.Current_Directory>
/home/itssahil/PROJECTS/Mol_Feturizer/New_Systems/rnas/4FEO

>  <Rbt.Executable>
rbdock ($Id: //depot/dev/client3/rdock/2013.1/src/exe/rbdock.cxx#4 $)

>  <Rbt.Library>
libRbt.so (2013.1, Build901 2013/11/27)

>  <Rbt.Parameter_File>
/export/apps/rDock/src/rDock_2013.1_src/data/scripts/dock_solv.prm

>  <Rbt.Receptor>
prm/pocket_docking_8.prm

>  <SCORE>
-11.1629

>  <SCORE.INTER>
-11.1629

>  <SCORE.INTER.CONST>
1

>  <SCORE.INTER.POLAR>
0

>  <SCORE.INTER.ROT>
0

>  <SCORE.INTER.SOLV>
18.1315

>  <SCORE.INTER.VDW>
-17.0857

>  <SCORE.INTER.norm>
-1.01481

>  <SCORE.INTRA>
0

>  <SCORE.INTRA.DIHEDRAL>
0

>  <SCORE.INTRA.DIHEDRAL.0>
0

>  <SCORE.INTRA.POLAR>
0

>  <SCORE.INTRA.POLAR.0>
0

>  <SCORE.INTRA.REPUL>
0

>  <SCORE.INTRA.REPUL.0>
0

>  <SCORE.INTRA.SOLV>
0

>  <SCORE.INTRA.SOLV.lig_0>
-48.9252

>  <SCORE.INTRA.VDW>
0

>  <SCORE.INTRA.VDW.0>
0

>  <SCORE.INTRA.norm>
0

>  <SCORE.RESTR>
0

>  <SCORE.RESTR.CAVITY>
0

>  <SCORE.RESTR.norm>
0

>  <SCORE.SYSTEM>
0

>  <SCORE.SYSTEM.CONST>
0

>  <SCORE.SYSTEM.DIHEDRAL>
0

>  <SCORE.SYSTEM.SOLV>
0

>  <SCORE.SYSTEM.norm>
0

>  <SCORE.heavy>
11

>  <SCORE.norm>
-1.01481

>  <RMSD>
0.501

$$$$
ligand
 OpenBabel11021811493D
libRbt.so/2013.1/901 2013/11/27
 11 12  0  0  0  0  0  0  0  0999 V2000
   12.4833   11.6739    8.8211 N   0  0  0  0  0  0  0  0  0  0  0  0
   11.9685   12.8978    9.0394 C   0  0  0  0  0  0  0  0  0  0  0  0
   12.0427   13.4497   10.3102 N   0  0  0  0  0  0  0  0  0  0  0  0
   11.3825   13.5978    8.0552 N   0  0  0  0  0  0  0  0  0  0  0  0
   11.2809   13.1031    6.8114 C   0  0  0  0  0  0  0  0  0  0  0  0
   11.8057   11.8224    6.5264 C   0  0  0  0  0  0  0  0  0  0  0  0
   12.4266   11.1062    7.5973 C   0  0  0  0  0  0  0  0  0  0  0  0
   12.9593    9.8571    7.3914 N   0  0  0  0  0  0  0  0  0  0  0  0
   11.5676   11.5734    5.2068 N   0  0  0  0  0  0  0  0  0  0  0  0
   10.9467   12.5887    4.6857 C   0  0  0  0  0  0  0  0  0  0  0  0
   10.7479   13.5619    5.6321 N   0  0  0  0  0  0  0  0  0  0  0  0
  1  7  2  0  0  0  0
  1  2  1  0  0  0  0
  2  3  1  0  0  0  0
  2  4  2  0  0  0  0
  4  5  1  0  0  0  0
  5  6  2  0  0  0  0
  5 11  1  0  0  0  0
  6  7  1  0  0  0  0
  6  9  1  0  0  0  0
  7  8  1  0  0  0  0
  9 10  1  0  0  0  0
 10 11  2  0  0  0  0
M  END
>  <CHROM.1>
11.78960306,12.29313642,7.30381204,-1.08170558,1.07538843,-2.08681892

>  <Name>
ligand

>  <RI>
0

>  <Rbt.Current_Directory>
/home/itssahil/PROJECTS/Mol_Feturizer/New_Systems/rnas/4FEO

>  <Rbt.Executable>
rbdock ($Id: //depot/dev/client3/rdock/2013.1/src/exe/rbdock.cxx#4 $)

>  <Rbt.Library>
libRbt.so (2013.1, Build901 2013/11/27)

>  <Rbt.Parameter_File>
/export/apps/rDock/src/rDock_2013.1_src/data/scripts/dock_solv.prm

>  <Rbt.Receptor>
prm/pocket_docking_3.prm

>  <SCORE>
-11.1329

>  <SCORE.INTER>
-11.1329

>  <SCORE.INTER.CONST>
1

>  <SCORE.INTER.POLAR>
0

>  <SCORE.INTER.ROT>
0

>  <SCORE.INTER.SOLV>
18.1745

>  <SCORE.INTER.VDW>
-17.0801

>  <SCORE.INTER.norm>
-1.01209

>  <SCORE.INTRA>
0

>  <SCORE.INTRA.DIHEDRAL>
0

>  <SCORE.INTRA.DIHEDRAL.0>
0

>  <SCORE.INTRA.POLAR>
0

>  <SCORE.INTRA.POLAR.0>
0

>  <SCORE.INTRA.REPUL>
0

>  <SCORE.INTRA.REPUL.0>
0

>  <SCORE.INTRA.SOLV>
0

>  <SCORE.INTRA.SOLV.lig_0>
-48.9252

>  <SCORE.INTRA.VDW>
0

>  <SCORE.INTRA.VDW.0>
0

>  <SCORE.INTRA.norm>
0

>  <SCORE.RESTR>
0

>  <SCORE.RESTR.CAVITY>
0

>  <SCORE.RESTR.norm>
0

>  <SCORE.SYSTEM>
0

>  <SCORE.SYSTEM.CONST>
0

>  <SCORE.SYSTEM.DIHEDRAL>
0

>  <SCORE.SYSTEM.SOLV>
0

>  <SCORE.SYSTEM.norm>
0

>  <SCORE.heavy>
11

>  <SCORE.norm>
-1.01209

>  <RMSD>
0.502

$$$$
ligand
 OpenBabel11021811493D
libRbt.so/2013.1/901 2013/11/27
 11 12  0  0  0  0  0  0  0  0999 V2000
   12.4929   11.6694    8.8278 N   0  0  0  0  0  0  0  0  0  0  0  0
   11.9834   12.8948    9.0501 C   0  0  0  0  0  0  0  0  0  0  0  0
   12.0598   13.4422   10.3227 N   0  0  0  0  0  0  0  0  0  0  0  0
   11.4006   13.6006    8.0681 N   0  0  0  0  0  0  0  0  0  0  0  0
   11.2971   13.1105    6.8226 C   0  0  0  0  0  0  0  0  0  0  0  0
   11.8163   11.8285    6.5335 C   0  0  0  0  0  0  0  0  0  0  0  0
   12.4339   11.1060    7.6021 C   0  0  0  0  0  0  0  0  0  0  0  0
   12.9611    9.8553    7.3921 N   0  0  0  0  0  0  0  0  0  0  0  0
   11.5774   11.5849    5.2131 N   0  0  0  0  0  0  0  0  0  0  0  0
   10.9610   12.6046    4.6952 C   0  0  0  0  0  0  0  0  0  0  0  0
   10.7663   13.5755    5.6448 N   0  0  0  0  0  0  0  0  0  0  0  0
  1  7  2  0  0  0  0
  1  2  1  0  0  0  0
  2  3  1  0  0  0  0
  2  4  2  0  0  0  0
  4  5  1  0  0  0  0
  5  6  2  0  0  0  0
  5 11  1  0  0  0  0
  6  7  1  0  0  0  0
  6  9  1  0  0  0  0
  7  8  1  0  0  0  0
  9 10  1  0  0  0  0
 10 11  2  0  0  0  0
M  END
>  <CHROM.1>
11.80216393,12.29670019,7.31243538,-1.07746509,1.07927414,-2.08724577

>  <Name>
ligand

>  <RI>
0

>  <Rbt.Current_Directory>
/home/itssahil/PROJECTS/Mol_Feturizer/New_Systems/rnas/4FEO

>  <Rbt.Executable>
rbdock ($Id: //depot/dev/client3/rdock/2013.1/src/exe/rbdock.cxx#4 $)

>  <Rbt.Library>
libRbt.so (2013.1, Build901 2013/11/27)

>  <Rbt.Parameter_File>
/export/apps/rDock/src/rDock_2013.1_src/data/scripts/dock_solv.prm

>  <Rbt.Receptor>
prm/pocket_docking_4.prm

>  <SCORE>
-11.1616

>  <SCORE.INTER>
-11.1616

>  <SCORE.INTER.CONST>
1

>  <SCORE.INTER.POLAR>
0

>  <SCORE.INTER.ROT>
0

>  <SCORE.INTER.SOLV>
18.1414

>  <SCORE.INTER.VDW>
-17.0882

>  <SCORE.INTER.norm>
-1.01469

>  <SCORE.INTRA>
0

>  <SCORE.INTRA.DIHEDRAL>
0

>  <SCORE.INTRA.DIHEDRAL.0>
0

>  <SCORE.INTRA.POLAR>
0

>  <SCORE.INTRA.POLAR.0>
0

>  <SCORE.INTRA.REPUL>
0

>  <SCORE.INTRA.REPUL.0>
0

>  <SCORE.INTRA.SOLV>
0

>  <SCORE.INTRA.SOLV.lig_0>
-48.9252

>  <SCORE.INTRA.VDW>
0

>  <SCORE.INTRA.VDW.0>
0

>  <SCORE.INTRA.norm>
0

>  <SCORE.RESTR>
0

>  <SCORE.RESTR.CAVITY>
0

>  <SCORE.RESTR.norm>
0

>  <SCORE.SYSTEM>
0

>  <SCORE.SYSTEM.CONST>
0

>  <SCORE.SYSTEM.DIHEDRAL>
0

>  <SCORE.SYSTEM.SOLV>
0

>  <SCORE.SYSTEM.norm>
0

>  <SCORE.heavy>
11

>  <SCORE.norm>
-1.01469

>  <RMSD>
0.502

$$$$
ligand
 OpenBabel11021811493D
libRbt.so/2013.1/901 2013/11/27
 11 12  0  0  0  0  0  0  0  0999 V2000
   12.5102   11.6729    8.8262 N   0  0  0  0  0  0  0  0  0  0  0  0
   11.9760   12.8887    9.0435 C   0  0  0  0  0  0  0  0  0  0  0  0
   12.0405   13.4423   10.3141 N   0  0  0  0  0  0  0  0  0  0  0  0
   11.3799   13.5789    8.0584 N   0  0  0  0  0  0  0  0  0  0  0  0
   11.2872   13.0820    6.8148 C   0  0  0  0  0  0  0  0  0  0  0  0
   11.8322   11.8096    6.5309 C   0  0  0  0  0  0  0  0  0  0  0  0
   12.4634   11.1038    7.6026 C   0  0  0  0  0  0  0  0  0  0  0  0
   13.0158    9.8631    7.3978 N   0  0  0  0  0  0  0  0  0  0  0  0
   11.5992   11.5563    5.2112 N   0  0  0  0  0  0  0  0  0  0  0  0
   10.9629   12.5614    4.6891 C   0  0  0  0  0  0  0  0  0  0  0  0
   10.7481   13.5319    5.6348 N   0  0  0  0  0  0  0  0  0  0  0  0
  1  7  2  0  0  0  0
  1  2  1  0  0  0  0
  2  3  1  0  0  0  0
  2  4  2  0  0  0  0
  4  5  1  0  0  0  0
  5  6  2  0  0  0  0
  5 11  1  0  0  0  0
  6  7  1  0  0  0  0
  6  9  1  0  0  0  0
  7  8  1  0  0  0  0
  9 10  1  0  0  0  0
 10 11  2  0  0  0  0
M  END
>  <CHROM.1>
11.80813092,12.28042718,7.30802205,-1.09914079,1.06209192,-2.07203745

>  <Name>
ligand

>  <RI>
0

>  <Rbt.Current_Directory>
/home/itssahil/PROJECTS/Mol_Feturizer/New_Systems/rnas/4FEO

>  <Rbt.Executable>
rbdock ($Id: //depot/dev/client3/rdock/2013.1/src/exe/rbdock.cxx#4 $)

>  <Rbt.Library>
libRbt.so (2013.1, Build901 2013/11/27)

>  <Rbt.Parameter_File>
/export/apps/rDock/src/rDock_2013.1_src/data/scripts/dock_solv.prm

>  <Rbt.Receptor>
prm/pocket_docking_5.prm

>  <SCORE>
-11.1297

>  <SCORE.INTER>
-11.1297

>  <SCORE.INTER.CONST>
1

>  <SCORE.INTER.POLAR>
0

>  <SCORE.INTER.ROT>
0

>  <SCORE.INTER.SOLV>
17.9802

>  <SCORE.INTER.VDW>
-17.0132

>  <SCORE.INTER.norm>
-1.01179

>  <SCORE.INTRA>
0

>  <SCORE.INTRA.DIHEDRAL>
0

>  <SCORE.INTRA.DIHEDRAL.0>
0

>  <SCORE.INTRA.POLAR>
0

>  <SCORE.INTRA.POLAR.0>
0

>  <SCORE.INTRA.REPUL>
0

>  <SCORE.INTRA.REPUL.0>
0

>  <SCORE.INTRA.SOLV>
0

>  <SCORE.INTRA.SOLV.lig_0>
-48.9252

>  <SCORE.INTRA.VDW>
0

>  <SCORE.INTRA.VDW.0>
0

>  <SCORE.INTRA.norm>
0

>  <SCORE.RESTR>
0

>  <SCORE.RESTR.CAVITY>
0

>  <SCORE.RESTR.norm>
0

>  <SCORE.SYSTEM>
0

>  <SCORE.SYSTEM.CONST>
0

>  <SCORE.SYSTEM.DIHEDRAL>
0

>  <SCORE.SYSTEM.SOLV>
0

>  <SCORE.SYSTEM.norm>
0

>  <SCORE.heavy>
11

>  <SCORE.norm>
-1.01179

>  <RMSD>
0.502

$$$$
ligand
 OpenBabel11021811493D
libRbt.so/2013.1/901 2013/11/27
 11 12  0  0  0  0  0  0  0  0999 V2000
   12.4110   11.4653    8.8143 N   0  0  0  0  0  0  0  0  0  0  0  0
   12.0189   12.7295    9.0563 C   0  0  0  0  0  0  0  0  0  0  0  0
   12.1607   13.2526   10.3336 N   0  0  0  0  0  0  0  0  0  0  0  0
   11.4915   13.4973    8.0896 N   0  0  0  0  0  0  0  0  0  0  0  0
   11.3283   13.0334    6.8405 C   0  0  0  0  0  0  0  0  0  0  0  0
   11.7240   11.7127    6.5310 C   0  0  0  0  0  0  0  0  0  0  0  0
   12.2856   10.9241    7.5836 C   0  0  0  0  0  0  0  0  0  0  0  0
   12.6932    9.6329    7.3534 N   0  0  0  0  0  0  0  0  0  0  0  0
   11.4476   11.5076    5.2113 N   0  0  0  0  0  0  0  0  0  0  0  0
   10.9212   12.5855    4.7125 C   0  0  0  0  0  0  0  0  0  0  0  0
   10.8281   13.5590    5.6748 N   0  0  0  0  0  0  0  0  0  0  0  0
  1  7  2  0  0  0  0
  1  2  1  0  0  0  0
  2  3  1  0  0  0  0
  2  4  2  0  0  0  0
  4  5  1  0  0  0  0
  5  6  2  0  0  0  0
  5 11  1  0  0  0  0
  6  7  1  0  0  0  0
  6  9  1  0  0  0  0
  7  8  1  0  0  0  0
  9 10  1  0  0  0  0
 10 11  2  0  0  0  0
M  END
>  <CHROM.1>
11.76238337,12.17103008,7.31497053,-0.94019197,1.14976041,-2.19937372

>  <Name>
ligand

>  <RI>
0

>  <Rbt.Current_Directory>
/home/itssahil/PROJECTS/Mol_Feturizer/New_Systems/rnas/4FEO

>  <Rbt.Executable>
rbdock ($Id: //depot/dev/client3/rdock/2013.1/src/exe/rbdock.cxx#4 $)

>  <Rbt.Library>
libRbt.so (2013.1, Build901 2013/11/27)

>  <Rbt.Parameter_File>
/export/apps/rDock/src/rDock_2013.1_src/data/scripts/dock_solv.prm

>  <Rbt.Receptor>
prm/pocket_docking_6.prm

>  <SCORE>
-11.1254

>  <SCORE.INTER>
-11.1254

>  <SCORE.INTER.CONST>
1

>  <SCORE.INTER.POLAR>
0

>  <SCORE.INTER.ROT>
0

>  <SCORE.INTER.SOLV>
18.5838

>  <SCORE.INTER.VDW>
-17.2115

>  <SCORE.INTER.norm>
-1.0114

>  <SCORE.INTRA>
0

>  <SCORE.INTRA.DIHEDRAL>
0

>  <SCORE.INTRA.DIHEDRAL.0>
0

>  <SCORE.INTRA.POLAR>
0

>  <SCORE.INTRA.POLAR.0>
0

>  <SCORE.INTRA.REPUL>
0

>  <SCORE.INTRA.REPUL.0>
0

>  <SCORE.INTRA.SOLV>
0

>  <SCORE.INTRA.SOLV.lig_0>
-48.9252

>  <SCORE.INTRA.VDW>
0

>  <SCORE.INTRA.VDW.0>
0

>  <SCORE.INTRA.norm>
0

>  <SCORE.RESTR>
0

>  <SCORE.RESTR.CAVITY>
0

>  <SCORE.RESTR.norm>
0

>  <SCORE.SYSTEM>
0

>  <SCORE.SYSTEM.CONST>
0

>  <SCORE.SYSTEM.DIHEDRAL>
0

>  <SCORE.SYSTEM.SOLV>
0

>  <SCORE.SYSTEM.norm>
0

>  <SCORE.heavy>
11

>  <SCORE.norm>
-1.0114

>  <RMSD>
0.502

$$$$
ligand
 OpenBabel11021811493D
libRbt.so/2013.1/901 2013/11/27
 11 12  0  0  0  0  0  0  0  0999 V2000
   12.3798   11.4838    8.8044 N   0  0  0  0  0  0  0  0  0  0  0  0
   11.9819   12.7487    9.0334 C   0  0  0  0  0  0  0  0  0  0  0  0
   12.1073   13.2804   10.3087 N   0  0  0  0  0  0  0  0  0  0  0  0
   11.4643   13.5088    8.0554 N   0  0  0  0  0  0  0  0  0  0  0  0
   11.3171   13.0363    6.8076 C   0  0  0  0  0  0  0  0  0  0  0  0
   11.7195   11.7145    6.5115 C   0  0  0  0  0  0  0  0  0  0  0  0
   12.2703   10.9343    7.5759 C   0  0  0  0  0  0  0  0  0  0  0  0
   12.6836    9.6425    7.3592 N   0  0  0  0  0  0  0  0  0  0  0  0
   11.4594   11.5001    5.1900 N   0  0  0  0  0  0  0  0  0  0  0  0
   10.9365   12.5735    4.6778 C   0  0  0  0  0  0  0  0  0  0  0  0
   10.8297   13.5531    5.6325 N   0  0  0  0  0  0  0  0  0  0  0  0
  1  7  2  0  0  0  0
  1  2  1  0  0  0  0
  2  3  1  0  0  0  0
  2  4  2  0  0  0  0
  4  5  1  0  0  0  0
  5  6  2  0  0  0  0
  5 11  1  0  0  0  0
  6  7  1  0  0  0  0
  6  9  1  0  0  0  0
  7  8  1  0  0  0  0
  9 10  1  0  0  0  0
 10 11  2  0  0  0  0
M  END
>  <CHROM.1>
11.74749312,12.17811992,7.29282266,-0.96743633,1.15480798,-2.18107257

>  <Name>
ligand

>  <RI>
0

>  <Rbt.Current_Directory>
/home/itssahil/PROJECTS/Mol_Feturizer/New_Systems/rnas/4FEO

>  <Rbt.Executable>
rbdock ($Id: //depot/dev/client3/rdock/2013.1/src/exe/rbdock.cxx#4 $)

>  <Rbt.Library>
libRbt.so (2013.1, Build901 2013/11/27)

>  <Rbt.Parameter_File>
/export/apps/rDock/src/rDock_2013.1_src/data/scripts/dock_solv.prm

>  <Rbt.Receptor>
prm/pocket_docking_4.prm

>  <SCORE>
-11.1247

>  <SCORE.INTER>
-11.1247

>  <SCORE.INTER.CONST>
1

>  <SCORE.INTER.POLAR>
0

>  <SCORE.INTER.ROT>
0

>  <SCORE.INTER.SOLV>
18.6892

>  <SCORE.INTER.VDW>
-17.2462

>  <SCORE.INTER.norm>
-1.01134

>  <SCORE.INTRA>
0

>  <SCORE.INTRA.DIHEDRAL>
0

>  <SCORE.INTRA.DIHEDRAL.0>
0

>  <SCORE.INTRA.POLAR>
0

>  <SCORE.INTRA.POLAR.0>
0

>  <SCORE.INTRA.REPUL>
0

>  <SCORE.INTRA.REPUL.0>
0

>  <SCORE.INTRA.SOLV>
0

>  <SCORE.INTRA.SOLV.lig_0>
-48.9252

>  <SCORE.INTRA.VDW>
0

>  <SCORE.INTRA.VDW.0>
0

>  <SCORE.INTRA.norm>
0

>  <SCORE.RESTR>
0

>  <SCORE.RESTR.CAVITY>
0

>  <SCORE.RESTR.norm>
0

>  <SCORE.SYSTEM>
0

>  <SCORE.SYSTEM.CONST>
0

>  <SCORE.SYSTEM.DIHEDRAL>
0

>  <SCORE.SYSTEM.SOLV>
0

>  <SCORE.SYSTEM.norm>
0

>  <SCORE.heavy>
11

>  <SCORE.norm>
-1.01134

>  <RMSD>
0.503

$$$$
ligand
 OpenBabel11021811493D
libRbt.so/2013.1/901 2013/11/27
 11 12  0  0  0  0  0  0  0  0999 V2000
   12.4965   11.6662    8.8219 N   0  0  0  0  0  0  0  0  0  0  0  0
   11.9911   12.8927    9.0479 C   0  0  0  0  0  0  0  0  0  0  0  0
   12.0776   13.4398   10.3200 N   0  0  0  0  0  0  0  0  0  0  0  0
   11.4030   13.5997    8.0700 N   0  0  0  0  0  0  0  0  0  0  0  0
   11.2897   13.1099    6.8253 C   0  0  0  0  0  0  0  0  0  0  0  0
   11.8041   11.8268    6.5325 C   0  0  0  0  0  0  0  0  0  0  0  0
   12.4277   11.1030    7.5967 C   0  0  0  0  0  0  0  0  0  0  0  0
   12.9508    9.8512    7.3829 N   0  0  0  0  0  0  0  0  0  0  0  0
   11.5554   11.5838    5.2138 N   0  0  0  0  0  0  0  0  0  0  0  0
   10.9376   12.6049    4.7003 C   0  0  0  0  0  0  0  0  0  0  0  0
   10.7516   13.5762    5.6512 N   0  0  0  0  0  0  0  0  0  0  0  0
  1  7  2  0  0  0  0
  1  2  1  0  0  0  0
  2  3  1  0  0  0  0
  2  4  2  0  0  0  0
  4  5  1  0  0  0  0
  5  6  2  0  0  0  0
  5 11  1  0  0  0  0
  6  7  1  0  0  0  0
  6  9  1  0  0  0  0
  7  8  1  0  0  0  0
  9 10  1  0  0  0  0
 10 11  2  0  0  0  0
M  END
>  <CHROM.1>
11.79645479,12.29504113,7.31152044,-1.06237182,1.07758031,-2.10049528

>  <Name>
ligand

>  <RI>
0

>  <Rbt.Current_Directory>
/home/itssahil/PROJECTS/Mol_Feturizer/New_Systems/rnas/4FEO

>  <Rbt.Executable>
rbdock ($Id: //depot/dev/client3/rdock/2013.1/src/exe/rbdock.cxx#4 $)

>  <Rbt.Library>
libRbt.so (2013.1, Build901 2013/11/27)

>  <Rbt.Parameter_File>
/export/apps/rDock/src/rDock_2013.1_src/data/scripts/dock_solv.prm

>  <Rbt.Receptor>
prm/blind_docking_100.prm

>  <SCORE>
-11.1555

>  <SCORE.INTER>
-11.1555

>  <SCORE.INTER.CONST>
1

>  <SCORE.INTER.POLAR>
0

>  <SCORE.INTER.ROT>
0

>  <SCORE.INTER.SOLV>
18.1611

>  <SCORE.INTER.VDW>
-17.0907

>  <SCORE.INTER.norm>
-1.01414

>  <SCORE.INTRA>
0

>  <SCORE.INTRA.DIHEDRAL>
0

>  <SCORE.INTRA.DIHEDRAL.0>
0

>  <SCORE.INTRA.POLAR>
0

>  <SCORE.INTRA.POLAR.0>
0

>  <SCORE.INTRA.REPUL>
0

>  <SCORE.INTRA.REPUL.0>
0

>  <SCORE.INTRA.SOLV>
0

>  <SCORE.INTRA.SOLV.lig_0>
-48.9252

>  <SCORE.INTRA.VDW>
0

>  <SCORE.INTRA.VDW.0>
0

>  <SCORE.INTRA.norm>
0

>  <SCORE.RESTR>
0

>  <SCORE.RESTR.CAVITY>
0

>  <SCORE.RESTR.norm>
0

>  <SCORE.SYSTEM>
0

>  <SCORE.SYSTEM.CONST>
0

>  <SCORE.SYSTEM.DIHEDRAL>
0

>  <SCORE.SYSTEM.SOLV>
0

>  <SCORE.SYSTEM.norm>
0

>  <SCORE.heavy>
11

>  <SCORE.norm>
-1.01414

>  <RMSD>
0.504

$$$$
ligand
 OpenBabel11021811493D
libRbt.so/2013.1/901 2013/11/27
 11 12  0  0  0  0  0  0  0  0999 V2000
   12.5165   11.6826    8.8276 N   0  0  0  0  0  0  0  0  0  0  0  0
   11.9846   12.8968    9.0588 C   0  0  0  0  0  0  0  0  0  0  0  0
   12.0584   13.4398   10.3335 N   0  0  0  0  0  0  0  0  0  0  0  0
   11.3818   13.5955    8.0839 N   0  0  0  0  0  0  0  0  0  0  0  0
   11.2800   13.1091    6.8368 C   0  0  0  0  0  0  0  0  0  0  0  0
   11.8223   11.8388    6.5384 C   0  0  0  0  0  0  0  0  0  0  0  0
   12.4607   11.1237    7.5997 C   0  0  0  0  0  0  0  0  0  0  0  0
   13.0110    9.8845    7.3806 N   0  0  0  0  0  0  0  0  0  0  0  0
   11.5797   11.5966    5.2184 N   0  0  0  0  0  0  0  0  0  0  0  0
   10.9402   12.6063    4.7092 C   0  0  0  0  0  0  0  0  0  0  0  0
   10.7326   13.5690    5.6645 N   0  0  0  0  0  0  0  0  0  0  0  0
  1  7  2  0  0  0  0
  1  2  1  0  0  0  0
  2  3  1  0  0  0  0
  2  4  2  0  0  0  0
  4  5  1  0  0  0  0
  5  6  2  0  0  0  0
  5 11  1  0  0  0  0
  6  7  1  0  0  0  0
  6  9  1  0  0  0  0
  7  8  1  0  0  0  0
  9 10  1  0  0  0  0
 10 11  2  0  0  0  0
M  END
>  <CHROM.1>
11.80395742,12.30310406,7.31962979,-1.08580620,1.05908223,-2.07533688

>  <Name>
ligand

>  <RI>
0

>  <Rbt.Current_Directory>
/home/itssahil/PROJECTS/Mol_Feturizer/New_Systems/rnas/4FEO

>  <Rbt.Executable>
rbdock ($Id: //depot/dev/client3/rdock/2013.1/src/exe/rbdock.cxx#4 $)

>  <Rbt.Library>
libRbt.so (2013.1, Build901 2013/11/27)

>  <Rbt.Parameter_File>
/export/apps/rDock/src/rDock_2013.1_src/data/scripts/dock_solv.prm

>  <Rbt.Receptor>
prm/pocket_docking_7.prm

>  <SCORE>
-11.1417

>  <SCORE.INTER>
-11.1417

>  <SCORE.INTER.CONST>
1

>  <SCORE.INTER.POLAR>
0

>  <SCORE.INTER.ROT>
0

>  <SCORE.INTER.SOLV>
17.9721

>  <SCORE.INTER.VDW>
-17.0185

>  <SCORE.INTER.norm>
-1.01288

>  <SCORE.INTRA>
0

>  <SCORE.INTRA.DIHEDRAL>
0

>  <SCORE.INTRA.DIHEDRAL.0>
0

>  <SCORE.INTRA.POLAR>
0

>  <SCORE.INTRA.POLAR.0>
0

>  <SCORE.INTRA.REPUL>
0

>  <SCORE.INTRA.REPUL.0>
0

>  <SCORE.INTRA.SOLV>
0

>  <SCORE.INTRA.SOLV.lig_0>
-48.9252

>  <SCORE.INTRA.VDW>
0

>  <SCORE.INTRA.VDW.0>
0

>  <SCORE.INTRA.norm>
0

>  <SCORE.RESTR>
0

>  <SCORE.RESTR.CAVITY>
0

>  <SCORE.RESTR.norm>
0

>  <SCORE.SYSTEM>
0

>  <SCORE.SYSTEM.CONST>
0

>  <SCORE.SYSTEM.DIHEDRAL>
0

>  <SCORE.SYSTEM.SOLV>
0

>  <SCORE.SYSTEM.norm>
0

>  <SCORE.heavy>
11

>  <SCORE.norm>
-1.01288

>  <RMSD>
0.504

$$$$
ligand
 OpenBabel11021811493D
libRbt.so/2013.1/901 2013/11/27
 11 12  0  0  0  0  0  0  0  0999 V2000
   12.5320   11.6918    8.8285 N   0  0  0  0  0  0  0  0  0  0  0  0
   11.9899   12.9011    9.0621 C   0  0  0  0  0  0  0  0  0  0  0  0
   12.0666   13.4458   10.3358 N   0  0  0  0  0  0  0  0  0  0  0  0
   11.3745   13.5931    8.0903 N   0  0  0  0  0  0  0  0  0  0  0  0
   11.2695   13.1047    6.8443 C   0  0  0  0  0  0  0  0  0  0  0  0
   11.8220   11.8393    6.5436 C   0  0  0  0  0  0  0  0  0  0  0  0
   12.4738   11.1313    7.6015 C   0  0  0  0  0  0  0  0  0  0  0  0
   13.0344    9.8972    7.3800 N   0  0  0  0  0  0  0  0  0  0  0  0
   11.5735   11.5937    5.2254 N   0  0  0  0  0  0  0  0  0  0  0  0
   10.9212   12.5969    4.7193 C   0  0  0  0  0  0  0  0  0  0  0  0
   10.7105   13.5583    5.6751 N   0  0  0  0  0  0  0  0  0  0  0  0
  1  7  2  0  0  0  0
  1  2  1  0  0  0  0
  2  3  1  0  0  0  0
  2  4  2  0  0  0  0
  4  5  1  0  0  0  0
  5  6  2  0  0  0  0
  5 11  1  0  0  0  0
  6  7  1  0  0  0  0
  6  9  1  0  0  0  0
  7  8  1  0  0  0  0
  9 10  1  0  0  0  0
 10 11  2  0  0  0  0
M  END
>  <CHROM.1>
11.80413539,12.30414934,7.32453276,-1.08407417,1.04773709,-2.07769226

>  <Name>
ligand

>  <RI>
0

>  <Rbt.Current_Directory>
/home/itssahil/PROJECTS/Mol_Feturizer/New_Systems/rnas/4FEO

>  <Rbt.Executable>
rbdock ($Id: //depot/dev/client3/rdock/2013.1/src/exe/rbdock.cxx#4 $)

>  <Rbt.Library>
libRbt.so (2013.1, Build901 2013/11/27)

>  <Rbt.Parameter_File>
/export/apps/rDock/src/rDock_2013.1_src/data/scripts/dock_solv.prm

>  <Rbt.Receptor>
prm/blind_docking_100.prm

>  <SCORE>
-11.1445

>  <SCORE.INTER>
-11.1445

>  <SCORE.INTER.CONST>
1

>  <SCORE.INTER.POLAR>
0

>  <SCORE.INTER.ROT>
0

>  <SCORE.INTER.SOLV>
17.8972

>  <SCORE.INTER.VDW>
-16.9954

>  <SCORE.INTER.norm>
-1.01314

>  <SCORE.INTRA>
0

>  <SCORE.INTRA.DIHEDRAL>
0

>  <SCORE.INTRA.DIHEDRAL.0>
0

>  <SCORE.INTRA.POLAR>
0

>  <SCORE.INTRA.POLAR.0>
0

>  <SCORE.INTRA.REPUL>
0

>  <SCORE.INTRA.REPUL.0>
0

>  <SCORE.INTRA.SOLV>
0

>  <SCORE.INTRA.SOLV.lig_0>
-48.9252

>  <SCORE.INTRA.VDW>
0

>  <SCORE.INTRA.VDW.0>
0

>  <SCORE.INTRA.norm>
0

>  <SCORE.RESTR>
0

>  <SCORE.RESTR.CAVITY>
0

>  <SCORE.RESTR.norm>
0

>  <SCORE.SYSTEM>
0

>  <SCORE.SYSTEM.CONST>
0

>  <SCORE.SYSTEM.DIHEDRAL>
0

>  <SCORE.SYSTEM.SOLV>
0

>  <SCORE.SYSTEM.norm>
0

>  <SCORE.heavy>
11

>  <SCORE.norm>
-1.01314

>  <RMSD>
0.505

$$$$
ligand
 OpenBabel11021811493D
libRbt.so/2013.1/901 2013/11/27
 11 12  0  0  0  0  0  0  0  0999 V2000
   12.3579   11.5190    8.7972 N   0  0  0  0  0  0  0  0  0  0  0  0
   11.9584   12.7866    9.0081 C   0  0  0  0  0  0  0  0  0  0  0  0
   12.0828   13.3364   10.2759 N   0  0  0  0  0  0  0  0  0  0  0  0
   11.4403   13.5322    8.0194 N   0  0  0  0  0  0  0  0  0  0  0  0
   11.2941   13.0420    6.7783 C   0  0  0  0  0  0  0  0  0  0  0  0
   11.6981   11.7167    6.5010 C   0  0  0  0  0  0  0  0  0  0  0  0
   12.2495   10.9521    7.5765 C   0  0  0  0  0  0  0  0  0  0  0  0
   12.6643    9.6579    7.3781 N   0  0  0  0  0  0  0  0  0  0  0  0
   11.4387   11.4834    5.1826 N   0  0  0  0  0  0  0  0  0  0  0  0
   10.9147   12.5488    4.6551 C   0  0  0  0  0  0  0  0  0  0  0  0
   10.8064   13.5416    5.5959 N   0  0  0  0  0  0  0  0  0  0  0  0
  1  7  2  0  0  0  0
  1  2  1  0  0  0  0
  2  3  1  0  0  0  0
  2  4  2  0  0  0  0
  4  5  1  0  0  0  0
  5  6  2  0  0  0  0
  5 11  1  0  0  0  0
  6  7  1  0  0  0  0
  6  9  1  0  0  0  0
  7  8  1  0  0  0  0
  9 10  1  0  0  0  0
 10 11  2  0  0  0  0
M  END
>  <CHROM.1>
11.72527413,12.19127260,7.27573165,-0.96975620,1.15403622,-2.19304244

>  <Name>
ligand

>  <RI>
0

>  <Rbt.Current_Directory>
/home/itssahil/PROJECTS/Mol_Feturizer/New_Systems/rnas/4FEO

>  <Rbt.Executable>
rbdock ($Id: //depot/dev/client3/rdock/2013.1/src/exe/rbdock.cxx#4 $)

>  <Rbt.Library>
libRbt.so (2013.1, Build901 2013/11/27)

>  <Rbt.Parameter_File>
/export/apps/rDock/src/rDock_2013.1_src/data/scripts/dock_solv.prm

>  <Rbt.Receptor>
prm/blind_docking_100.prm

>  <SCORE>
-11.1428

>  <SCORE.INTER>
-11.1428

>  <SCORE.INTER.CONST>
1

>  <SCORE.INTER.POLAR>
0

>  <SCORE.INTER.ROT>
0

>  <SCORE.INTER.SOLV>
18.8169

>  <SCORE.INTER.VDW>
-17.3008

>  <SCORE.INTER.norm>
-1.01298

>  <SCORE.INTRA>
0

>  <SCORE.INTRA.DIHEDRAL>
0

>  <SCORE.INTRA.DIHEDRAL.0>
0

>  <SCORE.INTRA.POLAR>
0

>  <SCORE.INTRA.POLAR.0>
0

>  <SCORE.INTRA.REPUL>
0

>  <SCORE.INTRA.REPUL.0>
0

>  <SCORE.INTRA.SOLV>
0

>  <SCORE.INTRA.SOLV.lig_0>
-48.9252

>  <SCORE.INTRA.VDW>
0

>  <SCORE.INTRA.VDW.0>
0

>  <SCORE.INTRA.norm>
0

>  <SCORE.RESTR>
0

>  <SCORE.RESTR.CAVITY>
0

>  <SCORE.RESTR.norm>
0

>  <SCORE.SYSTEM>
0

>  <SCORE.SYSTEM.CONST>
0

>  <SCORE.SYSTEM.DIHEDRAL>
0

>  <SCORE.SYSTEM.SOLV>
0

>  <SCORE.SYSTEM.norm>
0

>  <SCORE.heavy>
11

>  <SCORE.norm>
-1.01298

>  <RMSD>
0.505

$$$$
ligand
 OpenBabel11021811493D
libRbt.so/2013.1/901 2013/11/27
 11 12  0  0  0  0  0  0  0  0999 V2000
   12.5245   11.6840    8.8259 N   0  0  0  0  0  0  0  0  0  0  0  0
   11.9816   12.8934    9.0567 C   0  0  0  0  0  0  0  0  0  0  0  0
   12.0516   13.4380   10.3309 N   0  0  0  0  0  0  0  0  0  0  0  0
   11.3715   13.5858    8.0818 N   0  0  0  0  0  0  0  0  0  0  0  0
   11.2730   13.0975    6.8352 C   0  0  0  0  0  0  0  0  0  0  0  0
   11.8267   11.8321    6.5373 C   0  0  0  0  0  0  0  0  0  0  0  0
   12.4727   11.1238    7.5985 C   0  0  0  0  0  0  0  0  0  0  0  0
   13.0342    9.8895    7.3797 N   0  0  0  0  0  0  0  0  0  0  0  0
   11.5851   11.5867    5.2177 N   0  0  0  0  0  0  0  0  0  0  0  0
   10.9358   12.5901    4.7083 C   0  0  0  0  0  0  0  0  0  0  0  0
   10.7203   13.5515    5.6631 N   0  0  0  0  0  0  0  0  0  0  0  0
  1  7  2  0  0  0  0
  1  2  1  0  0  0  0
  2  3  1  0  0  0  0
  2  4  2  0  0  0  0
  4  5  1  0  0  0  0
  5  6  2  0  0  0  0
  5 11  1  0  0  0  0
  6  7  1  0  0  0  0
  6  9  1  0  0  0  0
  7  8  1  0  0  0  0
  9 10  1  0  0  0  0
 10 11  2  0  0  0  0
M  END
>  <CHROM.1>
11.80484867,12.29681195,7.31814306,-1.09311049,1.05052944,-2.06971632

>  <Name>
ligand

>  <RI>
0

>  <Rbt.Current_Directory>
/home/itssahil/PROJECTS/Mol_Feturizer/New_Systems/rnas/4FEO

>  <Rbt.Executable>
rbdock ($Id: //depot/dev/client3/rdock/2013.1/src/exe/rbdock.cxx#4 $)

>  <Rbt.Library>
libRbt.so (2013.1, Build901 2013/11/27)

>  <Rbt.Parameter_File>
/export/apps/rDock/src/rDock_2013.1_src/data/scripts/dock_solv.prm

>  <Rbt.Receptor>
prm/blind_docking_100.prm

>  <SCORE>
-11.1151

>  <SCORE.INTER>
-11.1151

>  <SCORE.INTER.CONST>
1

>  <SCORE.INTER.POLAR>
0

>  <SCORE.INTER.ROT>
0

>  <SCORE.INTER.SOLV>
17.8959

>  <SCORE.INTER.VDW>
-16.9753

>  <SCORE.INTER.norm>
-1.01046

>  <SCORE.INTRA>
0

>  <SCORE.INTRA.DIHEDRAL>
0

>  <SCORE.INTRA.DIHEDRAL.0>
0

>  <SCORE.INTRA.POLAR>
0

>  <SCORE.INTRA.POLAR.0>
0

>  <SCORE.INTRA.REPUL>
0

>  <SCORE.INTRA.REPUL.0>
0

>  <SCORE.INTRA.SOLV>
0

>  <SCORE.INTRA.SOLV.lig_0>
-48.9252

>  <SCORE.INTRA.VDW>
0

>  <SCORE.INTRA.VDW.0>
0

>  <SCORE.INTRA.norm>
0

>  <SCORE.RESTR>
0

>  <SCORE.RESTR.CAVITY>
0

>  <SCORE.RESTR.norm>
0

>  <SCORE.SYSTEM>
0

>  <SCORE.SYSTEM.CONST>
0

>  <SCORE.SYSTEM.DIHEDRAL>
0

>  <SCORE.SYSTEM.SOLV>
0

>  <SCORE.SYSTEM.norm>
0

>  <SCORE.heavy>
11

>  <SCORE.norm>
-1.01046

>  <RMSD>
0.505

$$$$
ligand
 OpenBabel11021811493D
libRbt.so/2013.1/901 2013/11/27
 11 12  0  0  0  0  0  0  0  0999 V2000
   12.4904   11.6638    8.8134 N   0  0  0  0  0  0  0  0  0  0  0  0
   11.9733   12.8858    9.0366 C   0  0  0  0  0  0  0  0  0  0  0  0
   12.0528   13.4357   10.3080 N   0  0  0  0  0  0  0  0  0  0  0  0
   11.3799   13.5858    8.0569 N   0  0  0  0  0  0  0  0  0  0  0  0
   11.2731   13.0929    6.8128 C   0  0  0  0  0  0  0  0  0  0  0  0
   11.7999   11.8142    6.5227 C   0  0  0  0  0  0  0  0  0  0  0  0
   12.4287   11.0980    7.5890 C   0  0  0  0  0  0  0  0  0  0  0  0
   12.9638    9.8508    7.3780 N   0  0  0  0  0  0  0  0  0  0  0  0
   11.5554   11.5668    5.2040 N   0  0  0  0  0  0  0  0  0  0  0  0
   10.9287   12.5812    4.6880 C   0  0  0  0  0  0  0  0  0  0  0  0
   10.7323   13.5522    5.6372 N   0  0  0  0  0  0  0  0  0  0  0  0
  1  7  2  0  0  0  0
  1  2  1  0  0  0  0
  2  3  1  0  0  0  0
  2  4  2  0  0  0  0
  4  5  1  0  0  0  0
  5  6  2  0  0  0  0
  5 11  1  0  0  0  0
  6  7  1  0  0  0  0
  6  9  1  0  0  0  0
  7  8  1  0  0  0  0
  9 10  1  0  0  0  0
 10 11  2  0  0  0  0
M  END
>  <CHROM.1>
11.78670966,12.28358358,7.30100697,-1.07481525,1.07020195,-2.09115886

>  <Name>
ligand

>  <RI>
0

>  <Rbt.Current_Directory>
/home/itssahil/PROJECTS/Mol_Feturizer/New_Systems/rnas/4FEO

>  <Rbt.Executable>
rbdock ($Id: //depot/dev/client3/rdock/2013.1/src/exe/rbdock.cxx#4 $)

>  <Rbt.Library>
libRbt.so (2013.1, Build901 2013/11/27)

>  <Rbt.Parameter_File>
/export/apps/rDock/src/rDock_2013.1_src/data/scripts/dock_solv.prm

>  <Rbt.Receptor>
prm/pocket_docking_3.prm

>  <SCORE>
-11.1309

>  <SCORE.INTER>
-11.1309

>  <SCORE.INTER.CONST>
1

>  <SCORE.INTER.POLAR>
0

>  <SCORE.INTER.ROT>
0

>  <SCORE.INTER.SOLV>
18.1311

>  <SCORE.INTER.VDW>
-17.0643

>  <SCORE.INTER.norm>
-1.0119

>  <SCORE.INTRA>
0

>  <SCORE.INTRA.DIHEDRAL>
0

>  <SCORE.INTRA.DIHEDRAL.0>
0

>  <SCORE.INTRA.POLAR>
0

>  <SCORE.INTRA.POLAR.0>
0

>  <SCORE.INTRA.REPUL>
0

>  <SCORE.INTRA.REPUL.0>
0

>  <SCORE.INTRA.SOLV>
0

>  <SCORE.INTRA.SOLV.lig_0>
-48.9252

>  <SCORE.INTRA.VDW>
0

>  <SCORE.INTRA.VDW.0>
0

>  <SCORE.INTRA.norm>
0

>  <SCORE.RESTR>
0

>  <SCORE.RESTR.CAVITY>
0

>  <SCORE.RESTR.norm>
0

>  <SCORE.SYSTEM>
0

>  <SCORE.SYSTEM.CONST>
0

>  <SCORE.SYSTEM.DIHEDRAL>
0

>  <SCORE.SYSTEM.SOLV>
0

>  <SCORE.SYSTEM.norm>
0

>  <SCORE.heavy>
11

>  <SCORE.norm>
-1.0119

>  <RMSD>
0.505

$$$$
ligand
 OpenBabel11021811493D
libRbt.so/2013.1/901 2013/11/27
 11 12  0  0  0  0  0  0  0  0999 V2000
   12.5103   11.6729    8.8285 N   0  0  0  0  0  0  0  0  0  0  0  0
   11.9934   12.8952    9.0506 C   0  0  0  0  0  0  0  0  0  0  0  0
   12.0689   13.4444   10.3226 N   0  0  0  0  0  0  0  0  0  0  0  0
   11.4041   13.5962    8.0691 N   0  0  0  0  0  0  0  0  0  0  0  0
   11.3013   13.1042    6.8244 C   0  0  0  0  0  0  0  0  0  0  0  0
   11.8281   11.8252    6.5355 C   0  0  0  0  0  0  0  0  0  0  0  0
   12.4525   11.1079    7.6036 C   0  0  0  0  0  0  0  0  0  0  0  0
   12.9873    9.8603    7.3938 N   0  0  0  0  0  0  0  0  0  0  0  0
   11.5881   11.5788    5.2158 N   0  0  0  0  0  0  0  0  0  0  0  0
   10.9641   12.5940    4.6982 C   0  0  0  0  0  0  0  0  0  0  0  0
   10.7651   13.5646    5.6472 N   0  0  0  0  0  0  0  0  0  0  0  0
  1  7  2  0  0  0  0
  1  2  1  0  0  0  0
  2  3  1  0  0  0  0
  2  4  2  0  0  0  0
  4  5  1  0  0  0  0
  5  6  2  0  0  0  0
  5 11  1  0  0  0  0
  6  7  1  0  0  0  0
  6  9  1  0  0  0  0
  7  8  1  0  0  0  0
  9 10  1  0  0  0  0
 10 11  2  0  0  0  0
M  END
>  <CHROM.1>
11.81252309,12.29416273,7.31399837,-1.08041467,1.07268180,-2.08566863

>  <Name>
ligand

>  <RI>
0

>  <Rbt.Current_Directory>
/home/itssahil/PROJECTS/Mol_Feturizer/New_Systems/rnas/4FEO

>  <Rbt.Executable>
rbdock ($Id: //depot/dev/client3/rdock/2013.1/src/exe/rbdock.cxx#4 $)

>  <Rbt.Library>
libRbt.so (2013.1, Build901 2013/11/27)

>  <Rbt.Parameter_File>
/export/apps/rDock/src/rDock_2013.1_src/data/scripts/dock_solv.prm

>  <Rbt.Receptor>
prm/pocket_docking_4.prm

>  <SCORE>
-11.1566

>  <SCORE.INTER>
-11.1566

>  <SCORE.INTER.CONST>
1

>  <SCORE.INTER.POLAR>
0

>  <SCORE.INTER.ROT>
0

>  <SCORE.INTER.SOLV>
18.0589

>  <SCORE.INTER.VDW>
-17.0574

>  <SCORE.INTER.norm>
-1.01424

>  <SCORE.INTRA>
0

>  <SCORE.INTRA.DIHEDRAL>
0

>  <SCORE.INTRA.DIHEDRAL.0>
0

>  <SCORE.INTRA.POLAR>
0

>  <SCORE.INTRA.POLAR.0>
0

>  <SCORE.INTRA.REPUL>
0

>  <SCORE.INTRA.REPUL.0>
0

>  <SCORE.INTRA.SOLV>
0

>  <SCORE.INTRA.SOLV.lig_0>
-48.9252

>  <SCORE.INTRA.VDW>
0

>  <SCORE.INTRA.VDW.0>
0

>  <SCORE.INTRA.norm>
0

>  <SCORE.RESTR>
0

>  <SCORE.RESTR.CAVITY>
0

>  <SCORE.RESTR.norm>
0

>  <SCORE.SYSTEM>
0

>  <SCORE.SYSTEM.CONST>
0

>  <SCORE.SYSTEM.DIHEDRAL>
0

>  <SCORE.SYSTEM.SOLV>
0

>  <SCORE.SYSTEM.norm>
0

>  <SCORE.heavy>
11

>  <SCORE.norm>
-1.01424

>  <RMSD>
0.505

$$$$
ligand
 OpenBabel11021811493D
libRbt.so/2013.1/901 2013/11/27
 11 12  0  0  0  0  0  0  0  0999 V2000
   12.5187   11.6835    8.8271 N   0  0  0  0  0  0  0  0  0  0  0  0
   11.9848   12.8967    9.0591 C   0  0  0  0  0  0  0  0  0  0  0  0
   12.0588   13.4394   10.3339 N   0  0  0  0  0  0  0  0  0  0  0  0
   11.3800   13.5946    8.0849 N   0  0  0  0  0  0  0  0  0  0  0  0
   11.2780   13.1084    6.8378 C   0  0  0  0  0  0  0  0  0  0  0  0
   11.8222   11.8391    6.5386 C   0  0  0  0  0  0  0  0  0  0  0  0
   12.4628   11.1249    7.5991 C   0  0  0  0  0  0  0  0  0  0  0  0
   13.0150    9.8867    7.3791 N   0  0  0  0  0  0  0  0  0  0  0  0
   11.5789   11.5969    5.2187 N   0  0  0  0  0  0  0  0  0  0  0  0
   10.9372   12.6057    4.7103 C   0  0  0  0  0  0  0  0  0  0  0  0
   10.7288   13.5677    5.6661 N   0  0  0  0  0  0  0  0  0  0  0  0
  1  7  2  0  0  0  0
  1  2  1  0  0  0  0
  2  3  1  0  0  0  0
  2  4  2  0  0  0  0
  4  5  1  0  0  0  0
  5  6  2  0  0  0  0
  5 11  1  0  0  0  0
  6  7  1  0  0  0  0
  6  9  1  0  0  0  0
  7  8  1  0  0  0  0
  9 10  1  0  0  0  0
 10 11  2  0  0  0  0
M  END
>  <CHROM.1>
11.80376017,12.30319313,7.31991336,-1.08599420,1.05713435,-2.07487026

>  <Name>
ligand

>  <RI>
0

>  <Rbt.Current_Directory>
/home/itssahil/PROJECTS/Mol_Feturizer/New_Systems/rnas/4FEO

>  <Rbt.Executable>
rbdock ($Id: //depot/dev/client3/rdock/2013.1/src/exe/rbdock.cxx#4 $)

>  <Rbt.Library>
libRbt.so (2013.1, Build901 2013/11/27)

>  <Rbt.Parameter_File>
/export/apps/rDock/src/rDock_2013.1_src/data/scripts/dock_solv.prm

>  <Rbt.Receptor>
prm/pocket_docking_6.prm

>  <SCORE>
-11.143

>  <SCORE.INTER>
-11.143

>  <SCORE.INTER.CONST>
1

>  <SCORE.INTER.POLAR>
0

>  <SCORE.INTER.ROT>
0

>  <SCORE.INTER.SOLV>
17.9574

>  <SCORE.INTER.VDW>
-17.0144

>  <SCORE.INTER.norm>
-1.013

>  <SCORE.INTRA>
0

>  <SCORE.INTRA.DIHEDRAL>
0

>  <SCORE.INTRA.DIHEDRAL.0>
0

>  <SCORE.INTRA.POLAR>
0

>  <SCORE.INTRA.POLAR.0>
0

>  <SCORE.INTRA.REPUL>
0

>  <SCORE.INTRA.REPUL.0>
0

>  <SCORE.INTRA.SOLV>
0

>  <SCORE.INTRA.SOLV.lig_0>
-48.9252

>  <SCORE.INTRA.VDW>
0

>  <SCORE.INTRA.VDW.0>
0

>  <SCORE.INTRA.norm>
0

>  <SCORE.RESTR>
0

>  <SCORE.RESTR.CAVITY>
0

>  <SCORE.RESTR.norm>
0

>  <SCORE.SYSTEM>
0

>  <SCORE.SYSTEM.CONST>
0

>  <SCORE.SYSTEM.DIHEDRAL>
0

>  <SCORE.SYSTEM.SOLV>
0

>  <SCORE.SYSTEM.norm>
0

>  <SCORE.heavy>
11

>  <SCORE.norm>
-1.013

>  <RMSD>
0.505

$$$$
ligand
 OpenBabel11021811493D
libRbt.so/2013.1/901 2013/11/27
 11 12  0  0  0  0  0  0  0  0999 V2000
   12.5096   11.6625    8.8177 N   0  0  0  0  0  0  0  0  0  0  0  0
   11.9811   12.8797    9.0411 C   0  0  0  0  0  0  0  0  0  0  0  0
   12.0552   13.4301   10.3125 N   0  0  0  0  0  0  0  0  0  0  0  0
   11.3816   13.5743    8.0612 N   0  0  0  0  0  0  0  0  0  0  0  0
   11.2797   13.0807    6.8170 C   0  0  0  0  0  0  0  0  0  0  0  0
   11.8184   11.8070    6.5269 C   0  0  0  0  0  0  0  0  0  0  0  0
   12.4535   11.0964    7.5932 C   0  0  0  0  0  0  0  0  0  0  0  0
   13.0002    9.8543    7.3821 N   0  0  0  0  0  0  0  0  0  0  0  0
   11.5766   11.5577    5.2081 N   0  0  0  0  0  0  0  0  0  0  0  0
   10.9407   12.5663    4.6921 C   0  0  0  0  0  0  0  0  0  0  0  0
   10.7351   13.5353    5.6413 N   0  0  0  0  0  0  0  0  0  0  0  0
  1  7  2  0  0  0  0
  1  2  1  0  0  0  0
  2  3  1  0  0  0  0
  2  4  2  0  0  0  0
  4  5  1  0  0  0  0
  5  6  2  0  0  0  0
  5 11  1  0  0  0  0
  6  7  1  0  0  0  0
  6  9  1  0  0  0  0
  7  8  1  0  0  0  0
  9 10  1  0  0  0  0
 10 11  2  0  0  0  0
M  END
>  <CHROM.1>
11.80064988,12.27611171,7.30524674,-1.08479268,1.06230726,-2.08222617

>  <Name>
ligand

>  <RI>
0

>  <Rbt.Current_Directory>
/home/itssahil/PROJECTS/Mol_Feturizer/New_Systems/rnas/4FEO

>  <Rbt.Executable>
rbdock ($Id: //depot/dev/client3/rdock/2013.1/src/exe/rbdock.cxx#4 $)

>  <Rbt.Library>
libRbt.so (2013.1, Build901 2013/11/27)

>  <Rbt.Parameter_File>
/export/apps/rDock/src/rDock_2013.1_src/data/scripts/dock_solv.prm

>  <Rbt.Receptor>
prm/pocket_docking_6.prm

>  <SCORE>
-11.1341

>  <SCORE.INTER>
-11.1341

>  <SCORE.INTER.CONST>
1

>  <SCORE.INTER.POLAR>
0

>  <SCORE.INTER.ROT>
0

>  <SCORE.INTER.SOLV>
17.9983

>  <SCORE.INTER.VDW>
-17.0221

>  <SCORE.INTER.norm>
-1.01219

>  <SCORE.INTRA>
0

>  <SCORE.INTRA.DIHEDRAL>
0

>  <SCORE.INTRA.DIHEDRAL.0>
0

>  <SCORE.INTRA.POLAR>
0

>  <SCORE.INTRA.POLAR.0>
0

>  <SCORE.INTRA.REPUL>
0

>  <SCORE.INTRA.REPUL.0>
0

>  <SCORE.INTRA.SOLV>
0

>  <SCORE.INTRA.SOLV.lig_0>
-48.9252

>  <SCORE.INTRA.VDW>
0

>  <SCORE.INTRA.VDW.0>
0

>  <SCORE.INTRA.norm>
0

>  <SCORE.RESTR>
0

>  <SCORE.RESTR.CAVITY>
0

>  <SCORE.RESTR.norm>
0

>  <SCORE.SYSTEM>
0

>  <SCORE.SYSTEM.CONST>
0

>  <SCORE.SYSTEM.DIHEDRAL>
0

>  <SCORE.SYSTEM.SOLV>
0

>  <SCORE.SYSTEM.norm>
0

>  <SCORE.heavy>
11

>  <SCORE.norm>
-1.01219

>  <RMSD>
0.505

$$$$
ligand
 OpenBabel11021811493D
libRbt.so/2013.1/901 2013/11/27
 11 12  0  0  0  0  0  0  0  0999 V2000
   12.5243   11.6865    8.8284 N   0  0  0  0  0  0  0  0  0  0  0  0
   11.9882   12.8986    9.0611 C   0  0  0  0  0  0  0  0  0  0  0  0
   12.0634   13.4419   10.3355 N   0  0  0  0  0  0  0  0  0  0  0  0
   11.3801   13.5949    8.0877 N   0  0  0  0  0  0  0  0  0  0  0  0
   11.2768   13.1080    6.8410 C   0  0  0  0  0  0  0  0  0  0  0  0
   11.8232   11.8399    6.5411 C   0  0  0  0  0  0  0  0  0  0  0  0
   12.4674   11.1274    7.6007 C   0  0  0  0  0  0  0  0  0  0  0  0
   13.0219    9.8904    7.3801 N   0  0  0  0  0  0  0  0  0  0  0  0
   11.5780   11.5967    5.2218 N   0  0  0  0  0  0  0  0  0  0  0  0
   10.9331   12.6040    4.7143 C   0  0  0  0  0  0  0  0  0  0  0  0
   10.7244   13.5658    5.6702 N   0  0  0  0  0  0  0  0  0  0  0  0
  1  7  2  0  0  0  0
  1  2  1  0  0  0  0
  2  3  1  0  0  0  0
  2  4  2  0  0  0  0
  4  5  1  0  0  0  0
  5  6  2  0  0  0  0
  5 11  1  0  0  0  0
  6  7  1  0  0  0  0
  6  9  1  0  0  0  0
  7  8  1  0  0  0  0
  9 10  1  0  0  0  0
 10 11  2  0  0  0  0
M  END
>  <CHROM.1>
11.80521911,12.30417362,7.32235152,-1.08482984,1.05432273,-2.07620092

>  <Name>
ligand

>  <RI>
0

>  <Rbt.Current_Directory>
/home/itssahil/PROJECTS/Mol_Feturizer/New_Systems/rnas/4FEO

>  <Rbt.Executable>
rbdock ($Id: //depot/dev/client3/rdock/2013.1/src/exe/rbdock.cxx#4 $)

>  <Rbt.Library>
libRbt.so (2013.1, Build901 2013/11/27)

>  <Rbt.Parameter_File>
/export/apps/rDock/src/rDock_2013.1_src/data/scripts/dock_solv.prm

>  <Rbt.Receptor>
prm/pocket_docking_7.prm

>  <SCORE>
-11.143

>  <SCORE.INTER>
-11.143

>  <SCORE.INTER.CONST>
1

>  <SCORE.INTER.POLAR>
0

>  <SCORE.INTER.ROT>
0

>  <SCORE.INTER.SOLV>
17.9355

>  <SCORE.INTER.VDW>
-17.0072

>  <SCORE.INTER.norm>
-1.013

>  <SCORE.INTRA>
0

>  <SCORE.INTRA.DIHEDRAL>
0

>  <SCORE.INTRA.DIHEDRAL.0>
0

>  <SCORE.INTRA.POLAR>
0

>  <SCORE.INTRA.POLAR.0>
0

>  <SCORE.INTRA.REPUL>
0

>  <SCORE.INTRA.REPUL.0>
0

>  <SCORE.INTRA.SOLV>
0

>  <SCORE.INTRA.SOLV.lig_0>
-48.9252

>  <SCORE.INTRA.VDW>
0

>  <SCORE.INTRA.VDW.0>
0

>  <SCORE.INTRA.norm>
0

>  <SCORE.RESTR>
0

>  <SCORE.RESTR.CAVITY>
0

>  <SCORE.RESTR.norm>
0

>  <SCORE.SYSTEM>
0

>  <SCORE.SYSTEM.CONST>
0

>  <SCORE.SYSTEM.DIHEDRAL>
0

>  <SCORE.SYSTEM.SOLV>
0

>  <SCORE.SYSTEM.norm>
0

>  <SCORE.heavy>
11

>  <SCORE.norm>
-1.013

>  <RMSD>
0.505

$$$$
ligand
 OpenBabel11021811493D
libRbt.so/2013.1/901 2013/11/27
 11 12  0  0  0  0  0  0  0  0999 V2000
   12.5221   11.6845    8.8247 N   0  0  0  0  0  0  0  0  0  0  0  0
   11.9857   12.8960    9.0593 C   0  0  0  0  0  0  0  0  0  0  0  0
   12.0620   13.4379   10.3343 N   0  0  0  0  0  0  0  0  0  0  0  0
   11.3762   13.5932    8.0875 N   0  0  0  0  0  0  0  0  0  0  0  0
   11.2718   13.1077    6.8403 C   0  0  0  0  0  0  0  0  0  0  0  0
   11.8185   11.8402    6.5383 C   0  0  0  0  0  0  0  0  0  0  0  0
   12.4641   11.1268    7.5964 C   0  0  0  0  0  0  0  0  0  0  0  0
   13.0189    9.8902    7.3737 N   0  0  0  0  0  0  0  0  0  0  0  0
   11.5719   11.5984    5.2190 N   0  0  0  0  0  0  0  0  0  0  0  0
   10.9260   12.6059    4.7134 C   0  0  0  0  0  0  0  0  0  0  0  0
   10.7179   13.5666    5.6706 N   0  0  0  0  0  0  0  0  0  0  0  0
  1  7  2  0  0  0  0
  1  2  1  0  0  0  0
  2  3  1  0  0  0  0
  2  4  2  0  0  0  0
  4  5  1  0  0  0  0
  5  6  2  0  0  0  0
  5 11  1  0  0  0  0
  6  7  1  0  0  0  0
  6  9  1  0  0  0  0
  7  8  1  0  0  0  0
  9 10  1  0  0  0  0
 10 11  2  0  0  0  0
M  END
>  <CHROM.1>
11.80109784,12.30354413,7.32014670,-1.08335044,1.05339957,-2.07633009

>  <Name>
ligand

>  <RI>
0

>  <Rbt.Current_Directory>
/home/itssahil/PROJECTS/Mol_Feturizer/New_Systems/rnas/4FEO

>  <Rbt.Executable>
rbdock ($Id: //depot/dev/client3/rdock/2013.1/src/exe/rbdock.cxx#4 $)

>  <Rbt.Library>
libRbt.so (2013.1, Build901 2013/11/27)

>  <Rbt.Parameter_File>
/export/apps/rDock/src/rDock_2013.1_src/data/scripts/dock_solv.prm

>  <Rbt.Receptor>
prm/blind_docking_40.prm

>  <SCORE>
-11.1434

>  <SCORE.INTER>
-11.1434

>  <SCORE.INTER.CONST>
1

>  <SCORE.INTER.POLAR>
0

>  <SCORE.INTER.ROT>
0

>  <SCORE.INTER.SOLV>
17.9387

>  <SCORE.INTER.VDW>
-17.0085

>  <SCORE.INTER.norm>
-1.01304

>  <SCORE.INTRA>
0

>  <SCORE.INTRA.DIHEDRAL>
0

>  <SCORE.INTRA.DIHEDRAL.0>
0

>  <SCORE.INTRA.POLAR>
0

>  <SCORE.INTRA.POLAR.0>
0

>  <SCORE.INTRA.REPUL>
0

>  <SCORE.INTRA.REPUL.0>
0

>  <SCORE.INTRA.SOLV>
0

>  <SCORE.INTRA.SOLV.lig_0>
-48.9252

>  <SCORE.INTRA.VDW>
0

>  <SCORE.INTRA.VDW.0>
0

>  <SCORE.INTRA.norm>
0

>  <SCORE.RESTR>
0

>  <SCORE.RESTR.CAVITY>
0

>  <SCORE.RESTR.norm>
0

>  <SCORE.SYSTEM>
0

>  <SCORE.SYSTEM.CONST>
0

>  <SCORE.SYSTEM.DIHEDRAL>
0

>  <SCORE.SYSTEM.SOLV>
0

>  <SCORE.SYSTEM.norm>
0

>  <SCORE.heavy>
11

>  <SCORE.norm>
-1.01304

>  <RMSD>
0.506

$$$$
ligand
 OpenBabel11021811493D
libRbt.so/2013.1/901 2013/11/27
 11 12  0  0  0  0  0  0  0  0999 V2000
   12.5025   11.6814    8.8250 N   0  0  0  0  0  0  0  0  0  0  0  0
   11.9873   12.9047    9.0462 C   0  0  0  0  0  0  0  0  0  0  0  0
   12.0640   13.4548   10.3176 N   0  0  0  0  0  0  0  0  0  0  0  0
   11.3985   13.6055    8.0644 N   0  0  0  0  0  0  0  0  0  0  0  0
   11.2944   13.1125    6.8201 C   0  0  0  0  0  0  0  0  0  0  0  0
   11.8194   11.8326    6.5321 C   0  0  0  0  0  0  0  0  0  0  0  0
   12.4434   11.1154    7.6006 C   0  0  0  0  0  0  0  0  0  0  0  0
   12.9765    9.8670    7.3916 N   0  0  0  0  0  0  0  0  0  0  0  0
   11.5784   11.5853    5.2128 N   0  0  0  0  0  0  0  0  0  0  0  0
   10.9555   12.6008    4.6945 C   0  0  0  0  0  0  0  0  0  0  0  0
   10.7582   13.5726    5.6427 N   0  0  0  0  0  0  0  0  0  0  0  0
  1  7  2  0  0  0  0
  1  2  1  0  0  0  0
  2  3  1  0  0  0  0
  2  4  2  0  0  0  0
  4  5  1  0  0  0  0
  5  6  2  0  0  0  0
  5 11  1  0  0  0  0
  6  7  1  0  0  0  0
  6  9  1  0  0  0  0
  7  8  1  0  0  0  0
  9 10  1  0  0  0  0
 10 11  2  0  0  0  0
M  END
>  <CHROM.1>
11.80478670,12.30226546,7.31022796,-1.07821832,1.07357556,-2.08849576

>  <Name>
ligand

>  <RI>
0

>  <Rbt.Current_Directory>
/home/itssahil/PROJECTS/Mol_Feturizer/New_Systems/rnas/4FEO

>  <Rbt.Executable>
rbdock ($Id: //depot/dev/client3/rdock/2013.1/src/exe/rbdock.cxx#4 $)

>  <Rbt.Library>
libRbt.so (2013.1, Build901 2013/11/27)

>  <Rbt.Parameter_File>
/export/apps/rDock/src/rDock_2013.1_src/data/scripts/dock_solv.prm

>  <Rbt.Receptor>
prm/blind_docking_60.prm

>  <SCORE>
-11.1532

>  <SCORE.INTER>
-11.1532

>  <SCORE.INTER.CONST>
1

>  <SCORE.INTER.POLAR>
0

>  <SCORE.INTER.ROT>
0

>  <SCORE.INTER.SOLV>
18.1261

>  <SCORE.INTER.VDW>
-17.0775

>  <SCORE.INTER.norm>
-1.01393

>  <SCORE.INTRA>
0

>  <SCORE.INTRA.DIHEDRAL>
0

>  <SCORE.INTRA.DIHEDRAL.0>
0

>  <SCORE.INTRA.POLAR>
0

>  <SCORE.INTRA.POLAR.0>
0

>  <SCORE.INTRA.REPUL>
0

>  <SCORE.INTRA.REPUL.0>
0

>  <SCORE.INTRA.SOLV>
0

>  <SCORE.INTRA.SOLV.lig_0>
-48.9252

>  <SCORE.INTRA.VDW>
0

>  <SCORE.INTRA.VDW.0>
0

>  <SCORE.INTRA.norm>
0

>  <SCORE.RESTR>
0

>  <SCORE.RESTR.CAVITY>
0

>  <SCORE.RESTR.norm>
0

>  <SCORE.SYSTEM>
0

>  <SCORE.SYSTEM.CONST>
0

>  <SCORE.SYSTEM.DIHEDRAL>
0

>  <SCORE.SYSTEM.SOLV>
0

>  <SCORE.SYSTEM.norm>
0

>  <SCORE.heavy>
11

>  <SCORE.norm>
-1.01393

>  <RMSD>
0.506

$$$$
ligand
 OpenBabel11021811493D
libRbt.so/2013.1/901 2013/11/27
 11 12  0  0  0  0  0  0  0  0999 V2000
   12.5167   11.6868    8.8265 N   0  0  0  0  0  0  0  0  0  0  0  0
   11.9836   12.9006    9.0570 C   0  0  0  0  0  0  0  0  0  0  0  0
   12.0567   13.4443   10.3314 N   0  0  0  0  0  0  0  0  0  0  0  0
   11.3805   13.5983    8.0816 N   0  0  0  0  0  0  0  0  0  0  0  0
   11.2793   13.1112    6.8347 C   0  0  0  0  0  0  0  0  0  0  0  0
   11.8228   11.8413    6.5371 C   0  0  0  0  0  0  0  0  0  0  0  0
   12.4617   11.1273    7.5988 C   0  0  0  0  0  0  0  0  0  0  0  0
   13.0130    9.8885    7.3804 N   0  0  0  0  0  0  0  0  0  0  0  0
   11.5807   11.5982    5.2171 N   0  0  0  0  0  0  0  0  0  0  0  0
   10.9404   12.6072    4.7073 C   0  0  0  0  0  0  0  0  0  0  0  0
   10.7318   13.5701    5.6621 N   0  0  0  0  0  0  0  0  0  0  0  0
  1  7  2  0  0  0  0
  1  2  1  0  0  0  0
  2  3  1  0  0  0  0
  2  4  2  0  0  0  0
  4  5  1  0  0  0  0
  5  6  2  0  0  0  0
  5 11  1  0  0  0  0
  6  7  1  0  0  0  0
  6  9  1  0  0  0  0
  7  8  1  0  0  0  0
  9 10  1  0  0  0  0
 10 11  2  0  0  0  0
M  END
>  <CHROM.1>
11.80388625,12.30596568,7.31804562,-1.08705830,1.05839316,-2.07471981

>  <Name>
ligand

>  <RI>
0

>  <Rbt.Current_Directory>
/home/itssahil/PROJECTS/Mol_Feturizer/New_Systems/rnas/4FEO

>  <Rbt.Executable>
rbdock ($Id: //depot/dev/client3/rdock/2013.1/src/exe/rbdock.cxx#4 $)

>  <Rbt.Library>
libRbt.so (2013.1, Build901 2013/11/27)

>  <Rbt.Parameter_File>
/export/apps/rDock/src/rDock_2013.1_src/data/scripts/dock_solv.prm

>  <Rbt.Receptor>
prm/pocket_docking_4.prm

>  <SCORE>
-11.1396

>  <SCORE.INTER>
-11.1396

>  <SCORE.INTER.CONST>
1

>  <SCORE.INTER.POLAR>
0

>  <SCORE.INTER.ROT>
0

>  <SCORE.INTER.SOLV>
17.979

>  <SCORE.INTER.VDW>
-17.0194

>  <SCORE.INTER.norm>
-1.01269

>  <SCORE.INTRA>
0

>  <SCORE.INTRA.DIHEDRAL>
0

>  <SCORE.INTRA.DIHEDRAL.0>
0

>  <SCORE.INTRA.POLAR>
0

>  <SCORE.INTRA.POLAR.0>
0

>  <SCORE.INTRA.REPUL>
0

>  <SCORE.INTRA.REPUL.0>
0

>  <SCORE.INTRA.SOLV>
0

>  <SCORE.INTRA.SOLV.lig_0>
-48.9252

>  <SCORE.INTRA.VDW>
0

>  <SCORE.INTRA.VDW.0>
0

>  <SCORE.INTRA.norm>
0

>  <SCORE.RESTR>
0

>  <SCORE.RESTR.CAVITY>
0

>  <SCORE.RESTR.norm>
0

>  <SCORE.SYSTEM>
0

>  <SCORE.SYSTEM.CONST>
0

>  <SCORE.SYSTEM.DIHEDRAL>
0

>  <SCORE.SYSTEM.SOLV>
0

>  <SCORE.SYSTEM.norm>
0

>  <SCORE.heavy>
11

>  <SCORE.norm>
-1.01269

>  <RMSD>
0.506

$$$$
ligand
 OpenBabel11021811493D
libRbt.so/2013.1/901 2013/11/27
 11 12  0  0  0  0  0  0  0  0999 V2000
   12.3727   11.4765    8.8026 N   0  0  0  0  0  0  0  0  0  0  0  0
   11.9752   12.7421    9.0283 C   0  0  0  0  0  0  0  0  0  0  0  0
   12.0923   13.2742   10.3043 N   0  0  0  0  0  0  0  0  0  0  0  0
   11.4657   13.5026    8.0464 N   0  0  0  0  0  0  0  0  0  0  0  0
   11.3266   13.0299    6.7977 C   0  0  0  0  0  0  0  0  0  0  0  0
   11.7290   11.7074    6.5050 C   0  0  0  0  0  0  0  0  0  0  0  0
   12.2711   10.9267    7.5736 C   0  0  0  0  0  0  0  0  0  0  0  0
   12.6839    9.6342    7.3603 N   0  0  0  0  0  0  0  0  0  0  0  0
   11.4780   11.4928    5.1818 N   0  0  0  0  0  0  0  0  0  0  0  0
   10.9604   12.5668    4.6655 C   0  0  0  0  0  0  0  0  0  0  0  0
   10.8483   13.5469    5.6190 N   0  0  0  0  0  0  0  0  0  0  0  0
  1  7  2  0  0  0  0
  1  2  1  0  0  0  0
  2  3  1  0  0  0  0
  2  4  2  0  0  0  0
  4  5  1  0  0  0  0
  5  6  2  0  0  0  0
  5 11  1  0  0  0  0
  6  7  1  0  0  0  0
  6  9  1  0  0  0  0
  7  8  1  0  0  0  0
  9 10  1  0  0  0  0
 10 11  2  0  0  0  0
M  END
>  <CHROM.1>
11.75220810,12.17122855,7.28633560,-0.97972425,1.16010622,-2.17022593

>  <Name>
ligand

>  <RI>
0

>  <Rbt.Current_Directory>
/home/itssahil/PROJECTS/Mol_Feturizer/New_Systems/rnas/4FEO

>  <Rbt.Executable>
rbdock ($Id: //depot/dev/client3/rdock/2013.1/src/exe/rbdock.cxx#4 $)

>  <Rbt.Library>
libRbt.so (2013.1, Build901 2013/11/27)

>  <Rbt.Parameter_File>
/export/apps/rDock/src/rDock_2013.1_src/data/scripts/dock_solv.prm

>  <Rbt.Receptor>
prm/pocket_docking_5.prm

>  <SCORE>
-11.1573

>  <SCORE.INTER>
-11.1573

>  <SCORE.INTER.CONST>
1

>  <SCORE.INTER.POLAR>
0

>  <SCORE.INTER.ROT>
0

>  <SCORE.INTER.SOLV>
18.7048

>  <SCORE.INTER.VDW>
-17.2731

>  <SCORE.INTER.norm>
-1.0143

>  <SCORE.INTRA>
0

>  <SCORE.INTRA.DIHEDRAL>
0

>  <SCORE.INTRA.DIHEDRAL.0>
0

>  <SCORE.INTRA.POLAR>
0

>  <SCORE.INTRA.POLAR.0>
0

>  <SCORE.INTRA.REPUL>
0

>  <SCORE.INTRA.REPUL.0>
0

>  <SCORE.INTRA.SOLV>
0

>  <SCORE.INTRA.SOLV.lig_0>
-48.9252

>  <SCORE.INTRA.VDW>
0

>  <SCORE.INTRA.VDW.0>
0

>  <SCORE.INTRA.norm>
0

>  <SCORE.RESTR>
0

>  <SCORE.RESTR.CAVITY>
0

>  <SCORE.RESTR.norm>
0

>  <SCORE.SYSTEM>
0

>  <SCORE.SYSTEM.CONST>
0

>  <SCORE.SYSTEM.DIHEDRAL>
0

>  <SCORE.SYSTEM.SOLV>
0

>  <SCORE.SYSTEM.norm>
0

>  <SCORE.heavy>
11

>  <SCORE.norm>
-1.0143

>  <RMSD>
0.506

$$$$
ligand
 OpenBabel11021811493D
libRbt.so/2013.1/901 2013/11/27
 11 12  0  0  0  0  0  0  0  0999 V2000
   12.5206   11.6828    8.8257 N   0  0  0  0  0  0  0  0  0  0  0  0
   11.9853   12.8950    9.0594 C   0  0  0  0  0  0  0  0  0  0  0  0
   12.0594   13.4364   10.3347 N   0  0  0  0  0  0  0  0  0  0  0  0
   11.3792   13.5933    8.0863 N   0  0  0  0  0  0  0  0  0  0  0  0
   11.2770   13.1083    6.8387 C   0  0  0  0  0  0  0  0  0  0  0  0
   11.8226   11.8401    6.5377 C   0  0  0  0  0  0  0  0  0  0  0  0
   12.4647   11.1255    7.5971 C   0  0  0  0  0  0  0  0  0  0  0  0
   13.0183    9.8882    7.3755 N   0  0  0  0  0  0  0  0  0  0  0  0
   11.5789   11.5990    5.2177 N   0  0  0  0  0  0  0  0  0  0  0  0
   10.9357   12.6076    4.7108 C   0  0  0  0  0  0  0  0  0  0  0  0
   10.7266   13.5683    5.6678 N   0  0  0  0  0  0  0  0  0  0  0  0
  1  7  2  0  0  0  0
  1  2  1  0  0  0  0
  2  3  1  0  0  0  0
  2  4  2  0  0  0  0
  4  5  1  0  0  0  0
  5  6  2  0  0  0  0
  5 11  1  0  0  0  0
  6  7  1  0  0  0  0
  6  9  1  0  0  0  0
  7  8  1  0  0  0  0
  9 10  1  0  0  0  0
 10 11  2  0  0  0  0
M  END
>  <CHROM.1>
11.80406169,12.30325701,7.31960665,-1.08620902,1.05579779,-2.07357124

>  <Name>
ligand

>  <RI>
0

>  <Rbt.Current_Directory>
/home/itssahil/PROJECTS/Mol_Feturizer/New_Systems/rnas/4FEO

>  <Rbt.Executable>
rbdock ($Id: //depot/dev/client3/rdock/2013.1/src/exe/rbdock.cxx#4 $)

>  <Rbt.Library>
libRbt.so (2013.1, Build901 2013/11/27)

>  <Rbt.Parameter_File>
/export/apps/rDock/src/rDock_2013.1_src/data/scripts/dock_solv.prm

>  <Rbt.Receptor>
prm/pocket_docking_5.prm

>  <SCORE>
-11.1435

>  <SCORE.INTER>
-11.1435

>  <SCORE.INTER.CONST>
1

>  <SCORE.INTER.POLAR>
0

>  <SCORE.INTER.ROT>
0

>  <SCORE.INTER.SOLV>
17.9417

>  <SCORE.INTER.VDW>
-17.0095

>  <SCORE.INTER.norm>
-1.01304

>  <SCORE.INTRA>
0

>  <SCORE.INTRA.DIHEDRAL>
0

>  <SCORE.INTRA.DIHEDRAL.0>
0

>  <SCORE.INTRA.POLAR>
0

>  <SCORE.INTRA.POLAR.0>
0

>  <SCORE.INTRA.REPUL>
0

>  <SCORE.INTRA.REPUL.0>
0

>  <SCORE.INTRA.SOLV>
0

>  <SCORE.INTRA.SOLV.lig_0>
-48.9252

>  <SCORE.INTRA.VDW>
0

>  <SCORE.INTRA.VDW.0>
0

>  <SCORE.INTRA.norm>
0

>  <SCORE.RESTR>
0

>  <SCORE.RESTR.CAVITY>
0

>  <SCORE.RESTR.norm>
0

>  <SCORE.SYSTEM>
0

>  <SCORE.SYSTEM.CONST>
0

>  <SCORE.SYSTEM.DIHEDRAL>
0

>  <SCORE.SYSTEM.SOLV>
0

>  <SCORE.SYSTEM.norm>
0

>  <SCORE.heavy>
11

>  <SCORE.norm>
-1.01304

>  <RMSD>
0.506

$$$$
ligand
 OpenBabel11021811493D
libRbt.so/2013.1/901 2013/11/27
 11 12  0  0  0  0  0  0  0  0999 V2000
   12.5025   11.6666    8.8155 N   0  0  0  0  0  0  0  0  0  0  0  0
   11.9693   12.8823    9.0358 C   0  0  0  0  0  0  0  0  0  0  0  0
   12.0371   13.4341   10.3070 N   0  0  0  0  0  0  0  0  0  0  0  0
   11.3712   13.5741    8.0532 N   0  0  0  0  0  0  0  0  0  0  0  0
   11.2752   13.0790    6.8091 C   0  0  0  0  0  0  0  0  0  0  0  0
   11.8190   11.8068    6.5221 C   0  0  0  0  0  0  0  0  0  0  0  0
   12.4525   11.0992    7.5913 C   0  0  0  0  0  0  0  0  0  0  0  0
   13.0039    9.8585    7.3834 N   0  0  0  0  0  0  0  0  0  0  0  0
   11.5827   11.5554    5.2026 N   0  0  0  0  0  0  0  0  0  0  0  0
   10.9455   12.5615    4.6834 C   0  0  0  0  0  0  0  0  0  0  0  0
   10.7334   13.5307    5.6310 N   0  0  0  0  0  0  0  0  0  0  0  0
  1  7  2  0  0  0  0
  1  2  1  0  0  0  0
  2  3  1  0  0  0  0
  2  4  2  0  0  0  0
  4  5  1  0  0  0  0
  5  6  2  0  0  0  0
  5 11  1  0  0  0  0
  6  7  1  0  0  0  0
  6  9  1  0  0  0  0
  7  8  1  0  0  0  0
  9 10  1  0  0  0  0
 10 11  2  0  0  0  0
M  END
>  <CHROM.1>
11.79697696,12.27650658,7.29991637,-1.09434543,1.06128030,-2.07482715

>  <Name>
ligand

>  <RI>
0

>  <Rbt.Current_Directory>
/home/itssahil/PROJECTS/Mol_Feturizer/New_Systems/rnas/4FEO

>  <Rbt.Executable>
rbdock ($Id: //depot/dev/client3/rdock/2013.1/src/exe/rbdock.cxx#4 $)

>  <Rbt.Library>
libRbt.so (2013.1, Build901 2013/11/27)

>  <Rbt.Parameter_File>
/export/apps/rDock/src/rDock_2013.1_src/data/scripts/dock_solv.prm

>  <Rbt.Receptor>
prm/pocket_docking_7.prm

>  <SCORE>
-11.1324

>  <SCORE.INTER>
-11.1324

>  <SCORE.INTER.CONST>
1

>  <SCORE.INTER.POLAR>
0

>  <SCORE.INTER.ROT>
0

>  <SCORE.INTER.SOLV>
18.0131

>  <SCORE.INTER.VDW>
-17.0259

>  <SCORE.INTER.norm>
-1.01203

>  <SCORE.INTRA>
0

>  <SCORE.INTRA.DIHEDRAL>
0

>  <SCORE.INTRA.DIHEDRAL.0>
0

>  <SCORE.INTRA.POLAR>
0

>  <SCORE.INTRA.POLAR.0>
0

>  <SCORE.INTRA.REPUL>
0

>  <SCORE.INTRA.REPUL.0>
0

>  <SCORE.INTRA.SOLV>
0

>  <SCORE.INTRA.SOLV.lig_0>
-48.9252

>  <SCORE.INTRA.VDW>
0

>  <SCORE.INTRA.VDW.0>
0

>  <SCORE.INTRA.norm>
0

>  <SCORE.RESTR>
0

>  <SCORE.RESTR.CAVITY>
0

>  <SCORE.RESTR.norm>
0

>  <SCORE.SYSTEM>
0

>  <SCORE.SYSTEM.CONST>
0

>  <SCORE.SYSTEM.DIHEDRAL>
0

>  <SCORE.SYSTEM.SOLV>
0

>  <SCORE.SYSTEM.norm>
0

>  <SCORE.heavy>
11

>  <SCORE.norm>
-1.01203

>  <RMSD>
0.506

$$$$
ligand
 OpenBabel11021811493D
libRbt.so/2013.1/901 2013/11/27
 11 12  0  0  0  0  0  0  0  0999 V2000
   12.5209   11.6852    8.8187 N   0  0  0  0  0  0  0  0  0  0  0  0
   11.9684   12.8904    9.0485 C   0  0  0  0  0  0  0  0  0  0  0  0
   12.0336   13.4363   10.3225 N   0  0  0  0  0  0  0  0  0  0  0  0
   11.3535   13.5775    8.0729 N   0  0  0  0  0  0  0  0  0  0  0  0
   11.2594   13.0877    6.8266 C   0  0  0  0  0  0  0  0  0  0  0  0
   11.8230   11.8264    6.5296 C   0  0  0  0  0  0  0  0  0  0  0  0
   12.4740   11.1238    7.5916 C   0  0  0  0  0  0  0  0  0  0  0  0
   13.0451    9.8938    7.3739 N   0  0  0  0  0  0  0  0  0  0  0  0
   11.5840   11.5784    5.2101 N   0  0  0  0  0  0  0  0  0  0  0  0
   10.9272   12.5764    4.6998 C   0  0  0  0  0  0  0  0  0  0  0  0
   10.7038   13.5367    5.6539 N   0  0  0  0  0  0  0  0  0  0  0  0
  1  7  2  0  0  0  0
  1  2  1  0  0  0  0
  2  3  1  0  0  0  0
  2  4  2  0  0  0  0
  4  5  1  0  0  0  0
  5  6  2  0  0  0  0
  5 11  1  0  0  0  0
  6  7  1  0  0  0  0
  6  9  1  0  0  0  0
  7  8  1  0  0  0  0
  9 10  1  0  0  0  0
 10 11  2  0  0  0  0
M  END
>  <CHROM.1>
11.79719463,12.29143603,7.31021064,-1.10138661,1.04394789,-2.06315130

>  <Name>
ligand

>  <RI>
0

>  <Rbt.Current_Directory>
/home/itssahil/PROJECTS/Mol_Feturizer/New_Systems/rnas/4FEO

>  <Rbt.Executable>
rbdock ($Id: //depot/dev/client3/rdock/2013.1/src/exe/rbdock.cxx#4 $)

>  <Rbt.Library>
libRbt.so (2013.1, Build901 2013/11/27)

>  <Rbt.Parameter_File>
/export/apps/rDock/src/rDock_2013.1_src/data/scripts/dock_solv.prm

>  <Rbt.Receptor>
prm/pocket_docking_4.prm

>  <SCORE>
-11.1155

>  <SCORE.INTER>
-11.1155

>  <SCORE.INTER.CONST>
1

>  <SCORE.INTER.POLAR>
0

>  <SCORE.INTER.ROT>
0

>  <SCORE.INTER.SOLV>
17.8795

>  <SCORE.INTER.VDW>
-16.9702

>  <SCORE.INTER.norm>
-1.0105

>  <SCORE.INTRA>
0

>  <SCORE.INTRA.DIHEDRAL>
0

>  <SCORE.INTRA.DIHEDRAL.0>
0

>  <SCORE.INTRA.POLAR>
0

>  <SCORE.INTRA.POLAR.0>
0

>  <SCORE.INTRA.REPUL>
0

>  <SCORE.INTRA.REPUL.0>
0

>  <SCORE.INTRA.SOLV>
0

>  <SCORE.INTRA.SOLV.lig_0>
-48.9252

>  <SCORE.INTRA.VDW>
0

>  <SCORE.INTRA.VDW.0>
0

>  <SCORE.INTRA.norm>
0

>  <SCORE.RESTR>
0

>  <SCORE.RESTR.CAVITY>
0

>  <SCORE.RESTR.norm>
0

>  <SCORE.SYSTEM>
0

>  <SCORE.SYSTEM.CONST>
0

>  <SCORE.SYSTEM.DIHEDRAL>
0

>  <SCORE.SYSTEM.SOLV>
0

>  <SCORE.SYSTEM.norm>
0

>  <SCORE.heavy>
11

>  <SCORE.norm>
-1.0105

>  <RMSD>
0.507

$$$$
ligand
 OpenBabel11021811493D
libRbt.so/2013.1/901 2013/11/27
 11 12  0  0  0  0  0  0  0  0999 V2000
   12.5155   11.6692    8.8189 N   0  0  0  0  0  0  0  0  0  0  0  0
   11.9806   12.8838    9.0404 C   0  0  0  0  0  0  0  0  0  0  0  0
   12.0497   13.4355   10.3116 N   0  0  0  0  0  0  0  0  0  0  0  0
   11.3794   13.5748    8.0590 N   0  0  0  0  0  0  0  0  0  0  0  0
   11.2821   13.0798    6.8150 C   0  0  0  0  0  0  0  0  0  0  0  0
   11.8277   11.8086    6.5267 C   0  0  0  0  0  0  0  0  0  0  0  0
   12.4644   11.1019    7.5947 C   0  0  0  0  0  0  0  0  0  0  0  0
   13.0176    9.8623    7.3855 N   0  0  0  0  0  0  0  0  0  0  0  0
   11.5894   11.5570    5.2077 N   0  0  0  0  0  0  0  0  0  0  0  0
   10.9495   12.5621    4.6898 C   0  0  0  0  0  0  0  0  0  0  0  0
   10.7373   13.5307    5.6380 N   0  0  0  0  0  0  0  0  0  0  0  0
  1  7  2  0  0  0  0
  1  2  1  0  0  0  0
  2  3  1  0  0  0  0
  2  4  2  0  0  0  0
  4  5  1  0  0  0  0
  5  6  2  0  0  0  0
  5 11  1  0  0  0  0
  6  7  1  0  0  0  0
  6  9  1  0  0  0  0
  7  8  1  0  0  0  0
  9 10  1  0  0  0  0
 10 11  2  0  0  0  0
M  END
>  <CHROM.1>
11.80620372,12.27811379,7.30471028,-1.09291501,1.05882121,-2.07587129

>  <Name>
ligand

>  <RI>
0

>  <Rbt.Current_Directory>
/home/itssahil/PROJECTS/Mol_Feturizer/New_Systems/rnas/4FEO

>  <Rbt.Executable>
rbdock ($Id: //depot/dev/client3/rdock/2013.1/src/exe/rbdock.cxx#4 $)

>  <Rbt.Library>
libRbt.so (2013.1, Build901 2013/11/27)

>  <Rbt.Parameter_File>
/export/apps/rDock/src/rDock_2013.1_src/data/scripts/dock_solv.prm

>  <Rbt.Receptor>
prm/pocket_docking_5.prm

>  <SCORE>
-11.1336

>  <SCORE.INTER>
-11.1336

>  <SCORE.INTER.CONST>
1

>  <SCORE.INTER.POLAR>
0

>  <SCORE.INTER.ROT>
0

>  <SCORE.INTER.SOLV>
17.9557

>  <SCORE.INTER.VDW>
-17.0077

>  <SCORE.INTER.norm>
-1.01215

>  <SCORE.INTRA>
0

>  <SCORE.INTRA.DIHEDRAL>
0

>  <SCORE.INTRA.DIHEDRAL.0>
0

>  <SCORE.INTRA.POLAR>
0

>  <SCORE.INTRA.POLAR.0>
0

>  <SCORE.INTRA.REPUL>
0

>  <SCORE.INTRA.REPUL.0>
0

>  <SCORE.INTRA.SOLV>
0

>  <SCORE.INTRA.SOLV.lig_0>
-48.9252

>  <SCORE.INTRA.VDW>
0

>  <SCORE.INTRA.VDW.0>
0

>  <SCORE.INTRA.norm>
0

>  <SCORE.RESTR>
0

>  <SCORE.RESTR.CAVITY>
0

>  <SCORE.RESTR.norm>
0

>  <SCORE.SYSTEM>
0

>  <SCORE.SYSTEM.CONST>
0

>  <SCORE.SYSTEM.DIHEDRAL>
0

>  <SCORE.SYSTEM.SOLV>
0

>  <SCORE.SYSTEM.norm>
0

>  <SCORE.heavy>
11

>  <SCORE.norm>
-1.01215

>  <RMSD>
0.507

$$$$
ligand
 OpenBabel11021811493D
libRbt.so/2013.1/901 2013/11/27
 11 12  0  0  0  0  0  0  0  0999 V2000
   12.4843   11.6758    8.8195 N   0  0  0  0  0  0  0  0  0  0  0  0
   11.9789   12.9027    9.0431 C   0  0  0  0  0  0  0  0  0  0  0  0
   12.0594   13.4495   10.3157 N   0  0  0  0  0  0  0  0  0  0  0  0
   11.3966   13.6105    8.0623 N   0  0  0  0  0  0  0  0  0  0  0  0
   11.2893   13.1211    6.8170 C   0  0  0  0  0  0  0  0  0  0  0  0
   11.8039   11.8375    6.5265 C   0  0  0  0  0  0  0  0  0  0  0  0
   12.4213   11.1129    7.5938 C   0  0  0  0  0  0  0  0  0  0  0  0
   12.9443    9.8606    7.3825 N   0  0  0  0  0  0  0  0  0  0  0  0
   11.5618   11.5950    5.2065 N   0  0  0  0  0  0  0  0  0  0  0  0
   10.9476   12.6168    4.6900 C   0  0  0  0  0  0  0  0  0  0  0  0
   10.7577   13.5880    5.6402 N   0  0  0  0  0  0  0  0  0  0  0  0
  1  7  2  0  0  0  0
  1  2  1  0  0  0  0
  2  3  1  0  0  0  0
  2  4  2  0  0  0  0
  4  5  1  0  0  0  0
  5  6  2  0  0  0  0
  5 11  1  0  0  0  0
  6  7  1  0  0  0  0
  6  9  1  0  0  0  0
  7  8  1  0  0  0  0
  9 10  1  0  0  0  0
 10 11  2  0  0  0  0
M  END
>  <CHROM.1>
11.79267463,12.30558822,7.30562669,-1.07079651,1.08102463,-2.09287235

>  <Name>
ligand

>  <RI>
0

>  <Rbt.Current_Directory>
/home/itssahil/PROJECTS/Mol_Feturizer/New_Systems/rnas/4FEO

>  <Rbt.Executable>
rbdock ($Id: //depot/dev/client3/rdock/2013.1/src/exe/rbdock.cxx#4 $)

>  <Rbt.Library>
libRbt.so (2013.1, Build901 2013/11/27)

>  <Rbt.Parameter_File>
/export/apps/rDock/src/rDock_2013.1_src/data/scripts/dock_solv.prm

>  <Rbt.Receptor>
prm/pocket_docking_6.prm

>  <SCORE>
-11.1526

>  <SCORE.INTER>
-11.1526

>  <SCORE.INTER.CONST>
1

>  <SCORE.INTER.POLAR>
0

>  <SCORE.INTER.ROT>
0

>  <SCORE.INTER.SOLV>
18.2227

>  <SCORE.INTER.VDW>
-17.1093

>  <SCORE.INTER.norm>
-1.01388

>  <SCORE.INTRA>
0

>  <SCORE.INTRA.DIHEDRAL>
0

>  <SCORE.INTRA.DIHEDRAL.0>
0

>  <SCORE.INTRA.POLAR>
0

>  <SCORE.INTRA.POLAR.0>
0

>  <SCORE.INTRA.REPUL>
0

>  <SCORE.INTRA.REPUL.0>
0

>  <SCORE.INTRA.SOLV>
0

>  <SCORE.INTRA.SOLV.lig_0>
-48.9252

>  <SCORE.INTRA.VDW>
0

>  <SCORE.INTRA.VDW.0>
0

>  <SCORE.INTRA.norm>
0

>  <SCORE.RESTR>
0

>  <SCORE.RESTR.CAVITY>
0

>  <SCORE.RESTR.norm>
0

>  <SCORE.SYSTEM>
0

>  <SCORE.SYSTEM.CONST>
0

>  <SCORE.SYSTEM.DIHEDRAL>
0

>  <SCORE.SYSTEM.SOLV>
0

>  <SCORE.SYSTEM.norm>
0

>  <SCORE.heavy>
11

>  <SCORE.norm>
-1.01388

>  <RMSD>
0.507

$$$$
ligand
 OpenBabel11021811493D
libRbt.so/2013.1/901 2013/11/27
 11 12  0  0  0  0  0  0  0  0999 V2000
   12.5167   11.6815    8.8180 N   0  0  0  0  0  0  0  0  0  0  0  0
   11.9838   12.8934    9.0589 C   0  0  0  0  0  0  0  0  0  0  0  0
   12.0685   13.4318   10.3348 N   0  0  0  0  0  0  0  0  0  0  0  0
   11.3698   13.5940    8.0924 N   0  0  0  0  0  0  0  0  0  0  0  0
   11.2572   13.1120    6.8446 C   0  0  0  0  0  0  0  0  0  0  0  0
   11.8000   11.8443    6.5362 C   0  0  0  0  0  0  0  0  0  0  0  0
   12.4505   11.1271    7.5886 C   0  0  0  0  0  0  0  0  0  0  0  0
   13.0019    9.8902    7.3595 N   0  0  0  0  0  0  0  0  0  0  0  0
   11.5453   11.6064    5.2177 N   0  0  0  0  0  0  0  0  0  0  0  0
   10.8982   12.6164    4.7185 C   0  0  0  0  0  0  0  0  0  0  0  0
   10.6974   13.5749    5.6794 N   0  0  0  0  0  0  0  0  0  0  0  0
  1  7  2  0  0  0  0
  1  2  1  0  0  0  0
  2  3  1  0  0  0  0
  2  4  2  0  0  0  0
  4  5  1  0  0  0  0
  5  6  2  0  0  0  0
  5 11  1  0  0  0  0
  6  7  1  0  0  0  0
  6  9  1  0  0  0  0
  7  8  1  0  0  0  0
  9 10  1  0  0  0  0
 10 11  2  0  0  0  0
M  END
>  <CHROM.1>
11.78796889,12.30570238,7.31927816,-1.07135109,1.05205241,-2.08415743

>  <Name>
ligand

>  <RI>
0

>  <Rbt.Current_Directory>
/home/itssahil/PROJECTS/Mol_Feturizer/New_Systems/rnas/4FEO

>  <Rbt.Executable>
rbdock ($Id: //depot/dev/client3/rdock/2013.1/src/exe/rbdock.cxx#4 $)

>  <Rbt.Library>
libRbt.so (2013.1, Build901 2013/11/27)

>  <Rbt.Parameter_File>
/export/apps/rDock/src/rDock_2013.1_src/data/scripts/dock_solv.prm

>  <Rbt.Receptor>
prm/pocket_docking_6.prm

>  <SCORE>
-11.1021

>  <SCORE.INTER>
-11.1021

>  <SCORE.INTER.CONST>
1

>  <SCORE.INTER.POLAR>
0

>  <SCORE.INTER.ROT>
0

>  <SCORE.INTER.SOLV>
17.979

>  <SCORE.INTER.VDW>
-16.9944

>  <SCORE.INTER.norm>
-1.00929

>  <SCORE.INTRA>
0

>  <SCORE.INTRA.DIHEDRAL>
0

>  <SCORE.INTRA.DIHEDRAL.0>
0

>  <SCORE.INTRA.POLAR>
0

>  <SCORE.INTRA.POLAR.0>
0

>  <SCORE.INTRA.REPUL>
0

>  <SCORE.INTRA.REPUL.0>
0

>  <SCORE.INTRA.SOLV>
0

>  <SCORE.INTRA.SOLV.lig_0>
-48.9252

>  <SCORE.INTRA.VDW>
0

>  <SCORE.INTRA.VDW.0>
0

>  <SCORE.INTRA.norm>
0

>  <SCORE.RESTR>
0

>  <SCORE.RESTR.CAVITY>
0

>  <SCORE.RESTR.norm>
0

>  <SCORE.SYSTEM>
0

>  <SCORE.SYSTEM.CONST>
0

>  <SCORE.SYSTEM.DIHEDRAL>
0

>  <SCORE.SYSTEM.SOLV>
0

>  <SCORE.SYSTEM.norm>
0

>  <SCORE.heavy>
11

>  <SCORE.norm>
-1.00929

>  <RMSD>
0.507

$$$$
ligand
 OpenBabel11021811493D
libRbt.so/2013.1/901 2013/11/27
 11 12  0  0  0  0  0  0  0  0999 V2000
   12.5269   11.6850    8.8189 N   0  0  0  0  0  0  0  0  0  0  0  0
   11.9762   12.8906    9.0514 C   0  0  0  0  0  0  0  0  0  0  0  0
   12.0434   13.4342   10.3262 N   0  0  0  0  0  0  0  0  0  0  0  0
   11.3610   13.5800    8.0777 N   0  0  0  0  0  0  0  0  0  0  0  0
   11.2649   13.0925    6.8306 C   0  0  0  0  0  0  0  0  0  0  0  0
   11.8266   11.8310    6.5309 C   0  0  0  0  0  0  0  0  0  0  0  0
   12.4780   11.1258    7.5909 C   0  0  0  0  0  0  0  0  0  0  0  0
   13.0473    9.8955    7.3705 N   0  0  0  0  0  0  0  0  0  0  0  0
   11.5858   11.5855    5.2112 N   0  0  0  0  0  0  0  0  0  0  0  0
   10.9297   12.5852    4.7033 C   0  0  0  0  0  0  0  0  0  0  0  0
   10.7085   13.5441    5.6593 N   0  0  0  0  0  0  0  0  0  0  0  0
  1  7  2  0  0  0  0
  1  2  1  0  0  0  0
  2  3  1  0  0  0  0
  2  4  2  0  0  0  0
  4  5  1  0  0  0  0
  5  6  2  0  0  0  0
  5 11  1  0  0  0  0
  6  7  1  0  0  0  0
  6  9  1  0  0  0  0
  7  8  1  0  0  0  0
  9 10  1  0  0  0  0
 10 11  2  0  0  0  0
M  END
>  <CHROM.1>
11.80223656,12.29475068,7.31229546,-1.09826101,1.04448489,-2.06415861

>  <Name>
ligand

>  <RI>
0

>  <Rbt.Current_Directory>
/home/itssahil/PROJECTS/Mol_Feturizer/New_Systems/rnas/4FEO

>  <Rbt.Executable>
rbdock ($Id: //depot/dev/client3/rdock/2013.1/src/exe/rbdock.cxx#4 $)

>  <Rbt.Library>
libRbt.so (2013.1, Build901 2013/11/27)

>  <Rbt.Parameter_File>
/export/apps/rDock/src/rDock_2013.1_src/data/scripts/dock_solv.prm

>  <Rbt.Receptor>
prm/pocket_docking_4.prm

>  <SCORE>
-11.1151

>  <SCORE.INTER>
-11.1151

>  <SCORE.INTER.CONST>
1

>  <SCORE.INTER.POLAR>
0

>  <SCORE.INTER.ROT>
0

>  <SCORE.INTER.SOLV>
17.862

>  <SCORE.INTER.VDW>
-16.9641

>  <SCORE.INTER.norm>
-1.01046

>  <SCORE.INTRA>
0

>  <SCORE.INTRA.DIHEDRAL>
0

>  <SCORE.INTRA.DIHEDRAL.0>
0

>  <SCORE.INTRA.POLAR>
0

>  <SCORE.INTRA.POLAR.0>
0

>  <SCORE.INTRA.REPUL>
0

>  <SCORE.INTRA.REPUL.0>
0

>  <SCORE.INTRA.SOLV>
0

>  <SCORE.INTRA.SOLV.lig_0>
-48.9252

>  <SCORE.INTRA.VDW>
0

>  <SCORE.INTRA.VDW.0>
0

>  <SCORE.INTRA.norm>
0

>  <SCORE.RESTR>
0

>  <SCORE.RESTR.CAVITY>
0

>  <SCORE.RESTR.norm>
0

>  <SCORE.SYSTEM>
0

>  <SCORE.SYSTEM.CONST>
0

>  <SCORE.SYSTEM.DIHEDRAL>
0

>  <SCORE.SYSTEM.SOLV>
0

>  <SCORE.SYSTEM.norm>
0

>  <SCORE.heavy>
11

>  <SCORE.norm>
-1.01046

>  <RMSD>
0.509

$$$$
ligand
 OpenBabel11021811493D
libRbt.so/2013.1/901 2013/11/27
 11 12  0  0  0  0  0  0  0  0999 V2000
   12.5058   11.6667    8.8122 N   0  0  0  0  0  0  0  0  0  0  0  0
   11.9735   12.8823    9.0352 C   0  0  0  0  0  0  0  0  0  0  0  0
   12.0433   13.4319   10.3072 N   0  0  0  0  0  0  0  0  0  0  0  0
   11.3742   13.5759    8.0546 N   0  0  0  0  0  0  0  0  0  0  0  0
   11.2763   13.0830    6.8098 C   0  0  0  0  0  0  0  0  0  0  0  0
   11.8192   11.8110    6.5199 C   0  0  0  0  0  0  0  0  0  0  0  0
   12.4539   11.1014    7.5871 C   0  0  0  0  0  0  0  0  0  0  0  0
   13.0045    9.8609    7.3763 N   0  0  0  0  0  0  0  0  0  0  0  0
   11.5809   11.5619    5.2004 N   0  0  0  0  0  0  0  0  0  0  0  0
   10.9434   12.5691    4.6837 C   0  0  0  0  0  0  0  0  0  0  0  0
   10.7330   13.5369    5.6332 N   0  0  0  0  0  0  0  0  0  0  0  0
  1  7  2  0  0  0  0
  1  2  1  0  0  0  0
  2  3  1  0  0  0  0
  2  4  2  0  0  0  0
  4  5  1  0  0  0  0
  5  6  2  0  0  0  0
  5 11  1  0  0  0  0
  6  7  1  0  0  0  0
  6  9  1  0  0  0  0
  7  8  1  0  0  0  0
  9 10  1  0  0  0  0
 10 11  2  0  0  0  0
M  END
>  <CHROM.1>
11.79845445,12.27944177,7.29855864,-1.09142492,1.06095866,-2.07571714

>  <Name>
ligand

>  <RI>
0

>  <Rbt.Current_Directory>
/home/itssahil/PROJECTS/Mol_Feturizer/New_Systems/rnas/4FEO

>  <Rbt.Executable>
rbdock ($Id: //depot/dev/client3/rdock/2013.1/src/exe/rbdock.cxx#4 $)

>  <Rbt.Library>
libRbt.so (2013.1, Build901 2013/11/27)

>  <Rbt.Parameter_File>
/export/apps/rDock/src/rDock_2013.1_src/data/scripts/dock_solv.prm

>  <Rbt.Receptor>
prm/pocket_docking_7.prm

>  <SCORE>
-11.131

>  <SCORE.INTER>
-11.131

>  <SCORE.INTER.CONST>
1

>  <SCORE.INTER.POLAR>
0

>  <SCORE.INTER.ROT>
0

>  <SCORE.INTER.SOLV>
18.0092

>  <SCORE.INTER.VDW>
-17.0237

>  <SCORE.INTER.norm>
-1.01191

>  <SCORE.INTRA>
0

>  <SCORE.INTRA.DIHEDRAL>
0

>  <SCORE.INTRA.DIHEDRAL.0>
0

>  <SCORE.INTRA.POLAR>
0

>  <SCORE.INTRA.POLAR.0>
0

>  <SCORE.INTRA.REPUL>
0

>  <SCORE.INTRA.REPUL.0>
0

>  <SCORE.INTRA.SOLV>
0

>  <SCORE.INTRA.SOLV.lig_0>
-48.9252

>  <SCORE.INTRA.VDW>
0

>  <SCORE.INTRA.VDW.0>
0

>  <SCORE.INTRA.norm>
0

>  <SCORE.RESTR>
0

>  <SCORE.RESTR.CAVITY>
0

>  <SCORE.RESTR.norm>
0

>  <SCORE.SYSTEM>
0

>  <SCORE.SYSTEM.CONST>
0

>  <SCORE.SYSTEM.DIHEDRAL>
0

>  <SCORE.SYSTEM.SOLV>
0

>  <SCORE.SYSTEM.norm>
0

>  <SCORE.heavy>
11

>  <SCORE.norm>
-1.01191

>  <RMSD>
0.509

$$$$
ligand
 OpenBabel11021811493D
libRbt.so/2013.1/901 2013/11/27
 11 12  0  0  0  0  0  0  0  0999 V2000
   12.4986   11.6809    8.8164 N   0  0  0  0  0  0  0  0  0  0  0  0
   11.9582   12.8941    9.0330 C   0  0  0  0  0  0  0  0  0  0  0  0
   12.0135   13.4457   10.3049 N   0  0  0  0  0  0  0  0  0  0  0  0
   11.3648   13.5837    8.0459 N   0  0  0  0  0  0  0  0  0  0  0  0
   11.2809   13.0887    6.8009 C   0  0  0  0  0  0  0  0  0  0  0  0
   11.8327   11.8191    6.5177 C   0  0  0  0  0  0  0  0  0  0  0  0
   12.4609   11.1139    7.5916 C   0  0  0  0  0  0  0  0  0  0  0  0
   13.0195    9.8759    7.3876 N   0  0  0  0  0  0  0  0  0  0  0  0
   11.6080   11.5672    5.1963 N   0  0  0  0  0  0  0  0  0  0  0  0
   10.9704   12.5707    4.6725 C   0  0  0  0  0  0  0  0  0  0  0  0
   10.7464   13.5385    5.6188 N   0  0  0  0  0  0  0  0  0  0  0  0
  1  7  2  0  0  0  0
  1  2  1  0  0  0  0
  2  3  1  0  0  0  0
  2  4  2  0  0  0  0
  4  5  1  0  0  0  0
  5  6  2  0  0  0  0
  5 11  1  0  0  0  0
  6  7  1  0  0  0  0
  6  9  1  0  0  0  0
  7  8  1  0  0  0  0
  9 10  1  0  0  0  0
 10 11  2  0  0  0  0
M  END
>  <CHROM.1>
11.80240742,12.28835789,7.29554853,-1.11305340,1.06106018,-2.05806231

>  <Name>
ligand

>  <RI>
0

>  <Rbt.Current_Directory>
/home/itssahil/PROJECTS/Mol_Feturizer/New_Systems/rnas/4FEO

>  <Rbt.Executable>
rbdock ($Id: //depot/dev/client3/rdock/2013.1/src/exe/rbdock.cxx#4 $)

>  <Rbt.Library>
libRbt.so (2013.1, Build901 2013/11/27)

>  <Rbt.Parameter_File>
/export/apps/rDock/src/rDock_2013.1_src/data/scripts/dock_solv.prm

>  <Rbt.Receptor>
prm/pocket_docking_3.prm

>  <SCORE>
-11.121

>  <SCORE.INTER>
-11.121

>  <SCORE.INTER.CONST>
1

>  <SCORE.INTER.POLAR>
0

>  <SCORE.INTER.ROT>
0

>  <SCORE.INTER.SOLV>
18.0144

>  <SCORE.INTER.VDW>
-17.0188

>  <SCORE.INTER.norm>
-1.011

>  <SCORE.INTRA>
0

>  <SCORE.INTRA.DIHEDRAL>
0

>  <SCORE.INTRA.DIHEDRAL.0>
0

>  <SCORE.INTRA.POLAR>
0

>  <SCORE.INTRA.POLAR.0>
0

>  <SCORE.INTRA.REPUL>
0

>  <SCORE.INTRA.REPUL.0>
0

>  <SCORE.INTRA.SOLV>
0

>  <SCORE.INTRA.SOLV.lig_0>
-48.9252

>  <SCORE.INTRA.VDW>
0

>  <SCORE.INTRA.VDW.0>
0

>  <SCORE.INTRA.norm>
0

>  <SCORE.RESTR>
0

>  <SCORE.RESTR.CAVITY>
0

>  <SCORE.RESTR.norm>
0

>  <SCORE.SYSTEM>
0

>  <SCORE.SYSTEM.CONST>
0

>  <SCORE.SYSTEM.DIHEDRAL>
0

>  <SCORE.SYSTEM.SOLV>
0

>  <SCORE.SYSTEM.norm>
0

>  <SCORE.heavy>
11

>  <SCORE.norm>
-1.011

>  <RMSD>
0.510

$$$$
ligand
 OpenBabel11021811493D
libRbt.so/2013.1/901 2013/11/27
 11 12  0  0  0  0  0  0  0  0999 V2000
   12.5420   11.6936    8.8094 N   0  0  0  0  0  0  0  0  0  0  0  0
   11.9666   12.8870    9.0446 C   0  0  0  0  0  0  0  0  0  0  0  0
   12.0369   13.4367   10.3166 N   0  0  0  0  0  0  0  0  0  0  0  0
   11.3238   13.5585    8.0762 N   0  0  0  0  0  0  0  0  0  0  0  0
   11.2237   13.0644    6.8320 C   0  0  0  0  0  0  0  0  0  0  0  0
   11.8107   11.8151    6.5297 C   0  0  0  0  0  0  0  0  0  0  0  0
   12.4910   11.1288    7.5840 C   0  0  0  0  0  0  0  0  0  0  0  0
   13.0858    9.9112    7.3607 N   0  0  0  0  0  0  0  0  0  0  0  0
   11.5595   11.5592    5.2139 N   0  0  0  0  0  0  0  0  0  0  0  0
   10.8743   12.5418    4.7108 C   0  0  0  0  0  0  0  0  0  0  0  0
   10.6428   13.4988    5.6662 N   0  0  0  0  0  0  0  0  0  0  0  0
  1  7  2  0  0  0  0
  1  2  1  0  0  0  0
  2  3  1  0  0  0  0
  2  4  2  0  0  0  0
  4  5  1  0  0  0  0
  5  6  2  0  0  0  0
  5 11  1  0  0  0  0
  6  7  1  0  0  0  0
  6  9  1  0  0  0  0
  7  8  1  0  0  0  0
  9 10  1  0  0  0  0
 10 11  2  0  0  0  0
M  END
>  <CHROM.1>
11.78516897,12.28094686,7.30975344,-1.09850333,1.01841084,-2.06746824

>  <Name>
ligand

>  <RI>
0

>  <Rbt.Current_Directory>
/home/itssahil/PROJECTS/Mol_Feturizer/New_Systems/rnas/4FEO

>  <Rbt.Executable>
rbdock ($Id: //depot/dev/client3/rdock/2013.1/src/exe/rbdock.cxx#4 $)

>  <Rbt.Library>
libRbt.so (2013.1, Build901 2013/11/27)

>  <Rbt.Parameter_File>
/export/apps/rDock/src/rDock_2013.1_src/data/scripts/dock_solv.prm

>  <Rbt.Receptor>
prm/blind_docking_40.prm

>  <SCORE>
-11.1171

>  <SCORE.INTER>
-11.1171

>  <SCORE.INTER.CONST>
1

>  <SCORE.INTER.POLAR>
0

>  <SCORE.INTER.ROT>
0

>  <SCORE.INTER.SOLV>
17.7412

>  <SCORE.INTER.VDW>
-16.9251

>  <SCORE.INTER.norm>
-1.01065

>  <SCORE.INTRA>
0

>  <SCORE.INTRA.DIHEDRAL>
0

>  <SCORE.INTRA.DIHEDRAL.0>
0

>  <SCORE.INTRA.POLAR>
0

>  <SCORE.INTRA.POLAR.0>
0

>  <SCORE.INTRA.REPUL>
0

>  <SCORE.INTRA.REPUL.0>
0

>  <SCORE.INTRA.SOLV>
0

>  <SCORE.INTRA.SOLV.lig_0>
-48.9252

>  <SCORE.INTRA.VDW>
0

>  <SCORE.INTRA.VDW.0>
0

>  <SCORE.INTRA.norm>
0

>  <SCORE.RESTR>
0

>  <SCORE.RESTR.CAVITY>
0

>  <SCORE.RESTR.norm>
0

>  <SCORE.SYSTEM>
0

>  <SCORE.SYSTEM.CONST>
0

>  <SCORE.SYSTEM.DIHEDRAL>
0

>  <SCORE.SYSTEM.SOLV>
0

>  <SCORE.SYSTEM.norm>
0

>  <SCORE.heavy>
11

>  <SCORE.norm>
-1.01065

>  <RMSD>
0.511

$$$$
ligand
 OpenBabel11021811493D
libRbt.so/2013.1/901 2013/11/27
 11 12  0  0  0  0  0  0  0  0999 V2000
   12.3725   11.7061    8.7997 N   0  0  0  0  0  0  0  0  0  0  0  0
   11.8520   12.9323    8.9899 C   0  0  0  0  0  0  0  0  0  0  0  0
   11.8883   13.4972   10.2567 N   0  0  0  0  0  0  0  0  0  0  0  0
   11.2964   13.6224    7.9814 N   0  0  0  0  0  0  0  0  0  0  0  0
   11.2320   13.1150    6.7402 C   0  0  0  0  0  0  0  0  0  0  0  0
   11.7643   11.8313    6.4842 C   0  0  0  0  0  0  0  0  0  0  0  0
   12.3523   11.1259    7.5806 C   0  0  0  0  0  0  0  0  0  0  0  0
   12.8902    9.8746    7.4036 N   0  0  0  0  0  0  0  0  0  0  0  0
   11.5659   11.5689    5.1607 N   0  0  0  0  0  0  0  0  0  0  0  0
   10.9616   12.5790    4.6108 C   0  0  0  0  0  0  0  0  0  0  0  0
   10.7350   13.5619    5.5408 N   0  0  0  0  0  0  0  0  0  0  0  0
  1  7  2  0  0  0  0
  1  2  1  0  0  0  0
  2  3  1  0  0  0  0
  2  4  2  0  0  0  0
  4  5  1  0  0  0  0
  5  6  2  0  0  0  0
  5 11  1  0  0  0  0
  6  7  1  0  0  0  0
  6  9  1  0  0  0  0
  7  8  1  0  0  0  0
  9 10  1  0  0  0  0
 10 11  2  0  0  0  0
M  END
>  <CHROM.1>
11.72514340,12.30997678,7.25595857,-1.13773447,1.09012925,-2.04755608

>  <Name>
ligand

>  <RI>
0

>  <Rbt.Current_Directory>
/home/itssahil/PROJECTS/Mol_Feturizer/New_Systems/rnas/4FEO

>  <Rbt.Executable>
rbdock ($Id: //depot/dev/client3/rdock/2013.1/src/exe/rbdock.cxx#4 $)

>  <Rbt.Library>
libRbt.so (2013.1, Build901 2013/11/27)

>  <Rbt.Parameter_File>
/export/apps/rDock/src/rDock_2013.1_src/data/scripts/dock_solv.prm

>  <Rbt.Receptor>
prm/pocket_docking_5.prm

>  <SCORE>
-11.0224

>  <SCORE.INTER>
-11.0224

>  <SCORE.INTER.CONST>
1

>  <SCORE.INTER.POLAR>
0

>  <SCORE.INTER.ROT>
0

>  <SCORE.INTER.SOLV>
18.6176

>  <SCORE.INTER.VDW>
-17.1541

>  <SCORE.INTER.norm>
-1.00203

>  <SCORE.INTRA>
0

>  <SCORE.INTRA.DIHEDRAL>
0

>  <SCORE.INTRA.DIHEDRAL.0>
0

>  <SCORE.INTRA.POLAR>
0

>  <SCORE.INTRA.POLAR.0>
0

>  <SCORE.INTRA.REPUL>
0

>  <SCORE.INTRA.REPUL.0>
0

>  <SCORE.INTRA.SOLV>
0

>  <SCORE.INTRA.SOLV.lig_0>
-48.9252

>  <SCORE.INTRA.VDW>
0

>  <SCORE.INTRA.VDW.0>
0

>  <SCORE.INTRA.norm>
0

>  <SCORE.RESTR>
0

>  <SCORE.RESTR.CAVITY>
0

>  <SCORE.RESTR.norm>
0

>  <SCORE.SYSTEM>
0

>  <SCORE.SYSTEM.CONST>
0

>  <SCORE.SYSTEM.DIHEDRAL>
0

>  <SCORE.SYSTEM.SOLV>
0

>  <SCORE.SYSTEM.norm>
0

>  <SCORE.heavy>
11

>  <SCORE.norm>
-1.00203

>  <RMSD>
0.512

$$$$
ligand
 OpenBabel11021811493D
libRbt.so/2013.1/901 2013/11/27
 11 12  0  0  0  0  0  0  0  0999 V2000
   12.3766   11.4857    8.7881 N   0  0  0  0  0  0  0  0  0  0  0  0
   11.9794   12.7511    9.0153 C   0  0  0  0  0  0  0  0  0  0  0  0
   12.1060   13.2849   10.2897 N   0  0  0  0  0  0  0  0  0  0  0  0
   11.4614   13.5098    8.0365 N   0  0  0  0  0  0  0  0  0  0  0  0
   11.3130   13.0353    6.7896 C   0  0  0  0  0  0  0  0  0  0  0  0
   11.7146   11.7129    6.4953 C   0  0  0  0  0  0  0  0  0  0  0  0
   12.2660   10.9341    7.5606 C   0  0  0  0  0  0  0  0  0  0  0  0
   12.6785    9.6419    7.3457 N   0  0  0  0  0  0  0  0  0  0  0  0
   11.4534   11.4964    5.1744 N   0  0  0  0  0  0  0  0  0  0  0  0
   10.9305   12.5691    4.6609 C   0  0  0  0  0  0  0  0  0  0  0  0
   10.8248   13.5503    5.6140 N   0  0  0  0  0  0  0  0  0  0  0  0
  1  7  2  0  0  0  0
  1  2  1  0  0  0  0
  2  3  1  0  0  0  0
  2  4  2  0  0  0  0
  4  5  1  0  0  0  0
  5  6  2  0  0  0  0
  5 11  1  0  0  0  0
  6  7  1  0  0  0  0
  6  9  1  0  0  0  0
  7  8  1  0  0  0  0
  9 10  1  0  0  0  0
 10 11  2  0  0  0  0
M  END
>  <CHROM.1>
11.74338958,12.17775635,7.27590702,-0.96523571,1.15468265,-2.18474539

>  <Name>
ligand

>  <RI>
0

>  <Rbt.Current_Directory>
/home/itssahil/PROJECTS/Mol_Feturizer/New_Systems/rnas/4FEO

>  <Rbt.Executable>
rbdock ($Id: //depot/dev/client3/rdock/2013.1/src/exe/rbdock.cxx#4 $)

>  <Rbt.Library>
libRbt.so (2013.1, Build901 2013/11/27)

>  <Rbt.Parameter_File>
/export/apps/rDock/src/rDock_2013.1_src/data/scripts/dock_solv.prm

>  <Rbt.Receptor>
prm/pocket_docking_5.prm

>  <SCORE>
-11.1299

>  <SCORE.INTER>
-11.1299

>  <SCORE.INTER.CONST>
1

>  <SCORE.INTER.POLAR>
0

>  <SCORE.INTER.ROT>
0

>  <SCORE.INTER.SOLV>
18.7079

>  <SCORE.INTER.VDW>
-17.2559

>  <SCORE.INTER.norm>
-1.01181

>  <SCORE.INTRA>
0

>  <SCORE.INTRA.DIHEDRAL>
0

>  <SCORE.INTRA.DIHEDRAL.0>
0

>  <SCORE.INTRA.POLAR>
0

>  <SCORE.INTRA.POLAR.0>
0

>  <SCORE.INTRA.REPUL>
0

>  <SCORE.INTRA.REPUL.0>
0

>  <SCORE.INTRA.SOLV>
0

>  <SCORE.INTRA.SOLV.lig_0>
-48.9252

>  <SCORE.INTRA.VDW>
0

>  <SCORE.INTRA.VDW.0>
0

>  <SCORE.INTRA.norm>
0

>  <SCORE.RESTR>
0

>  <SCORE.RESTR.CAVITY>
0

>  <SCORE.RESTR.norm>
0

>  <SCORE.SYSTEM>
0

>  <SCORE.SYSTEM.CONST>
0

>  <SCORE.SYSTEM.DIHEDRAL>
0

>  <SCORE.SYSTEM.SOLV>
0

>  <SCORE.SYSTEM.norm>
0

>  <SCORE.heavy>
11

>  <SCORE.norm>
-1.01181

>  <RMSD>
0.516

$$$$
ligand
 OpenBabel11021811493D
libRbt.so/2013.1/901 2013/11/27
 11 12  0  0  0  0  0  0  0  0999 V2000
   12.3440   11.7432    8.8044 N   0  0  0  0  0  0  0  0  0  0  0  0
   11.8492   12.9817    8.9832 C   0  0  0  0  0  0  0  0  0  0  0  0
   11.8983   13.5577   10.2445 N   0  0  0  0  0  0  0  0  0  0  0  0
   11.3070   13.6734    7.9685 N   0  0  0  0  0  0  0  0  0  0  0  0
   11.2310   13.1556    6.7323 C   0  0  0  0  0  0  0  0  0  0  0  0
   11.7364   11.8588    6.4883 C   0  0  0  0  0  0  0  0  0  0  0  0
   12.3107   11.1519    7.5909 C   0  0  0  0  0  0  0  0  0  0  0  0
   12.8224    9.8881    7.4255 N   0  0  0  0  0  0  0  0  0  0  0  0
   11.5315   11.5879    5.1675 N   0  0  0  0  0  0  0  0  0  0  0  0
   10.9476   12.6049    4.6083 C   0  0  0  0  0  0  0  0  0  0  0  0
   10.7423   13.6012    5.5290 N   0  0  0  0  0  0  0  0  0  0  0  0
  1  7  2  0  0  0  0
  1  2  1  0  0  0  0
  2  3  1  0  0  0  0
  2  4  2  0  0  0  0
  4  5  1  0  0  0  0
  5  6  2  0  0  0  0
  5 11  1  0  0  0  0
  6  7  1  0  0  0  0
  6  9  1  0  0  0  0
  7  8  1  0  0  0  0
  9 10  1  0  0  0  0
 10 11  2  0  0  0  0
M  END
>  <CHROM.1>
11.70786911,12.34551807,7.25541232,-1.11466776,1.10797653,-2.07768214

>  <Name>
ligand

>  <RI>
0

>  <Rbt.Current_Directory>
/home/itssahil/PROJECTS/Mol_Feturizer/New_Systems/rnas/4FEO

>  <Rbt.Executable>
rbdock ($Id: //depot/dev/client3/rdock/2013.1/src/exe/rbdock.cxx#4 $)

>  <Rbt.Library>
libRbt.so (2013.1, Build901 2013/11/27)

>  <Rbt.Parameter_File>
/export/apps/rDock/src/rDock_2013.1_src/data/scripts/dock_solv.prm

>  <Rbt.Receptor>
prm/pocket_docking_7.prm

>  <SCORE>
-11.0791

>  <SCORE.INTER>
-11.0791

>  <SCORE.INTER.CONST>
1

>  <SCORE.INTER.POLAR>
0

>  <SCORE.INTER.ROT>
0

>  <SCORE.INTER.SOLV>
18.9419

>  <SCORE.INTER.VDW>
-17.3001

>  <SCORE.INTER.norm>
-1.00719

>  <SCORE.INTRA>
0

>  <SCORE.INTRA.DIHEDRAL>
0

>  <SCORE.INTRA.DIHEDRAL.0>
0

>  <SCORE.INTRA.POLAR>
0

>  <SCORE.INTRA.POLAR.0>
0

>  <SCORE.INTRA.REPUL>
0

>  <SCORE.INTRA.REPUL.0>
0

>  <SCORE.INTRA.SOLV>
0

>  <SCORE.INTRA.SOLV.lig_0>
-48.9252

>  <SCORE.INTRA.VDW>
0

>  <SCORE.INTRA.VDW.0>
0

>  <SCORE.INTRA.norm>
0

>  <SCORE.RESTR>
0

>  <SCORE.RESTR.CAVITY>
0

>  <SCORE.RESTR.norm>
0

>  <SCORE.SYSTEM>
0

>  <SCORE.SYSTEM.CONST>
0

>  <SCORE.SYSTEM.DIHEDRAL>
0

>  <SCORE.SYSTEM.SOLV>
0

>  <SCORE.SYSTEM.norm>
0

>  <SCORE.heavy>
11

>  <SCORE.norm>
-1.00719

>  <RMSD>
0.517

$$$$
ligand
 OpenBabel11021811493D
libRbt.so/2013.1/901 2013/11/27
 11 12  0  0  0  0  0  0  0  0999 V2000
   12.3827   11.4751    8.7857 N   0  0  0  0  0  0  0  0  0  0  0  0
   11.9800   12.7387    9.0139 C   0  0  0  0  0  0  0  0  0  0  0  0
   12.1052   13.2723   10.2885 N   0  0  0  0  0  0  0  0  0  0  0  0
   11.4578   13.4956    8.0360 N   0  0  0  0  0  0  0  0  0  0  0  0
   11.3106   13.0212    6.7888 C   0  0  0  0  0  0  0  0  0  0  0  0
   11.7179   11.7008    6.4935 C   0  0  0  0  0  0  0  0  0  0  0  0
   12.2736   10.9239    7.5579 C   0  0  0  0  0  0  0  0  0  0  0  0
   12.6918    9.6336    7.3419 N   0  0  0  0  0  0  0  0  0  0  0  0
   11.4566   11.4839    5.1727 N   0  0  0  0  0  0  0  0  0  0  0  0
   10.9285   12.5546    4.6602 C   0  0  0  0  0  0  0  0  0  0  0  0
   10.8192   13.5347    5.6140 N   0  0  0  0  0  0  0  0  0  0  0  0
  1  7  2  0  0  0  0
  1  2  1  0  0  0  0
  2  3  1  0  0  0  0
  2  4  2  0  0  0  0
  4  5  1  0  0  0  0
  5  6  2  0  0  0  0
  5 11  1  0  0  0  0
  6  7  1  0  0  0  0
  6  9  1  0  0  0  0
  7  8  1  0  0  0  0
  9 10  1  0  0  0  0
 10 11  2  0  0  0  0
M  END
>  <CHROM.1>
11.74521583,12.16529714,7.27433994,-0.97000883,1.15055295,-2.17978345

>  <Name>
ligand

>  <RI>
0

>  <Rbt.Current_Directory>
/home/itssahil/PROJECTS/Mol_Feturizer/New_Systems/rnas/4FEO

>  <Rbt.Executable>
rbdock ($Id: //depot/dev/client3/rdock/2013.1/src/exe/rbdock.cxx#4 $)

>  <Rbt.Library>
libRbt.so (2013.1, Build901 2013/11/27)

>  <Rbt.Parameter_File>
/export/apps/rDock/src/rDock_2013.1_src/data/scripts/dock_solv.prm

>  <Rbt.Receptor>
prm/blind_docking_100.prm

>  <SCORE>
-11.1284

>  <SCORE.INTER>
-11.1284

>  <SCORE.INTER.CONST>
1

>  <SCORE.INTER.POLAR>
0

>  <SCORE.INTER.ROT>
0

>  <SCORE.INTER.SOLV>
18.6453

>  <SCORE.INTER.VDW>
-17.234

>  <SCORE.INTER.norm>
-1.01167

>  <SCORE.INTRA>
0

>  <SCORE.INTRA.DIHEDRAL>
0

>  <SCORE.INTRA.DIHEDRAL.0>
0

>  <SCORE.INTRA.POLAR>
0

>  <SCORE.INTRA.POLAR.0>
0

>  <SCORE.INTRA.REPUL>
0

>  <SCORE.INTRA.REPUL.0>
0

>  <SCORE.INTRA.SOLV>
0

>  <SCORE.INTRA.SOLV.lig_0>
-48.9252

>  <SCORE.INTRA.VDW>
0

>  <SCORE.INTRA.VDW.0>
0

>  <SCORE.INTRA.norm>
0

>  <SCORE.RESTR>
0

>  <SCORE.RESTR.CAVITY>
0

>  <SCORE.RESTR.norm>
0

>  <SCORE.SYSTEM>
0

>  <SCORE.SYSTEM.CONST>
0

>  <SCORE.SYSTEM.DIHEDRAL>
0

>  <SCORE.SYSTEM.SOLV>
0

>  <SCORE.SYSTEM.norm>
0

>  <SCORE.heavy>
11

>  <SCORE.norm>
-1.01167

>  <RMSD>
0.518

$$$$
ligand
 OpenBabel11021811493D
libRbt.so/2013.1/901 2013/11/27
 11 12  0  0  0  0  0  0  0  0999 V2000
   12.5102   11.6732    8.7966 N   0  0  0  0  0  0  0  0  0  0  0  0
   11.9752   12.8863    9.0264 C   0  0  0  0  0  0  0  0  0  0  0  0
   12.0481   13.4311   10.3004 N   0  0  0  0  0  0  0  0  0  0  0  0
   11.3705   13.5822    8.0507 N   0  0  0  0  0  0  0  0  0  0  0  0
   11.2695   13.0940    6.8043 C   0  0  0  0  0  0  0  0  0  0  0  0
   11.8149   11.8247    6.5074 C   0  0  0  0  0  0  0  0  0  0  0  0
   12.4555   11.1127    7.5694 C   0  0  0  0  0  0  0  0  0  0  0  0
   13.0088    9.8746    7.3517 N   0  0  0  0  0  0  0  0  0  0  0  0
   11.5726   11.5802    5.1878 N   0  0  0  0  0  0  0  0  0  0  0  0
   10.9303   12.5877    4.6774 C   0  0  0  0  0  0  0  0  0  0  0  0
   10.7207   13.5510    5.6316 N   0  0  0  0  0  0  0  0  0  0  0  0
  1  7  2  0  0  0  0
  1  2  1  0  0  0  0
  2  3  1  0  0  0  0
  2  4  2  0  0  0  0
  4  5  1  0  0  0  0
  5  6  2  0  0  0  0
  5 11  1  0  0  0  0
  6  7  1  0  0  0  0
  6  9  1  0  0  0  0
  7  8  1  0  0  0  0
  9 10  1  0  0  0  0
 10 11  2  0  0  0  0
M  END
>  <CHROM.1>
11.79565003,12.29000019,7.28799844,-1.08778878,1.05672472,-2.07487278

>  <Name>
ligand

>  <RI>
0

>  <Rbt.Current_Directory>
/home/itssahil/PROJECTS/Mol_Feturizer/New_Systems/rnas/4FEO

>  <Rbt.Executable>
rbdock ($Id: //depot/dev/client3/rdock/2013.1/src/exe/rbdock.cxx#4 $)

>  <Rbt.Library>
libRbt.so (2013.1, Build901 2013/11/27)

>  <Rbt.Parameter_File>
/export/apps/rDock/src/rDock_2013.1_src/data/scripts/dock_solv.prm

>  <Rbt.Receptor>
prm/pocket_docking_3.prm

>  <SCORE>
-11.123

>  <SCORE.INTER>
-11.123

>  <SCORE.INTER.CONST>
1

>  <SCORE.INTER.POLAR>
0

>  <SCORE.INTER.ROT>
0

>  <SCORE.INTER.SOLV>
18.0141

>  <SCORE.INTER.VDW>
-17.02

>  <SCORE.INTER.norm>
-1.01118

>  <SCORE.INTRA>
0

>  <SCORE.INTRA.DIHEDRAL>
0

>  <SCORE.INTRA.DIHEDRAL.0>
0

>  <SCORE.INTRA.POLAR>
0

>  <SCORE.INTRA.POLAR.0>
0

>  <SCORE.INTRA.REPUL>
0

>  <SCORE.INTRA.REPUL.0>
0

>  <SCORE.INTRA.SOLV>
0

>  <SCORE.INTRA.SOLV.lig_0>
-48.9252

>  <SCORE.INTRA.VDW>
0

>  <SCORE.INTRA.VDW.0>
0

>  <SCORE.INTRA.norm>
0

>  <SCORE.RESTR>
0

>  <SCORE.RESTR.CAVITY>
0

>  <SCORE.RESTR.norm>
0

>  <SCORE.SYSTEM>
0

>  <SCORE.SYSTEM.CONST>
0

>  <SCORE.SYSTEM.DIHEDRAL>
0

>  <SCORE.SYSTEM.SOLV>
0

>  <SCORE.SYSTEM.norm>
0

>  <SCORE.heavy>
11

>  <SCORE.norm>
-1.01118

>  <RMSD>
0.523

$$$$
ligand
 OpenBabel11021811493D
libRbt.so/2013.1/901 2013/11/27
 11 12  0  0  0  0  0  0  0  0999 V2000
   12.2857   11.6050    8.7885 N   0  0  0  0  0  0  0  0  0  0  0  0
   11.9010   12.8792    8.9860 C   0  0  0  0  0  0  0  0  0  0  0  0
   12.0089   13.4332   10.2536 N   0  0  0  0  0  0  0  0  0  0  0  0
   11.4133   13.6277    7.9842 N   0  0  0  0  0  0  0  0  0  0  0  0
   11.2838   13.1339    6.7426 C   0  0  0  0  0  0  0  0  0  0  0  0
   11.6735   11.8014    6.4791 C   0  0  0  0  0  0  0  0  0  0  0  0
   12.1926   11.0339    7.5685 C   0  0  0  0  0  0  0  0  0  0  0  0
   12.5919    9.7328    7.3840 N   0  0  0  0  0  0  0  0  0  0  0  0
   11.4362   11.5657    5.1570 N   0  0  0  0  0  0  0  0  0  0  0  0
   10.9384   12.6362    4.6147 C   0  0  0  0  0  0  0  0  0  0  0  0
   10.8266   13.6349    5.5487 N   0  0  0  0  0  0  0  0  0  0  0  0
  1  7  2  0  0  0  0
  1  2  1  0  0  0  0
  2  3  1  0  0  0  0
  2  4  2  0  0  0  0
  4  5  1  0  0  0  0
  5  6  2  0  0  0  0
  5 11  1  0  0  0  0
  6  7  1  0  0  0  0
  6  9  1  0  0  0  0
  7  8  1  0  0  0  0
  9 10  1  0  0  0  0
 10 11  2  0  0  0  0
M  END
>  <CHROM.1>
11.69268886,12.27922191,7.25212477,-0.98827755,1.17729607,-2.18062088

>  <Name>
ligand

>  <RI>
0

>  <Rbt.Current_Directory>
/home/itssahil/PROJECTS/Mol_Feturizer/New_Systems/rnas/4FEO

>  <Rbt.Executable>
rbdock ($Id: //depot/dev/client3/rdock/2013.1/src/exe/rbdock.cxx#4 $)

>  <Rbt.Library>
libRbt.so (2013.1, Build901 2013/11/27)

>  <Rbt.Parameter_File>
/export/apps/rDock/src/rDock_2013.1_src/data/scripts/dock_solv.prm

>  <Rbt.Receptor>
prm/pocket_docking_3.prm

>  <SCORE>
-11.1839

>  <SCORE.INTER>
-11.1839

>  <SCORE.INTER.CONST>
1

>  <SCORE.INTER.POLAR>
0

>  <SCORE.INTER.ROT>
0

>  <SCORE.INTER.SOLV>
19.3117

>  <SCORE.INTER.VDW>
-17.4932

>  <SCORE.INTER.norm>
-1.01672

>  <SCORE.INTRA>
0

>  <SCORE.INTRA.DIHEDRAL>
0

>  <SCORE.INTRA.DIHEDRAL.0>
0

>  <SCORE.INTRA.POLAR>
0

>  <SCORE.INTRA.POLAR.0>
0

>  <SCORE.INTRA.REPUL>
0

>  <SCORE.INTRA.REPUL.0>
0

>  <SCORE.INTRA.SOLV>
0

>  <SCORE.INTRA.SOLV.lig_0>
-48.9252

>  <SCORE.INTRA.VDW>
0

>  <SCORE.INTRA.VDW.0>
0

>  <SCORE.INTRA.norm>
0

>  <SCORE.RESTR>
0

>  <SCORE.RESTR.CAVITY>
0

>  <SCORE.RESTR.norm>
0

>  <SCORE.SYSTEM>
0

>  <SCORE.SYSTEM.CONST>
0

>  <SCORE.SYSTEM.DIHEDRAL>
0

>  <SCORE.SYSTEM.SOLV>
0

>  <SCORE.SYSTEM.norm>
0

>  <SCORE.heavy>
11

>  <SCORE.norm>
-1.01672

>  <RMSD>
0.523

$$$$
ligand
 OpenBabel11021811493D
libRbt.so/2013.1/901 2013/11/27
 11 12  0  0  0  0  0  0  0  0999 V2000
   12.5275   11.6919    8.8042 N   0  0  0  0  0  0  0  0  0  0  0  0
   11.9872   12.9033    9.0305 C   0  0  0  0  0  0  0  0  0  0  0  0
   12.0593   13.4529   10.3025 N   0  0  0  0  0  0  0  0  0  0  0  0
   11.3778   13.5929    8.0533 N   0  0  0  0  0  0  0  0  0  0  0  0
   11.2773   13.0997    6.8088 C   0  0  0  0  0  0  0  0  0  0  0  0
   11.8282   11.8320    6.5155 C   0  0  0  0  0  0  0  0  0  0  0  0
   12.4737   11.1267    7.5792 C   0  0  0  0  0  0  0  0  0  0  0  0
   13.0325    9.8905    7.3650 N   0  0  0  0  0  0  0  0  0  0  0  0
   11.5851   11.5817    5.1971 N   0  0  0  0  0  0  0  0  0  0  0  0
   10.9375   12.5843    4.6842 C   0  0  0  0  0  0  0  0  0  0  0  0
   10.7246   13.5500    5.6352 N   0  0  0  0  0  0  0  0  0  0  0  0
  1  7  2  0  0  0  0
  1  2  1  0  0  0  0
  2  3  1  0  0  0  0
  2  4  2  0  0  0  0
  4  5  1  0  0  0  0
  5  6  2  0  0  0  0
  5 11  1  0  0  0  0
  6  7  1  0  0  0  0
  6  9  1  0  0  0  0
  7  8  1  0  0  0  0
  9 10  1  0  0  0  0
 10 11  2  0  0  0  0
M  END
>  <CHROM.1>
11.80790021,12.29993296,7.29452864,-1.08983163,1.05192271,-2.07665371

>  <Name>
ligand

>  <RI>
0

>  <Rbt.Current_Directory>
/home/itssahil/PROJECTS/Mol_Feturizer/New_Systems/rnas/4FEO

>  <Rbt.Executable>
rbdock ($Id: //depot/dev/client3/rdock/2013.1/src/exe/rbdock.cxx#4 $)

>  <Rbt.Library>
libRbt.so (2013.1, Build901 2013/11/27)

>  <Rbt.Parameter_File>
/export/apps/rDock/src/rDock_2013.1_src/data/scripts/dock_solv.prm

>  <Rbt.Receptor>
prm/pocket_docking_6.prm

>  <SCORE>
-11.1191

>  <SCORE.INTER>
-11.1191

>  <SCORE.INTER.CONST>
1

>  <SCORE.INTER.POLAR>
0

>  <SCORE.INTER.ROT>
0

>  <SCORE.INTER.SOLV>
17.9672

>  <SCORE.INTER.VDW>
-17.0018

>  <SCORE.INTER.norm>
-1.01083

>  <SCORE.INTRA>
0

>  <SCORE.INTRA.DIHEDRAL>
0

>  <SCORE.INTRA.DIHEDRAL.0>
0

>  <SCORE.INTRA.POLAR>
0

>  <SCORE.INTRA.POLAR.0>
0

>  <SCORE.INTRA.REPUL>
0

>  <SCORE.INTRA.REPUL.0>
0

>  <SCORE.INTRA.SOLV>
0

>  <SCORE.INTRA.SOLV.lig_0>
-48.9252

>  <SCORE.INTRA.VDW>
0

>  <SCORE.INTRA.VDW.0>
0

>  <SCORE.INTRA.norm>
0

>  <SCORE.RESTR>
0

>  <SCORE.RESTR.CAVITY>
0

>  <SCORE.RESTR.norm>
0

>  <SCORE.SYSTEM>
0

>  <SCORE.SYSTEM.CONST>
0

>  <SCORE.SYSTEM.DIHEDRAL>
0

>  <SCORE.SYSTEM.SOLV>
0

>  <SCORE.SYSTEM.norm>
0

>  <SCORE.heavy>
11

>  <SCORE.norm>
-1.01083

>  <RMSD>
0.524

$$$$
ligand
 OpenBabel11021811493D
libRbt.so/2013.1/901 2013/11/27
 11 12  0  0  0  0  0  0  0  0999 V2000
   12.2975   11.5162    8.7723 N   0  0  0  0  0  0  0  0  0  0  0  0
   11.9187   12.7916    8.9737 C   0  0  0  0  0  0  0  0  0  0  0  0
   12.0432   13.3460   10.2395 N   0  0  0  0  0  0  0  0  0  0  0  0
   11.4211   13.5409    7.9772 N   0  0  0  0  0  0  0  0  0  0  0  0
   11.2755   13.0468    6.7376 C   0  0  0  0  0  0  0  0  0  0  0  0
   11.6583   11.7131    6.4703 C   0  0  0  0  0  0  0  0  0  0  0  0
   12.1883   10.9448    7.5539 C   0  0  0  0  0  0  0  0  0  0  0  0
   12.5818    9.6425    7.3653 N   0  0  0  0  0  0  0  0  0  0  0  0
   11.4047   11.4773    5.1512 N   0  0  0  0  0  0  0  0  0  0  0  0
   10.9034   12.5489    4.6143 C   0  0  0  0  0  0  0  0  0  0  0  0
   10.8055   13.5484    5.5490 N   0  0  0  0  0  0  0  0  0  0  0  0
  1  7  2  0  0  0  0
  1  2  1  0  0  0  0
  2  3  1  0  0  0  0
  2  4  2  0  0  0  0
  4  5  1  0  0  0  0
  5  6  2  0  0  0  0
  5 11  1  0  0  0  0
  6  7  1  0  0  0  0
  6  9  1  0  0  0  0
  7  8  1  0  0  0  0
  9 10  1  0  0  0  0
 10 11  2  0  0  0  0
M  END
>  <CHROM.1>
11.68807298,12.19125645,7.24271924,-0.95905207,1.17256984,-2.20815038

>  <Name>
ligand

>  <RI>
0

>  <Rbt.Current_Directory>
/home/itssahil/PROJECTS/Mol_Feturizer/New_Systems/rnas/4FEO

>  <Rbt.Executable>
rbdock ($Id: //depot/dev/client3/rdock/2013.1/src/exe/rbdock.cxx#4 $)

>  <Rbt.Library>
libRbt.so (2013.1, Build901 2013/11/27)

>  <Rbt.Parameter_File>
/export/apps/rDock/src/rDock_2013.1_src/data/scripts/dock_solv.prm

>  <Rbt.Receptor>
prm/pocket_docking_4.prm

>  <SCORE>
-11.2025

>  <SCORE.INTER>
-11.2025

>  <SCORE.INTER.CONST>
1

>  <SCORE.INTER.POLAR>
0

>  <SCORE.INTER.ROT>
0

>  <SCORE.INTER.SOLV>
19.1897

>  <SCORE.INTER.VDW>
-17.4649

>  <SCORE.INTER.norm>
-1.01841

>  <SCORE.INTRA>
0

>  <SCORE.INTRA.DIHEDRAL>
0

>  <SCORE.INTRA.DIHEDRAL.0>
0

>  <SCORE.INTRA.POLAR>
0

>  <SCORE.INTRA.POLAR.0>
0

>  <SCORE.INTRA.REPUL>
0

>  <SCORE.INTRA.REPUL.0>
0

>  <SCORE.INTRA.SOLV>
0

>  <SCORE.INTRA.SOLV.lig_0>
-48.9252

>  <SCORE.INTRA.VDW>
0

>  <SCORE.INTRA.VDW.0>
0

>  <SCORE.INTRA.norm>
0

>  <SCORE.RESTR>
0

>  <SCORE.RESTR.CAVITY>
0

>  <SCORE.RESTR.norm>
0

>  <SCORE.SYSTEM>
0

>  <SCORE.SYSTEM.CONST>
0

>  <SCORE.SYSTEM.DIHEDRAL>
0

>  <SCORE.SYSTEM.SOLV>
0

>  <SCORE.SYSTEM.norm>
0

>  <SCORE.heavy>
11

>  <SCORE.norm>
-1.01841

>  <RMSD>
0.526

$$$$
ligand
 OpenBabel11021811493D
libRbt.so/2013.1/901 2013/11/27
 11 12  0  0  0  0  0  0  0  0999 V2000
   12.3498   11.7381    8.7935 N   0  0  0  0  0  0  0  0  0  0  0  0
   11.8583   12.9771    8.9779 C   0  0  0  0  0  0  0  0  0  0  0  0
   11.9095   13.5476   10.2416 N   0  0  0  0  0  0  0  0  0  0  0  0
   11.3176   13.6746    7.9664 N   0  0  0  0  0  0  0  0  0  0  0  0
   11.2398   13.1624    6.7280 C   0  0  0  0  0  0  0  0  0  0  0  0
   11.7416   11.8653    6.4782 C   0  0  0  0  0  0  0  0  0  0  0  0
   12.3145   11.1521    7.5775 C   0  0  0  0  0  0  0  0  0  0  0  0
   12.8228    9.8877    7.4064 N   0  0  0  0  0  0  0  0  0  0  0  0
   11.5354   11.6007    5.1563 N   0  0  0  0  0  0  0  0  0  0  0  0
   10.9541   12.6216    4.6018 C   0  0  0  0  0  0  0  0  0  0  0  0
   10.7517   13.6144    5.5268 N   0  0  0  0  0  0  0  0  0  0  0  0
  1  7  2  0  0  0  0
  1  2  1  0  0  0  0
  2  3  1  0  0  0  0
  2  4  2  0  0  0  0
  4  5  1  0  0  0  0
  5  6  2  0  0  0  0
  5 11  1  0  0  0  0
  6  7  1  0  0  0  0
  6  9  1  0  0  0  0
  7  8  1  0  0  0  0
  9 10  1  0  0  0  0
 10 11  2  0  0  0  0
M  END
>  <CHROM.1>
11.71467798,12.34877800,7.24740309,-1.11100651,1.11008304,-2.07663678

>  <Name>
ligand

>  <RI>
0

>  <Rbt.Current_Directory>
/home/itssahil/PROJECTS/Mol_Feturizer/New_Systems/rnas/4FEO

>  <Rbt.Executable>
rbdock ($Id: //depot/dev/client3/rdock/2013.1/src/exe/rbdock.cxx#4 $)

>  <Rbt.Library>
libRbt.so (2013.1, Build901 2013/11/27)

>  <Rbt.Parameter_File>
/export/apps/rDock/src/rDock_2013.1_src/data/scripts/dock_solv.prm

>  <Rbt.Receptor>
prm/pocket_docking_3.prm

>  <SCORE>
-11.113

>  <SCORE.INTER>
-11.113

>  <SCORE.INTER.CONST>
1

>  <SCORE.INTER.POLAR>
0

>  <SCORE.INTER.ROT>
0

>  <SCORE.INTER.SOLV>
18.9114

>  <SCORE.INTER.VDW>
-17.3125

>  <SCORE.INTER.norm>
-1.01028

>  <SCORE.INTRA>
0

>  <SCORE.INTRA.DIHEDRAL>
0

>  <SCORE.INTRA.DIHEDRAL.0>
0

>  <SCORE.INTRA.POLAR>
0

>  <SCORE.INTRA.POLAR.0>
0

>  <SCORE.INTRA.REPUL>
0

>  <SCORE.INTRA.REPUL.0>
0

>  <SCORE.INTRA.SOLV>
0

>  <SCORE.INTRA.SOLV.lig_0>
-48.9252

>  <SCORE.INTRA.VDW>
0

>  <SCORE.INTRA.VDW.0>
0

>  <SCORE.INTRA.norm>
0

>  <SCORE.RESTR>
0

>  <SCORE.RESTR.CAVITY>
0

>  <SCORE.RESTR.norm>
0

>  <SCORE.SYSTEM>
0

>  <SCORE.SYSTEM.CONST>
0

>  <SCORE.SYSTEM.DIHEDRAL>
0

>  <SCORE.SYSTEM.SOLV>
0

>  <SCORE.SYSTEM.norm>
0

>  <SCORE.heavy>
11

>  <SCORE.norm>
-1.01028

>  <RMSD>
0.528

$$$$
ligand
 OpenBabel11021811493D
libRbt.so/2013.1/901 2013/11/27
 11 12  0  0  0  0  0  0  0  0999 V2000
   12.3408   11.4516    8.7773 N   0  0  0  0  0  0  0  0  0  0  0  0
   11.9672   12.7225    9.0138 C   0  0  0  0  0  0  0  0  0  0  0  0
   12.1009   13.2436   10.2927 N   0  0  0  0  0  0  0  0  0  0  0  0
   11.4660   13.4987    8.0400 N   0  0  0  0  0  0  0  0  0  0  0  0
   11.3115   13.0371    6.7889 C   0  0  0  0  0  0  0  0  0  0  0  0
   11.6886   11.7096    6.4850 C   0  0  0  0  0  0  0  0  0  0  0  0
   12.2226   10.9121    7.5452 C   0  0  0  0  0  0  0  0  0  0  0  0
   12.6110    9.6139    7.3208 N   0  0  0  0  0  0  0  0  0  0  0  0
   11.4265   11.5087    5.1618 N   0  0  0  0  0  0  0  0  0  0  0  0
   10.9253   12.5952    4.6557 C   0  0  0  0  0  0  0  0  0  0  0  0
   10.8360   13.5706    5.6164 N   0  0  0  0  0  0  0  0  0  0  0  0
  1  7  2  0  0  0  0
  1  2  1  0  0  0  0
  2  3  1  0  0  0  0
  2  4  2  0  0  0  0
  4  5  1  0  0  0  0
  5  6  2  0  0  0  0
  5 11  1  0  0  0  0
  6  7  1  0  0  0  0
  6  9  1  0  0  0  0
  7  8  1  0  0  0  0
  9 10  1  0  0  0  0
 10 11  2  0  0  0  0
M  END
>  <CHROM.1>
11.72442463,12.16762001,7.26930431,-0.94207576,1.17147455,-2.19801498

>  <Name>
ligand

>  <RI>
0

>  <Rbt.Current_Directory>
/home/itssahil/PROJECTS/Mol_Feturizer/New_Systems/rnas/4FEO

>  <Rbt.Executable>
rbdock ($Id: //depot/dev/client3/rdock/2013.1/src/exe/rbdock.cxx#4 $)

>  <Rbt.Library>
libRbt.so (2013.1, Build901 2013/11/27)

>  <Rbt.Parameter_File>
/export/apps/rDock/src/rDock_2013.1_src/data/scripts/dock_solv.prm

>  <Rbt.Receptor>
prm/pocket_docking_8.prm

>  <SCORE>
-11.1074

>  <SCORE.INTER>
-11.1074

>  <SCORE.INTER.CONST>
1

>  <SCORE.INTER.POLAR>
0

>  <SCORE.INTER.ROT>
0

>  <SCORE.INTER.SOLV>
18.9237

>  <SCORE.INTER.VDW>
-17.3129

>  <SCORE.INTER.norm>
-1.00977

>  <SCORE.INTRA>
0

>  <SCORE.INTRA.DIHEDRAL>
0

>  <SCORE.INTRA.DIHEDRAL.0>
0

>  <SCORE.INTRA.POLAR>
0

>  <SCORE.INTRA.POLAR.0>
0

>  <SCORE.INTRA.REPUL>
0

>  <SCORE.INTRA.REPUL.0>
0

>  <SCORE.INTRA.SOLV>
0

>  <SCORE.INTRA.SOLV.lig_0>
-48.9252

>  <SCORE.INTRA.VDW>
0

>  <SCORE.INTRA.VDW.0>
0

>  <SCORE.INTRA.norm>
0

>  <SCORE.RESTR>
0

>  <SCORE.RESTR.CAVITY>
0

>  <SCORE.RESTR.norm>
0

>  <SCORE.SYSTEM>
0

>  <SCORE.SYSTEM.CONST>
0

>  <SCORE.SYSTEM.DIHEDRAL>
0

>  <SCORE.SYSTEM.SOLV>
0

>  <SCORE.SYSTEM.norm>
0

>  <SCORE.heavy>
11

>  <SCORE.norm>
-1.00977

>  <RMSD>
0.528

$$$$
ligand
 OpenBabel11021811493D
libRbt.so/2013.1/901 2013/11/27
 11 12  0  0  0  0  0  0  0  0999 V2000
   12.3122   11.5958    8.7878 N   0  0  0  0  0  0  0  0  0  0  0  0
   11.9358   12.8704    8.9984 C   0  0  0  0  0  0  0  0  0  0  0  0
   12.0538   13.4129   10.2699 N   0  0  0  0  0  0  0  0  0  0  0  0
   11.4466   13.6301    8.0056 N   0  0  0  0  0  0  0  0  0  0  0  0
   11.3075   13.1477    6.7607 C   0  0  0  0  0  0  0  0  0  0  0  0
   11.6882   11.8154    6.4837 C   0  0  0  0  0  0  0  0  0  0  0  0
   12.2091   11.0357    7.5635 C   0  0  0  0  0  0  0  0  0  0  0  0
   12.6002    9.7341    7.3657 N   0  0  0  0  0  0  0  0  0  0  0  0
   11.4423   11.5923    5.1609 N   0  0  0  0  0  0  0  0  0  0  0  0
   10.9474   12.6701    4.6306 C   0  0  0  0  0  0  0  0  0  0  0  0
   10.8465   13.6614    5.5737 N   0  0  0  0  0  0  0  0  0  0  0  0
  1  7  2  0  0  0  0
  1  2  1  0  0  0  0
  2  3  1  0  0  0  0
  2  4  2  0  0  0  0
  4  5  1  0  0  0  0
  5  6  2  0  0  0  0
  5 11  1  0  0  0  0
  6  7  1  0  0  0  0
  6  9  1  0  0  0  0
  7  8  1  0  0  0  0
  9 10  1  0  0  0  0
 10 11  2  0  0  0  0
M  END
>  <CHROM.1>
11.71440972,12.28642431,7.26059120,-0.96797116,1.17860304,-2.19084441

>  <Name>
ligand

>  <RI>
0

>  <Rbt.Current_Directory>
/home/itssahil/PROJECTS/Mol_Feturizer/New_Systems/rnas/4FEO

>  <Rbt.Executable>
rbdock ($Id: //depot/dev/client3/rdock/2013.1/src/exe/rbdock.cxx#4 $)

>  <Rbt.Library>
libRbt.so (2013.1, Build901 2013/11/27)

>  <Rbt.Parameter_File>
/export/apps/rDock/src/rDock_2013.1_src/data/scripts/dock_solv.prm

>  <Rbt.Receptor>
prm/pocket_docking_3.prm

>  <SCORE>
-11.1957

>  <SCORE.INTER>
-11.1957

>  <SCORE.INTER.CONST>
1

>  <SCORE.INTER.POLAR>
0

>  <SCORE.INTER.ROT>
0

>  <SCORE.INTER.SOLV>
19.2135

>  <SCORE.INTER.VDW>
-17.4683

>  <SCORE.INTER.norm>
-1.01779

>  <SCORE.INTRA>
0

>  <SCORE.INTRA.DIHEDRAL>
0

>  <SCORE.INTRA.DIHEDRAL.0>
0

>  <SCORE.INTRA.POLAR>
0

>  <SCORE.INTRA.POLAR.0>
0

>  <SCORE.INTRA.REPUL>
0

>  <SCORE.INTRA.REPUL.0>
0

>  <SCORE.INTRA.SOLV>
0

>  <SCORE.INTRA.SOLV.lig_0>
-48.9252

>  <SCORE.INTRA.VDW>
0

>  <SCORE.INTRA.VDW.0>
0

>  <SCORE.INTRA.norm>
0

>  <SCORE.RESTR>
0

>  <SCORE.RESTR.CAVITY>
0

>  <SCORE.RESTR.norm>
0

>  <SCORE.SYSTEM>
0

>  <SCORE.SYSTEM.CONST>
0

>  <SCORE.SYSTEM.DIHEDRAL>
0

>  <SCORE.SYSTEM.SOLV>
0

>  <SCORE.SYSTEM.norm>
0

>  <SCORE.heavy>
11

>  <SCORE.norm>
-1.01779

>  <RMSD>
0.530

$$$$
ligand
 OpenBabel11021811493D
libRbt.so/2013.1/901 2013/11/27
 11 12  0  0  0  0  0  0  0  0999 V2000
   12.2883   11.4556    8.7698 N   0  0  0  0  0  0  0  0  0  0  0  0
   11.9191   12.7289    9.0002 C   0  0  0  0  0  0  0  0  0  0  0  0
   12.0452   13.2525   10.2788 N   0  0  0  0  0  0  0  0  0  0  0  0
   11.4294   13.5051    8.0206 N   0  0  0  0  0  0  0  0  0  0  0  0
   11.2825   13.0412    6.7694 C   0  0  0  0  0  0  0  0  0  0  0  0
   11.6555   11.7112    6.4717 C   0  0  0  0  0  0  0  0  0  0  0  0
   12.1771   10.9136    7.5381 C   0  0  0  0  0  0  0  0  0  0  0  0
   12.5609    9.6131    7.3199 N   0  0  0  0  0  0  0  0  0  0  0  0
   11.4028   11.5083    5.1470 N   0  0  0  0  0  0  0  0  0  0  0  0
   10.9110   12.5960    4.6343 C   0  0  0  0  0  0  0  0  0  0  0  0
   10.8189   13.5742    5.5920 N   0  0  0  0  0  0  0  0  0  0  0  0
  1  7  2  0  0  0  0
  1  2  1  0  0  0  0
  2  3  1  0  0  0  0
  2  4  2  0  0  0  0
  4  5  1  0  0  0  0
  5  6  2  0  0  0  0
  5 11  1  0  0  0  0
  6  7  1  0  0  0  0
  6  9  1  0  0  0  0
  7  8  1  0  0  0  0
  9 10  1  0  0  0  0
 10 11  2  0  0  0  0
M  END
>  <CHROM.1>
11.68733610,12.17093574,7.25519005,-0.95122552,1.18007569,-2.19200598

>  <Name>
ligand

>  <RI>
0

>  <Rbt.Current_Directory>
/home/itssahil/PROJECTS/Mol_Feturizer/New_Systems/rnas/4FEO

>  <Rbt.Executable>
rbdock ($Id: //depot/dev/client3/rdock/2013.1/src/exe/rbdock.cxx#4 $)

>  <Rbt.Library>
libRbt.so (2013.1, Build901 2013/11/27)

>  <Rbt.Parameter_File>
/export/apps/rDock/src/rDock_2013.1_src/data/scripts/dock_solv.prm

>  <Rbt.Receptor>
prm/pocket_docking_8.prm

>  <SCORE>
-11.1341

>  <SCORE.INTER>
-11.1341

>  <SCORE.INTER.CONST>
1

>  <SCORE.INTER.POLAR>
0

>  <SCORE.INTER.ROT>
0

>  <SCORE.INTER.SOLV>
19.1453

>  <SCORE.INTER.VDW>
-17.4045

>  <SCORE.INTER.norm>
-1.01219

>  <SCORE.INTRA>
0

>  <SCORE.INTRA.DIHEDRAL>
0

>  <SCORE.INTRA.DIHEDRAL.0>
0

>  <SCORE.INTRA.POLAR>
0

>  <SCORE.INTRA.POLAR.0>
0

>  <SCORE.INTRA.REPUL>
0

>  <SCORE.INTRA.REPUL.0>
0

>  <SCORE.INTRA.SOLV>
0

>  <SCORE.INTRA.SOLV.lig_0>
-48.9252

>  <SCORE.INTRA.VDW>
0

>  <SCORE.INTRA.VDW.0>
0

>  <SCORE.INTRA.norm>
0

>  <SCORE.RESTR>
0

>  <SCORE.RESTR.CAVITY>
0

>  <SCORE.RESTR.norm>
0

>  <SCORE.SYSTEM>
0

>  <SCORE.SYSTEM.CONST>
0

>  <SCORE.SYSTEM.DIHEDRAL>
0

>  <SCORE.SYSTEM.SOLV>
0

>  <SCORE.SYSTEM.norm>
0

>  <SCORE.heavy>
11

>  <SCORE.norm>
-1.01219

>  <RMSD>
0.530

$$$$
ligand
 OpenBabel11021811493D
libRbt.so/2013.1/901 2013/11/27
 11 12  0  0  0  0  0  0  0  0999 V2000
   12.2899   11.6068    8.7766 N   0  0  0  0  0  0  0  0  0  0  0  0
   11.9002   12.8798    8.9728 C   0  0  0  0  0  0  0  0  0  0  0  0
   12.0088   13.4365   10.2390 N   0  0  0  0  0  0  0  0  0  0  0  0
   11.4066   13.6243    7.9707 N   0  0  0  0  0  0  0  0  0  0  0  0
   11.2762   13.1276    6.7304 C   0  0  0  0  0  0  0  0  0  0  0  0
   11.6710   11.7964    6.4684 C   0  0  0  0  0  0  0  0  0  0  0  0
   12.1962   11.0332    7.5578 C   0  0  0  0  0  0  0  0  0  0  0  0
   12.6008    9.7335    7.3747 N   0  0  0  0  0  0  0  0  0  0  0  0
   11.4314   11.5573    5.1473 N   0  0  0  0  0  0  0  0  0  0  0  0
   10.9276   12.6246    4.6043 C   0  0  0  0  0  0  0  0  0  0  0  0
   10.8138   13.6245    5.5368 N   0  0  0  0  0  0  0  0  0  0  0  0
  1  7  2  0  0  0  0
  1  2  1  0  0  0  0
  2  3  1  0  0  0  0
  2  4  2  0  0  0  0
  4  5  1  0  0  0  0
  5  6  2  0  0  0  0
  5 11  1  0  0  0  0
  6  7  1  0  0  0  0
  6  9  1  0  0  0  0
  7  8  1  0  0  0  0
  9 10  1  0  0  0  0
 10 11  2  0  0  0  0
M  END
>  <CHROM.1>
11.69007020,12.27570287,7.24046034,-0.98939041,1.17227378,-2.18141340

>  <Name>
ligand

>  <RI>
0

>  <Rbt.Current_Directory>
/home/itssahil/PROJECTS/Mol_Feturizer/New_Systems/rnas/4FEO

>  <Rbt.Executable>
rbdock ($Id: //depot/dev/client3/rdock/2013.1/src/exe/rbdock.cxx#4 $)

>  <Rbt.Library>
libRbt.so (2013.1, Build901 2013/11/27)

>  <Rbt.Parameter_File>
/export/apps/rDock/src/rDock_2013.1_src/data/scripts/dock_solv.prm

>  <Rbt.Receptor>
prm/pocket_docking_3.prm

>  <SCORE>
-11.1835

>  <SCORE.INTER>
-11.1835

>  <SCORE.INTER.CONST>
1

>  <SCORE.INTER.POLAR>
0

>  <SCORE.INTER.ROT>
0

>  <SCORE.INTER.SOLV>
19.2829

>  <SCORE.INTER.VDW>
-17.4833

>  <SCORE.INTER.norm>
-1.01669

>  <SCORE.INTRA>
0

>  <SCORE.INTRA.DIHEDRAL>
0

>  <SCORE.INTRA.DIHEDRAL.0>
0

>  <SCORE.INTRA.POLAR>
0

>  <SCORE.INTRA.POLAR.0>
0

>  <SCORE.INTRA.REPUL>
0

>  <SCORE.INTRA.REPUL.0>
0

>  <SCORE.INTRA.SOLV>
0

>  <SCORE.INTRA.SOLV.lig_0>
-48.9252

>  <SCORE.INTRA.VDW>
0

>  <SCORE.INTRA.VDW.0>
0

>  <SCORE.INTRA.norm>
0

>  <SCORE.RESTR>
0

>  <SCORE.RESTR.CAVITY>
0

>  <SCORE.RESTR.norm>
0

>  <SCORE.SYSTEM>
0

>  <SCORE.SYSTEM.CONST>
0

>  <SCORE.SYSTEM.DIHEDRAL>
0

>  <SCORE.SYSTEM.SOLV>
0

>  <SCORE.SYSTEM.norm>
0

>  <SCORE.heavy>
11

>  <SCORE.norm>
-1.01669

>  <RMSD>
0.531

$$$$
ligand
 OpenBabel11021811493D
libRbt.so/2013.1/901 2013/11/27
 11 12  0  0  0  0  0  0  0  0999 V2000
   12.2766   11.5292    8.7679 N   0  0  0  0  0  0  0  0  0  0  0  0
   11.8986   12.8052    8.9669 C   0  0  0  0  0  0  0  0  0  0  0  0
   12.0166   13.3595   10.2334 N   0  0  0  0  0  0  0  0  0  0  0  0
   11.4079   13.5552    7.9676 N   0  0  0  0  0  0  0  0  0  0  0  0
   11.2688   13.0612    6.7271 C   0  0  0  0  0  0  0  0  0  0  0  0
   11.6511   11.7269    6.4621 C   0  0  0  0  0  0  0  0  0  0  0  0
   12.1736   10.9579    7.5488 C   0  0  0  0  0  0  0  0  0  0  0  0
   12.5664    9.6550    7.3626 N   0  0  0  0  0  0  0  0  0  0  0  0
   11.4048   11.4914    5.1416 N   0  0  0  0  0  0  0  0  0  0  0  0
   10.9082   12.5637    4.6017 C   0  0  0  0  0  0  0  0  0  0  0  0
   10.8064   13.5634    5.5358 N   0  0  0  0  0  0  0  0  0  0  0  0
  1  7  2  0  0  0  0
  1  2  1  0  0  0  0
  2  3  1  0  0  0  0
  2  4  2  0  0  0  0
  4  5  1  0  0  0  0
  5  6  2  0  0  0  0
  5 11  1  0  0  0  0
  6  7  1  0  0  0  0
  6  9  1  0  0  0  0
  7  8  1  0  0  0  0
  9 10  1  0  0  0  0
 10 11  2  0  0  0  0
M  END
>  <CHROM.1>
11.67710477,12.20508587,7.23468211,-0.96888714,1.17718961,-2.19913356

>  <Name>
ligand

>  <RI>
0

>  <Rbt.Current_Directory>
/home/itssahil/PROJECTS/Mol_Feturizer/New_Systems/rnas/4FEO

>  <Rbt.Executable>
rbdock ($Id: //depot/dev/client3/rdock/2013.1/src/exe/rbdock.cxx#4 $)

>  <Rbt.Library>
libRbt.so (2013.1, Build901 2013/11/27)

>  <Rbt.Parameter_File>
/export/apps/rDock/src/rDock_2013.1_src/data/scripts/dock_solv.prm

>  <Rbt.Receptor>
prm/pocket_docking_7.prm

>  <SCORE>
-11.1995

>  <SCORE.INTER>
-11.1995

>  <SCORE.INTER.CONST>
1

>  <SCORE.INTER.POLAR>
0

>  <SCORE.INTER.ROT>
0

>  <SCORE.INTER.SOLV>
19.2978

>  <SCORE.INTER.VDW>
-17.4989

>  <SCORE.INTER.norm>
-1.01813

>  <SCORE.INTRA>
0

>  <SCORE.INTRA.DIHEDRAL>
0

>  <SCORE.INTRA.DIHEDRAL.0>
0

>  <SCORE.INTRA.POLAR>
0

>  <SCORE.INTRA.POLAR.0>
0

>  <SCORE.INTRA.REPUL>
0

>  <SCORE.INTRA.REPUL.0>
0

>  <SCORE.INTRA.SOLV>
0

>  <SCORE.INTRA.SOLV.lig_0>
-48.9252

>  <SCORE.INTRA.VDW>
0

>  <SCORE.INTRA.VDW.0>
0

>  <SCORE.INTRA.norm>
0

>  <SCORE.RESTR>
0

>  <SCORE.RESTR.CAVITY>
0

>  <SCORE.RESTR.norm>
0

>  <SCORE.SYSTEM>
0

>  <SCORE.SYSTEM.CONST>
0

>  <SCORE.SYSTEM.DIHEDRAL>
0

>  <SCORE.SYSTEM.SOLV>
0

>  <SCORE.SYSTEM.norm>
0

>  <SCORE.heavy>
11

>  <SCORE.norm>
-1.01813

>  <RMSD>
0.531

$$$$
ligand
 OpenBabel11021811493D
libRbt.so/2013.1/901 2013/11/27
 11 12  0  0  0  0  0  0  0  0999 V2000
   12.2818   11.5275    8.7657 N   0  0  0  0  0  0  0  0  0  0  0  0
   11.9016   12.8027    8.9655 C   0  0  0  0  0  0  0  0  0  0  0  0
   12.0192   13.3567   10.2321 N   0  0  0  0  0  0  0  0  0  0  0  0
   11.4091   13.5522    7.9666 N   0  0  0  0  0  0  0  0  0  0  0  0
   11.2703   13.0584    6.7260 C   0  0  0  0  0  0  0  0  0  0  0  0
   11.6549   11.7249    6.4603 C   0  0  0  0  0  0  0  0  0  0  0  0
   12.1792   10.9564    7.5465 C   0  0  0  0  0  0  0  0  0  0  0  0
   12.5741    9.6543    7.3596 N   0  0  0  0  0  0  0  0  0  0  0  0
   11.4084   11.4895    5.1398 N   0  0  0  0  0  0  0  0  0  0  0  0
   10.9097   12.5612    4.6006 C   0  0  0  0  0  0  0  0  0  0  0  0
   10.8066   13.5604    5.5351 N   0  0  0  0  0  0  0  0  0  0  0  0
  1  7  2  0  0  0  0
  1  2  1  0  0  0  0
  2  3  1  0  0  0  0
  2  4  2  0  0  0  0
  4  5  1  0  0  0  0
  5  6  2  0  0  0  0
  5 11  1  0  0  0  0
  6  7  1  0  0  0  0
  6  9  1  0  0  0  0
  7  8  1  0  0  0  0
  9 10  1  0  0  0  0
 10 11  2  0  0  0  0
M  END
>  <CHROM.1>
11.68038782,12.20285308,7.23307385,-0.97059085,1.17553495,-2.19717451

>  <Name>
ligand

>  <RI>
0

>  <Rbt.Current_Directory>
/home/itssahil/PROJECTS/Mol_Feturizer/New_Systems/rnas/4FEO

>  <Rbt.Executable>
rbdock ($Id: //depot/dev/client3/rdock/2013.1/src/exe/rbdock.cxx#4 $)

>  <Rbt.Library>
libRbt.so (2013.1, Build901 2013/11/27)

>  <Rbt.Parameter_File>
/export/apps/rDock/src/rDock_2013.1_src/data/scripts/dock_solv.prm

>  <Rbt.Receptor>
prm/pocket_docking_7.prm

>  <SCORE>
-11.2007

>  <SCORE.INTER>
-11.2007

>  <SCORE.INTER.CONST>
1

>  <SCORE.INTER.POLAR>
0

>  <SCORE.INTER.ROT>
0

>  <SCORE.INTER.SOLV>
19.2639

>  <SCORE.INTER.VDW>
-17.4884

>  <SCORE.INTER.norm>
-1.01825

>  <SCORE.INTRA>
0

>  <SCORE.INTRA.DIHEDRAL>
0

>  <SCORE.INTRA.DIHEDRAL.0>
0

>  <SCORE.INTRA.POLAR>
0

>  <SCORE.INTRA.POLAR.0>
0

>  <SCORE.INTRA.REPUL>
0

>  <SCORE.INTRA.REPUL.0>
0

>  <SCORE.INTRA.SOLV>
0

>  <SCORE.INTRA.SOLV.lig_0>
-48.9252

>  <SCORE.INTRA.VDW>
0

>  <SCORE.INTRA.VDW.0>
0

>  <SCORE.INTRA.norm>
0

>  <SCORE.RESTR>
0

>  <SCORE.RESTR.CAVITY>
0

>  <SCORE.RESTR.norm>
0

>  <SCORE.SYSTEM>
0

>  <SCORE.SYSTEM.CONST>
0

>  <SCORE.SYSTEM.DIHEDRAL>
0

>  <SCORE.SYSTEM.SOLV>
0

>  <SCORE.SYSTEM.norm>
0

>  <SCORE.heavy>
11

>  <SCORE.norm>
-1.01825

>  <RMSD>
0.532

$$$$
ligand
 OpenBabel11021811493D
libRbt.so/2013.1/901 2013/11/27
 11 12  0  0  0  0  0  0  0  0999 V2000
   12.2858   11.4302    8.7597 N   0  0  0  0  0  0  0  0  0  0  0  0
   11.8834   12.6917    8.9990 C   0  0  0  0  0  0  0  0  0  0  0  0
   11.9779   13.2029   10.2854 N   0  0  0  0  0  0  0  0  0  0  0  0
   11.3906   13.4680    8.0209 N   0  0  0  0  0  0  0  0  0  0  0  0
   11.2737   13.0157    6.7624 C   0  0  0  0  0  0  0  0  0  0  0  0
   11.6821   11.6983    6.4552 C   0  0  0  0  0  0  0  0  0  0  0  0
   12.2060   10.9005    7.5202 C   0  0  0  0  0  0  0  0  0  0  0  0
   12.6234    9.6118    7.2930 N   0  0  0  0  0  0  0  0  0  0  0  0
   11.4543   11.5053    5.1245 N   0  0  0  0  0  0  0  0  0  0  0  0
   10.9450   12.5874    4.6169 C   0  0  0  0  0  0  0  0  0  0  0  0
   10.8156   13.5517    5.5842 N   0  0  0  0  0  0  0  0  0  0  0  0
  1  7  2  0  0  0  0
  1  2  1  0  0  0  0
  2  3  1  0  0  0  0
  2  4  2  0  0  0  0
  4  5  1  0  0  0  0
  5  6  2  0  0  0  0
  5 11  1  0  0  0  0
  6  7  1  0  0  0  0
  6  9  1  0  0  0  0
  7  8  1  0  0  0  0
  9 10  1  0  0  0  0
 10 11  2  0  0  0  0
M  END
>  <CHROM.1>
11.69130186,12.14931416,7.24431720,-1.01761498,1.16909070,-2.11906162

>  <Name>
ligand

>  <RI>
0

>  <Rbt.Current_Directory>
/home/itssahil/PROJECTS/Mol_Feturizer/New_Systems/rnas/4FEO

>  <Rbt.Executable>
rbdock ($Id: //depot/dev/client3/rdock/2013.1/src/exe/rbdock.cxx#4 $)

>  <Rbt.Library>
libRbt.so (2013.1, Build901 2013/11/27)

>  <Rbt.Parameter_File>
/export/apps/rDock/src/rDock_2013.1_src/data/scripts/dock_solv.prm

>  <Rbt.Receptor>
prm/blind_docking_100.prm

>  <SCORE>
-11.0745

>  <SCORE.INTER>
-11.0745

>  <SCORE.INTER.CONST>
1

>  <SCORE.INTER.POLAR>
0

>  <SCORE.INTER.ROT>
0

>  <SCORE.INTER.SOLV>
18.925

>  <SCORE.INTER.VDW>
-17.2913

>  <SCORE.INTER.norm>
-1.00677

>  <SCORE.INTRA>
0

>  <SCORE.INTRA.DIHEDRAL>
0

>  <SCORE.INTRA.DIHEDRAL.0>
0

>  <SCORE.INTRA.POLAR>
0

>  <SCORE.INTRA.POLAR.0>
0

>  <SCORE.INTRA.REPUL>
0

>  <SCORE.INTRA.REPUL.0>
0

>  <SCORE.INTRA.SOLV>
0

>  <SCORE.INTRA.SOLV.lig_0>
-48.9252

>  <SCORE.INTRA.VDW>
0

>  <SCORE.INTRA.VDW.0>
0

>  <SCORE.INTRA.norm>
0

>  <SCORE.RESTR>
0

>  <SCORE.RESTR.CAVITY>
0

>  <SCORE.RESTR.norm>
0

>  <SCORE.SYSTEM>
0

>  <SCORE.SYSTEM.CONST>
0

>  <SCORE.SYSTEM.DIHEDRAL>
0

>  <SCORE.SYSTEM.SOLV>
0

>  <SCORE.SYSTEM.norm>
0

>  <SCORE.heavy>
11

>  <SCORE.norm>
-1.00677

>  <RMSD>
0.533

$$$$
ligand
 OpenBabel11021811493D
libRbt.so/2013.1/901 2013/11/27
 11 12  0  0  0  0  0  0  0  0999 V2000
   12.2692   11.5286    8.7677 N   0  0  0  0  0  0  0  0  0  0  0  0
   11.9020   12.8076    8.9678 C   0  0  0  0  0  0  0  0  0  0  0  0
   12.0275   13.3606   10.2341 N   0  0  0  0  0  0  0  0  0  0  0  0
   11.4151   13.5617    7.9697 N   0  0  0  0  0  0  0  0  0  0  0  0
   11.2691   13.0690    6.7295 C   0  0  0  0  0  0  0  0  0  0  0  0
   11.6400   11.7317    6.4634 C   0  0  0  0  0  0  0  0  0  0  0  0
   12.1587   10.9582    7.5488 C   0  0  0  0  0  0  0  0  0  0  0  0
   12.5403    9.6522    7.3616 N   0  0  0  0  0  0  0  0  0  0  0  0
   11.3887   11.4984    5.1435 N   0  0  0  0  0  0  0  0  0  0  0  0
   10.8996   12.5748    4.6049 C   0  0  0  0  0  0  0  0  0  0  0  0
   10.8081   13.5752    5.5393 N   0  0  0  0  0  0  0  0  0  0  0  0
  1  7  2  0  0  0  0
  1  2  1  0  0  0  0
  2  3  1  0  0  0  0
  2  4  2  0  0  0  0
  4  5  1  0  0  0  0
  5  6  2  0  0  0  0
  5 11  1  0  0  0  0
  6  7  1  0  0  0  0
  6  9  1  0  0  0  0
  7  8  1  0  0  0  0
  9 10  1  0  0  0  0
 10 11  2  0  0  0  0
M  END
>  <CHROM.1>
11.67164311,12.20949643,7.23601723,-0.95125998,1.18238270,-2.21529313

>  <Name>
ligand

>  <RI>
0

>  <Rbt.Current_Directory>
/home/itssahil/PROJECTS/Mol_Feturizer/New_Systems/rnas/4FEO

>  <Rbt.Executable>
rbdock ($Id: //depot/dev/client3/rdock/2013.1/src/exe/rbdock.cxx#4 $)

>  <Rbt.Library>
libRbt.so (2013.1, Build901 2013/11/27)

>  <Rbt.Parameter_File>
/export/apps/rDock/src/rDock_2013.1_src/data/scripts/dock_solv.prm

>  <Rbt.Receptor>
prm/pocket_docking_7.prm

>  <SCORE>
-11.1926

>  <SCORE.INTER>
-11.1926

>  <SCORE.INTER.CONST>
1

>  <SCORE.INTER.POLAR>
0

>  <SCORE.INTER.ROT>
0

>  <SCORE.INTER.SOLV>
19.3771

>  <SCORE.INTER.VDW>
-17.5208

>  <SCORE.INTER.norm>
-1.01751

>  <SCORE.INTRA>
0

>  <SCORE.INTRA.DIHEDRAL>
0

>  <SCORE.INTRA.DIHEDRAL.0>
0

>  <SCORE.INTRA.POLAR>
0

>  <SCORE.INTRA.POLAR.0>
0

>  <SCORE.INTRA.REPUL>
0

>  <SCORE.INTRA.REPUL.0>
0

>  <SCORE.INTRA.SOLV>
0

>  <SCORE.INTRA.SOLV.lig_0>
-48.9252

>  <SCORE.INTRA.VDW>
0

>  <SCORE.INTRA.VDW.0>
0

>  <SCORE.INTRA.norm>
0

>  <SCORE.RESTR>
0

>  <SCORE.RESTR.CAVITY>
0

>  <SCORE.RESTR.norm>
0

>  <SCORE.SYSTEM>
0

>  <SCORE.SYSTEM.CONST>
0

>  <SCORE.SYSTEM.DIHEDRAL>
0

>  <SCORE.SYSTEM.SOLV>
0

>  <SCORE.SYSTEM.norm>
0

>  <SCORE.heavy>
11

>  <SCORE.norm>
-1.01751

>  <RMSD>
0.533

$$$$
ligand
 OpenBabel11021811493D
libRbt.so/2013.1/901 2013/11/27
 11 12  0  0  0  0  0  0  0  0999 V2000
   12.3172   11.5651    8.7671 N   0  0  0  0  0  0  0  0  0  0  0  0
   11.9294   12.8375    8.9700 C   0  0  0  0  0  0  0  0  0  0  0  0
   12.0518   13.3917   10.2361 N   0  0  0  0  0  0  0  0  0  0  0  0
   11.4247   13.5839    7.9750 N   0  0  0  0  0  0  0  0  0  0  0  0
   11.2808   13.0896    6.7352 C   0  0  0  0  0  0  0  0  0  0  0  0
   11.6730   11.7590    6.4662 C   0  0  0  0  0  0  0  0  0  0  0  0
   12.2103   10.9938    7.5483 C   0  0  0  0  0  0  0  0  0  0  0  0
   12.6131    9.6946    7.3582 N   0  0  0  0  0  0  0  0  0  0  0  0
   11.4191   11.5224    5.1473 N   0  0  0  0  0  0  0  0  0  0  0  0
   10.9090   12.5907    4.6120 C   0  0  0  0  0  0  0  0  0  0  0  0
   10.8053   13.5887    5.5477 N   0  0  0  0  0  0  0  0  0  0  0  0
  1  7  2  0  0  0  0
  1  2  1  0  0  0  0
  2  3  1  0  0  0  0
  2  4  2  0  0  0  0
  4  5  1  0  0  0  0
  5  6  2  0  0  0  0
  5 11  1  0  0  0  0
  6  7  1  0  0  0  0
  6  9  1  0  0  0  0
  7  8  1  0  0  0  0
  9 10  1  0  0  0  0
 10 11  2  0  0  0  0
M  END
>  <CHROM.1>
11.70043188,12.23678332,7.23895214,-0.96695862,1.16571228,-2.20008572

>  <Name>
ligand

>  <RI>
0

>  <Rbt.Current_Directory>
/home/itssahil/PROJECTS/Mol_Feturizer/New_Systems/rnas/4FEO

>  <Rbt.Executable>
rbdock ($Id: //depot/dev/client3/rdock/2013.1/src/exe/rbdock.cxx#4 $)

>  <Rbt.Library>
libRbt.so (2013.1, Build901 2013/11/27)

>  <Rbt.Parameter_File>
/export/apps/rDock/src/rDock_2013.1_src/data/scripts/dock_solv.prm

>  <Rbt.Receptor>
prm/pocket_docking_3.prm

>  <SCORE>
-11.1754

>  <SCORE.INTER>
-11.1754

>  <SCORE.INTER.CONST>
1

>  <SCORE.INTER.POLAR>
0

>  <SCORE.INTER.ROT>
0

>  <SCORE.INTER.SOLV>
19.1327

>  <SCORE.INTER.VDW>
-17.4278

>  <SCORE.INTER.norm>
-1.01595

>  <SCORE.INTRA>
0

>  <SCORE.INTRA.DIHEDRAL>
0

>  <SCORE.INTRA.DIHEDRAL.0>
0

>  <SCORE.INTRA.POLAR>
0

>  <SCORE.INTRA.POLAR.0>
0

>  <SCORE.INTRA.REPUL>
0

>  <SCORE.INTRA.REPUL.0>
0

>  <SCORE.INTRA.SOLV>
0

>  <SCORE.INTRA.SOLV.lig_0>
-48.9252

>  <SCORE.INTRA.VDW>
0

>  <SCORE.INTRA.VDW.0>
0

>  <SCORE.INTRA.norm>
0

>  <SCORE.RESTR>
0

>  <SCORE.RESTR.CAVITY>
0

>  <SCORE.RESTR.norm>
0

>  <SCORE.SYSTEM>
0

>  <SCORE.SYSTEM.CONST>
0

>  <SCORE.SYSTEM.DIHEDRAL>
0

>  <SCORE.SYSTEM.SOLV>
0

>  <SCORE.SYSTEM.norm>
0

>  <SCORE.heavy>
11

>  <SCORE.norm>
-1.01595

>  <RMSD>
0.534

$$$$
ligand
 OpenBabel11021811493D
libRbt.so/2013.1/901 2013/11/27
 11 12  0  0  0  0  0  0  0  0999 V2000
   12.3135   11.5668    8.7694 N   0  0  0  0  0  0  0  0  0  0  0  0
   11.9275   12.8396    8.9736 C   0  0  0  0  0  0  0  0  0  0  0  0
   12.0450   13.3905   10.2415 N   0  0  0  0  0  0  0  0  0  0  0  0
   11.4294   13.5895    7.9778 N   0  0  0  0  0  0  0  0  0  0  0  0
   11.2905   13.0985    6.7362 C   0  0  0  0  0  0  0  0  0  0  0  0
   11.6811   11.7677    6.4659 C   0  0  0  0  0  0  0  0  0  0  0  0
   12.2113   10.9987    7.5488 C   0  0  0  0  0  0  0  0  0  0  0  0
   12.6122    9.6990    7.3575 N   0  0  0  0  0  0  0  0  0  0  0  0
   11.4331   11.5348    5.1452 N   0  0  0  0  0  0  0  0  0  0  0  0
   10.9281   12.6056    4.6100 C   0  0  0  0  0  0  0  0  0  0  0  0
   10.8219   13.6016    5.5476 N   0  0  0  0  0  0  0  0  0  0  0  0
  1  7  2  0  0  0  0
  1  2  1  0  0  0  0
  2  3  1  0  0  0  0
  2  4  2  0  0  0  0
  4  5  1  0  0  0  0
  5  6  2  0  0  0  0
  5 11  1  0  0  0  0
  6  7  1  0  0  0  0
  6  9  1  0  0  0  0
  7  8  1  0  0  0  0
  9 10  1  0  0  0  0
 10 11  2  0  0  0  0
M  END
>  <CHROM.1>
11.70576974,12.24356112,7.23992980,-0.97376117,1.17040373,-2.19141822

>  <Name>
ligand

>  <RI>
0

>  <Rbt.Current_Directory>
/home/itssahil/PROJECTS/Mol_Feturizer/New_Systems/rnas/4FEO

>  <Rbt.Executable>
rbdock ($Id: //depot/dev/client3/rdock/2013.1/src/exe/rbdock.cxx#4 $)

>  <Rbt.Library>
libRbt.so (2013.1, Build901 2013/11/27)

>  <Rbt.Parameter_File>
/export/apps/rDock/src/rDock_2013.1_src/data/scripts/dock_solv.prm

>  <Rbt.Receptor>
prm/pocket_docking_4.prm

>  <SCORE>
-11.183

>  <SCORE.INTER>
-11.183

>  <SCORE.INTER.CONST>
1

>  <SCORE.INTER.POLAR>
0

>  <SCORE.INTER.ROT>
0

>  <SCORE.INTER.SOLV>
19.146

>  <SCORE.INTER.VDW>
-17.4373

>  <SCORE.INTER.norm>
-1.01664

>  <SCORE.INTRA>
0

>  <SCORE.INTRA.DIHEDRAL>
0

>  <SCORE.INTRA.DIHEDRAL.0>
0

>  <SCORE.INTRA.POLAR>
0

>  <SCORE.INTRA.POLAR.0>
0

>  <SCORE.INTRA.REPUL>
0

>  <SCORE.INTRA.REPUL.0>
0

>  <SCORE.INTRA.SOLV>
0

>  <SCORE.INTRA.SOLV.lig_0>
-48.9252

>  <SCORE.INTRA.VDW>
0

>  <SCORE.INTRA.VDW.0>
0

>  <SCORE.INTRA.norm>
0

>  <SCORE.RESTR>
0

>  <SCORE.RESTR.CAVITY>
0

>  <SCORE.RESTR.norm>
0

>  <SCORE.SYSTEM>
0

>  <SCORE.SYSTEM.CONST>
0

>  <SCORE.SYSTEM.DIHEDRAL>
0

>  <SCORE.SYSTEM.SOLV>
0

>  <SCORE.SYSTEM.norm>
0

>  <SCORE.heavy>
11

>  <SCORE.norm>
-1.01664

>  <RMSD>
0.534

$$$$
ligand
 OpenBabel11021811493D
libRbt.so/2013.1/901 2013/11/27
 11 12  0  0  0  0  0  0  0  0999 V2000
   12.2274   11.6302    8.7739 N   0  0  0  0  0  0  0  0  0  0  0  0
   11.8178   12.9002    8.9471 C   0  0  0  0  0  0  0  0  0  0  0  0
   11.8853   13.4699   10.2104 N   0  0  0  0  0  0  0  0  0  0  0  0
   11.3434   13.6296    7.9249 N   0  0  0  0  0  0  0  0  0  0  0  0
   11.2528   13.1199    6.6863 C   0  0  0  0  0  0  0  0  0  0  0  0
   11.6699   11.7910    6.4479 C   0  0  0  0  0  0  0  0  0  0  0  0
   12.1737   11.0442    7.5586 C   0  0  0  0  0  0  0  0  0  0  0  0
   12.5981    9.7477    7.3990 N   0  0  0  0  0  0  0  0  0  0  0  0
   11.4694   11.5368    5.1231 N   0  0  0  0  0  0  0  0  0  0  0  0
   10.9684   12.5931    4.5564 C   0  0  0  0  0  0  0  0  0  0  0  0
   10.8177   13.6002    5.4758 N   0  0  0  0  0  0  0  0  0  0  0  0
  1  7  2  0  0  0  0
  1  2  1  0  0  0  0
  2  3  1  0  0  0  0
  2  4  2  0  0  0  0
  4  5  1  0  0  0  0
  5  6  2  0  0  0  0
  5 11  1  0  0  0  0
  6  7  1  0  0  0  0
  6  9  1  0  0  0  0
  7  8  1  0  0  0  0
  9 10  1  0  0  0  0
 10 11  2  0  0  0  0
M  END
>  <CHROM.1>
11.66228651,12.27766049,7.21559585,-1.06530564,1.17757005,-2.12080473

>  <Name>
ligand

>  <RI>
0

>  <Rbt.Current_Directory>
/home/itssahil/PROJECTS/Mol_Feturizer/New_Systems/rnas/4FEO

>  <Rbt.Executable>
rbdock ($Id: //depot/dev/client3/rdock/2013.1/src/exe/rbdock.cxx#4 $)

>  <Rbt.Library>
libRbt.so (2013.1, Build901 2013/11/27)

>  <Rbt.Parameter_File>
/export/apps/rDock/src/rDock_2013.1_src/data/scripts/dock_solv.prm

>  <Rbt.Receptor>
prm/blind_docking_100.prm

>  <SCORE>
-11.1151

>  <SCORE.INTER>
-11.1151

>  <SCORE.INTER.CONST>
1

>  <SCORE.INTER.POLAR>
0

>  <SCORE.INTER.ROT>
0

>  <SCORE.INTER.SOLV>
19.4804

>  <SCORE.INTER.VDW>
-17.5036

>  <SCORE.INTER.norm>
-1.01047

>  <SCORE.INTRA>
0

>  <SCORE.INTRA.DIHEDRAL>
0

>  <SCORE.INTRA.DIHEDRAL.0>
0

>  <SCORE.INTRA.POLAR>
0

>  <SCORE.INTRA.POLAR.0>
0

>  <SCORE.INTRA.REPUL>
0

>  <SCORE.INTRA.REPUL.0>
0

>  <SCORE.INTRA.SOLV>
0

>  <SCORE.INTRA.SOLV.lig_0>
-48.9252

>  <SCORE.INTRA.VDW>
0

>  <SCORE.INTRA.VDW.0>
0

>  <SCORE.INTRA.norm>
0

>  <SCORE.RESTR>
0

>  <SCORE.RESTR.CAVITY>
0

>  <SCORE.RESTR.norm>
0

>  <SCORE.SYSTEM>
0

>  <SCORE.SYSTEM.CONST>
0

>  <SCORE.SYSTEM.DIHEDRAL>
0

>  <SCORE.SYSTEM.SOLV>
0

>  <SCORE.SYSTEM.norm>
0

>  <SCORE.heavy>
11

>  <SCORE.norm>
-1.01047

>  <RMSD>
0.535

$$$$
ligand
 OpenBabel11021811493D
libRbt.so/2013.1/901 2013/11/27
 11 12  0  0  0  0  0  0  0  0999 V2000
   12.3111   11.5746    8.7692 N   0  0  0  0  0  0  0  0  0  0  0  0
   11.9238   12.8478    8.9685 C   0  0  0  0  0  0  0  0  0  0  0  0
   12.0409   13.4036   10.2344 N   0  0  0  0  0  0  0  0  0  0  0  0
   11.4248   13.5934    7.9701 N   0  0  0  0  0  0  0  0  0  0  0  0
   11.2862   13.0977    6.7303 C   0  0  0  0  0  0  0  0  0  0  0  0
   11.6781   11.7662    6.4649 C   0  0  0  0  0  0  0  0  0  0  0  0
   12.2093   11.0018    7.5507 C   0  0  0  0  0  0  0  0  0  0  0  0
   12.6115    9.7019    7.3642 N   0  0  0  0  0  0  0  0  0  0  0  0
   11.4301   11.5281    5.1452 N   0  0  0  0  0  0  0  0  0  0  0  0
   10.9240   12.5963    4.6060 C   0  0  0  0  0  0  0  0  0  0  0  0
   10.8169   13.5957    5.5398 N   0  0  0  0  0  0  0  0  0  0  0  0
  1  7  2  0  0  0  0
  1  2  1  0  0  0  0
  2  3  1  0  0  0  0
  2  4  2  0  0  0  0
  4  5  1  0  0  0  0
  5  6  2  0  0  0  0
  5 11  1  0  0  0  0
  6  7  1  0  0  0  0
  6  9  1  0  0  0  0
  7  8  1  0  0  0  0
  9 10  1  0  0  0  0
 10 11  2  0  0  0  0
M  END
>  <CHROM.1>
11.70241100,12.24500323,7.23719452,-0.97499622,1.16947464,-2.19405206

>  <Name>
ligand

>  <RI>
0

>  <Rbt.Current_Directory>
/home/itssahil/PROJECTS/Mol_Feturizer/New_Systems/rnas/4FEO

>  <Rbt.Executable>
rbdock ($Id: //depot/dev/client3/rdock/2013.1/src/exe/rbdock.cxx#4 $)

>  <Rbt.Library>
libRbt.so (2013.1, Build901 2013/11/27)

>  <Rbt.Parameter_File>
/export/apps/rDock/src/rDock_2013.1_src/data/scripts/dock_solv.prm

>  <Rbt.Receptor>
prm/blind_docking_40.prm

>  <SCORE>
-11.1816

>  <SCORE.INTER>
-11.1816

>  <SCORE.INTER.CONST>
1

>  <SCORE.INTER.POLAR>
0

>  <SCORE.INTER.ROT>
0

>  <SCORE.INTER.SOLV>
19.1701

>  <SCORE.INTER.VDW>
-17.4445

>  <SCORE.INTER.norm>
-1.01651

>  <SCORE.INTRA>
0

>  <SCORE.INTRA.DIHEDRAL>
0

>  <SCORE.INTRA.DIHEDRAL.0>
0

>  <SCORE.INTRA.POLAR>
0

>  <SCORE.INTRA.POLAR.0>
0

>  <SCORE.INTRA.REPUL>
0

>  <SCORE.INTRA.REPUL.0>
0

>  <SCORE.INTRA.SOLV>
0

>  <SCORE.INTRA.SOLV.lig_0>
-48.9252

>  <SCORE.INTRA.VDW>
0

>  <SCORE.INTRA.VDW.0>
0

>  <SCORE.INTRA.norm>
0

>  <SCORE.RESTR>
0

>  <SCORE.RESTR.CAVITY>
0

>  <SCORE.RESTR.norm>
0

>  <SCORE.SYSTEM>
0

>  <SCORE.SYSTEM.CONST>
0

>  <SCORE.SYSTEM.DIHEDRAL>
0

>  <SCORE.SYSTEM.SOLV>
0

>  <SCORE.SYSTEM.norm>
0

>  <SCORE.heavy>
11

>  <SCORE.norm>
-1.01651

>  <RMSD>
0.535

$$$$
ligand
 OpenBabel11021811493D
libRbt.so/2013.1/901 2013/11/27
 11 12  0  0  0  0  0  0  0  0999 V2000
   12.3164   11.5995    8.7846 N   0  0  0  0  0  0  0  0  0  0  0  0
   11.9391   12.8731    8.9993 C   0  0  0  0  0  0  0  0  0  0  0  0
   12.0556   13.4111   10.2730 N   0  0  0  0  0  0  0  0  0  0  0  0
   11.4504   13.6361    8.0089 N   0  0  0  0  0  0  0  0  0  0  0  0
   11.3128   13.1581    6.7621 C   0  0  0  0  0  0  0  0  0  0  0  0
   11.6946   11.8270    6.4806 C   0  0  0  0  0  0  0  0  0  0  0  0
   12.2149   11.0438    7.5582 C   0  0  0  0  0  0  0  0  0  0  0  0
   12.6069    9.7431    7.3560 N   0  0  0  0  0  0  0  0  0  0  0  0
   11.4501   11.6086    5.1568 N   0  0  0  0  0  0  0  0  0  0  0  0
   10.9551   12.6881    4.6299 C   0  0  0  0  0  0  0  0  0  0  0  0
   10.8526   13.6759    5.5765 N   0  0  0  0  0  0  0  0  0  0  0  0
  1  7  2  0  0  0  0
  1  2  1  0  0  0  0
  2  3  1  0  0  0  0
  2  4  2  0  0  0  0
  4  5  1  0  0  0  0
  5  6  2  0  0  0  0
  5 11  1  0  0  0  0
  6  7  1  0  0  0  0
  6  9  1  0  0  0  0
  7  8  1  0  0  0  0
  9 10  1  0  0  0  0
 10 11  2  0  0  0  0
M  END
>  <CHROM.1>
11.71972962,12.29528659,7.25924830,-0.97091603,1.17868362,-2.18450223

>  <Name>
ligand

>  <RI>
0

>  <Rbt.Current_Directory>
/home/itssahil/PROJECTS/Mol_Feturizer/New_Systems/rnas/4FEO

>  <Rbt.Executable>
rbdock ($Id: //depot/dev/client3/rdock/2013.1/src/exe/rbdock.cxx#4 $)

>  <Rbt.Library>
libRbt.so (2013.1, Build901 2013/11/27)

>  <Rbt.Parameter_File>
/export/apps/rDock/src/rDock_2013.1_src/data/scripts/dock_solv.prm

>  <Rbt.Receptor>
prm/pocket_docking_3.prm

>  <SCORE>
-11.2144

>  <SCORE.INTER>
-11.2144

>  <SCORE.INTER.CONST>
1

>  <SCORE.INTER.POLAR>
0

>  <SCORE.INTER.ROT>
0

>  <SCORE.INTER.SOLV>
19.1953

>  <SCORE.INTER.VDW>
-17.4747

>  <SCORE.INTER.norm>
-1.01949

>  <SCORE.INTRA>
0

>  <SCORE.INTRA.DIHEDRAL>
0

>  <SCORE.INTRA.DIHEDRAL.0>
0

>  <SCORE.INTRA.POLAR>
0

>  <SCORE.INTRA.POLAR.0>
0

>  <SCORE.INTRA.REPUL>
0

>  <SCORE.INTRA.REPUL.0>
0

>  <SCORE.INTRA.SOLV>
0

>  <SCORE.INTRA.SOLV.lig_0>
-48.9252

>  <SCORE.INTRA.VDW>
0

>  <SCORE.INTRA.VDW.0>
0

>  <SCORE.INTRA.norm>
0

>  <SCORE.RESTR>
0

>  <SCORE.RESTR.CAVITY>
0

>  <SCORE.RESTR.norm>
0

>  <SCORE.SYSTEM>
0

>  <SCORE.SYSTEM.CONST>
0

>  <SCORE.SYSTEM.DIHEDRAL>
0

>  <SCORE.SYSTEM.SOLV>
0

>  <SCORE.SYSTEM.norm>
0

>  <SCORE.heavy>
11

>  <SCORE.norm>
-1.01949

>  <RMSD>
0.535

$$$$
ligand
 OpenBabel11021811493D
libRbt.so/2013.1/901 2013/11/27
 11 12  0  0  0  0  0  0  0  0999 V2000
   12.3129   11.5659    8.7681 N   0  0  0  0  0  0  0  0  0  0  0  0
   11.9257   12.8386    8.9702 C   0  0  0  0  0  0  0  0  0  0  0  0
   12.0431   13.3918   10.2372 N   0  0  0  0  0  0  0  0  0  0  0  0
   11.4265   13.5863    7.9734 N   0  0  0  0  0  0  0  0  0  0  0  0
   11.2876   13.0931    6.7326 C   0  0  0  0  0  0  0  0  0  0  0  0
   11.6793   11.7622    6.4644 C   0  0  0  0  0  0  0  0  0  0  0  0
   12.2108   10.9956    7.5484 C   0  0  0  0  0  0  0  0  0  0  0  0
   12.6129    9.6960    7.3591 N   0  0  0  0  0  0  0  0  0  0  0  0
   11.4310   11.5269    5.1443 N   0  0  0  0  0  0  0  0  0  0  0  0
   10.9247   12.5962    4.6074 C   0  0  0  0  0  0  0  0  0  0  0  0
   10.8180   13.5937    5.5434 N   0  0  0  0  0  0  0  0  0  0  0  0
  1  7  2  0  0  0  0
  1  2  1  0  0  0  0
  2  3  1  0  0  0  0
  2  4  2  0  0  0  0
  4  5  1  0  0  0  0
  5  6  2  0  0  0  0
  5 11  1  0  0  0  0
  6  7  1  0  0  0  0
  6  9  1  0  0  0  0
  7  8  1  0  0  0  0
  9 10  1  0  0  0  0
 10 11  2  0  0  0  0
M  END
>  <CHROM.1>
11.70387465,12.23943717,7.23766797,-0.97442346,1.16934118,-2.19249851

>  <Name>
ligand

>  <RI>
0

>  <Rbt.Current_Directory>
/home/itssahil/PROJECTS/Mol_Feturizer/New_Systems/rnas/4FEO

>  <Rbt.Executable>
rbdock ($Id: //depot/dev/client3/rdock/2013.1/src/exe/rbdock.cxx#4 $)

>  <Rbt.Library>
libRbt.so (2013.1, Build901 2013/11/27)

>  <Rbt.Parameter_File>
/export/apps/rDock/src/rDock_2013.1_src/data/scripts/dock_solv.prm

>  <Rbt.Receptor>
prm/pocket_docking_6.prm

>  <SCORE>
-11.1835

>  <SCORE.INTER>
-11.1835

>  <SCORE.INTER.CONST>
1

>  <SCORE.INTER.POLAR>
0

>  <SCORE.INTER.ROT>
0

>  <SCORE.INTER.SOLV>
19.1453

>  <SCORE.INTER.VDW>
-17.4374

>  <SCORE.INTER.norm>
-1.01668

>  <SCORE.INTRA>
0

>  <SCORE.INTRA.DIHEDRAL>
0

>  <SCORE.INTRA.DIHEDRAL.0>
0

>  <SCORE.INTRA.POLAR>
0

>  <SCORE.INTRA.POLAR.0>
0

>  <SCORE.INTRA.REPUL>
0

>  <SCORE.INTRA.REPUL.0>
0

>  <SCORE.INTRA.SOLV>
0

>  <SCORE.INTRA.SOLV.lig_0>
-48.9252

>  <SCORE.INTRA.VDW>
0

>  <SCORE.INTRA.VDW.0>
0

>  <SCORE.INTRA.norm>
0

>  <SCORE.RESTR>
0

>  <SCORE.RESTR.CAVITY>
0

>  <SCORE.RESTR.norm>
0

>  <SCORE.SYSTEM>
0

>  <SCORE.SYSTEM.CONST>
0

>  <SCORE.SYSTEM.DIHEDRAL>
0

>  <SCORE.SYSTEM.SOLV>
0

>  <SCORE.SYSTEM.norm>
0

>  <SCORE.heavy>
11

>  <SCORE.norm>
-1.01668

>  <RMSD>
0.535

$$$$
ligand
 OpenBabel11021811493D
libRbt.so/2013.1/901 2013/11/27
 11 12  0  0  0  0  0  0  0  0999 V2000
   12.3097   11.5990    8.7884 N   0  0  0  0  0  0  0  0  0  0  0  0
   11.9462   12.8784    8.9929 C   0  0  0  0  0  0  0  0  0  0  0  0
   12.0661   13.4245   10.2627 N   0  0  0  0  0  0  0  0  0  0  0  0
   11.4681   13.6394    7.9958 N   0  0  0  0  0  0  0  0  0  0  0  0
   11.3277   13.1536    6.7522 C   0  0  0  0  0  0  0  0  0  0  0  0
   11.6952   11.8163    6.4815 C   0  0  0  0  0  0  0  0  0  0  0  0
   12.2044   11.0354    7.5660 C   0  0  0  0  0  0  0  0  0  0  0  0
   12.5823    9.7289    7.3743 N   0  0  0  0  0  0  0  0  0  0  0  0
   11.4510   11.5907    5.1588 N   0  0  0  0  0  0  0  0  0  0  0  0
   10.9692   12.6717    4.6229 C   0  0  0  0  0  0  0  0  0  0  0  0
   10.8758   13.6676    5.5619 N   0  0  0  0  0  0  0  0  0  0  0  0
  1  7  2  0  0  0  0
  1  2  1  0  0  0  0
  2  3  1  0  0  0  0
  2  4  2  0  0  0  0
  4  5  1  0  0  0  0
  5  6  2  0  0  0  0
  5 11  1  0  0  0  0
  6  7  1  0  0  0  0
  6  9  1  0  0  0  0
  7  8  1  0  0  0  0
  9 10  1  0  0  0  0
 10 11  2  0  0  0  0
M  END
>  <CHROM.1>
11.72396379,12.29002769,7.25669342,-0.95812773,1.18900036,-2.20380420

>  <Name>
ligand

>  <RI>
0

>  <Rbt.Current_Directory>
/home/itssahil/PROJECTS/Mol_Feturizer/New_Systems/rnas/4FEO

>  <Rbt.Executable>
rbdock ($Id: //depot/dev/client3/rdock/2013.1/src/exe/rbdock.cxx#4 $)

>  <Rbt.Library>
libRbt.so (2013.1, Build901 2013/11/27)

>  <Rbt.Parameter_File>
/export/apps/rDock/src/rDock_2013.1_src/data/scripts/dock_solv.prm

>  <Rbt.Receptor>
prm/pocket_docking_3.prm

>  <SCORE>
-11.2037

>  <SCORE.INTER>
-11.2037

>  <SCORE.INTER.CONST>
1

>  <SCORE.INTER.POLAR>
0

>  <SCORE.INTER.ROT>
0

>  <SCORE.INTER.SOLV>
19.2951

>  <SCORE.INTER.VDW>
-17.5008

>  <SCORE.INTER.norm>
-1.01852

>  <SCORE.INTRA>
0

>  <SCORE.INTRA.DIHEDRAL>
0

>  <SCORE.INTRA.DIHEDRAL.0>
0

>  <SCORE.INTRA.POLAR>
0

>  <SCORE.INTRA.POLAR.0>
0

>  <SCORE.INTRA.REPUL>
0

>  <SCORE.INTRA.REPUL.0>
0

>  <SCORE.INTRA.SOLV>
0

>  <SCORE.INTRA.SOLV.lig_0>
-48.9252

>  <SCORE.INTRA.VDW>
0

>  <SCORE.INTRA.VDW.0>
0

>  <SCORE.INTRA.norm>
0

>  <SCORE.RESTR>
0

>  <SCORE.RESTR.CAVITY>
0

>  <SCORE.RESTR.norm>
0

>  <SCORE.SYSTEM>
0

>  <SCORE.SYSTEM.CONST>
0

>  <SCORE.SYSTEM.DIHEDRAL>
0

>  <SCORE.SYSTEM.SOLV>
0

>  <SCORE.SYSTEM.norm>
0

>  <SCORE.heavy>
11

>  <SCORE.norm>
-1.01852

>  <RMSD>
0.536

$$$$
ligand
 OpenBabel11021811493D
libRbt.so/2013.1/901 2013/11/27
 11 12  0  0  0  0  0  0  0  0999 V2000
   12.3063   11.4669    8.7547 N   0  0  0  0  0  0  0  0  0  0  0  0
   11.9099   12.7318    8.9861 C   0  0  0  0  0  0  0  0  0  0  0  0
   12.0254   13.2572   10.2651 N   0  0  0  0  0  0  0  0  0  0  0  0
   11.4032   13.4980    8.0073 N   0  0  0  0  0  0  0  0  0  0  0  0
   11.2658   13.0319    6.7559 C   0  0  0  0  0  0  0  0  0  0  0  0
   11.6671   11.7104    6.4571 C   0  0  0  0  0  0  0  0  0  0  0  0
   12.2063   10.9235    7.5227 C   0  0  0  0  0  0  0  0  0  0  0  0
   12.6178    9.6317    7.3035 N   0  0  0  0  0  0  0  0  0  0  0  0
   11.4182   11.5030    5.1324 N   0  0  0  0  0  0  0  0  0  0  0  0
   10.9028   12.5803    4.6207 C   0  0  0  0  0  0  0  0  0  0  0  0
   10.7903   13.5556    5.5791 N   0  0  0  0  0  0  0  0  0  0  0  0
  1  7  2  0  0  0  0
  1  2  1  0  0  0  0
  2  3  1  0  0  0  0
  2  4  2  0  0  0  0
  4  5  1  0  0  0  0
  5  6  2  0  0  0  0
  5 11  1  0  0  0  0
  6  7  1  0  0  0  0
  6  9  1  0  0  0  0
  7  8  1  0  0  0  0
  9 10  1  0  0  0  0
 10 11  2  0  0  0  0
M  END
>  <CHROM.1>
11.68942077,12.17019664,7.24090780,-0.98175828,1.16213999,-2.16320333

>  <Name>
ligand

>  <RI>
0

>  <Rbt.Current_Directory>
/home/itssahil/PROJECTS/Mol_Feturizer/New_Systems/rnas/4FEO

>  <Rbt.Executable>
rbdock ($Id: //depot/dev/client3/rdock/2013.1/src/exe/rbdock.cxx#4 $)

>  <Rbt.Library>
libRbt.so (2013.1, Build901 2013/11/27)

>  <Rbt.Parameter_File>
/export/apps/rDock/src/rDock_2013.1_src/data/scripts/dock_solv.prm

>  <Rbt.Receptor>
prm/pocket_docking_5.prm

>  <SCORE>
-11.1201

>  <SCORE.INTER>
-11.1201

>  <SCORE.INTER.CONST>
1

>  <SCORE.INTER.POLAR>
0

>  <SCORE.INTER.ROT>
0

>  <SCORE.INTER.SOLV>
18.9507

>  <SCORE.INTER.VDW>
-17.3303

>  <SCORE.INTER.norm>
-1.01092

>  <SCORE.INTRA>
0

>  <SCORE.INTRA.DIHEDRAL>
0

>  <SCORE.INTRA.DIHEDRAL.0>
0

>  <SCORE.INTRA.POLAR>
0

>  <SCORE.INTRA.POLAR.0>
0

>  <SCORE.INTRA.REPUL>
0

>  <SCORE.INTRA.REPUL.0>
0

>  <SCORE.INTRA.SOLV>
0

>  <SCORE.INTRA.SOLV.lig_0>
-48.9252

>  <SCORE.INTRA.VDW>
0

>  <SCORE.INTRA.VDW.0>
0

>  <SCORE.INTRA.norm>
0

>  <SCORE.RESTR>
0

>  <SCORE.RESTR.CAVITY>
0

>  <SCORE.RESTR.norm>
0

>  <SCORE.SYSTEM>
0

>  <SCORE.SYSTEM.CONST>
0

>  <SCORE.SYSTEM.DIHEDRAL>
0

>  <SCORE.SYSTEM.SOLV>
0

>  <SCORE.SYSTEM.norm>
0

>  <SCORE.heavy>
11

>  <SCORE.norm>
-1.01092

>  <RMSD>
0.536

$$$$
ligand
 OpenBabel11021811493D
libRbt.so/2013.1/901 2013/11/27
 11 12  0  0  0  0  0  0  0  0999 V2000
   12.2818   11.5216    8.7615 N   0  0  0  0  0  0  0  0  0  0  0  0
   11.9050   12.7973    8.9647 C   0  0  0  0  0  0  0  0  0  0  0  0
   12.0269   13.3485   10.2321 N   0  0  0  0  0  0  0  0  0  0  0  0
   11.4117   13.5499    7.9685 N   0  0  0  0  0  0  0  0  0  0  0  0
   11.2688   13.0589    6.7274 C   0  0  0  0  0  0  0  0  0  0  0  0
   11.6497   11.7251    6.4580 C   0  0  0  0  0  0  0  0  0  0  0  0
   12.1750   10.9532    7.5414 C   0  0  0  0  0  0  0  0  0  0  0  0
   12.5665    9.6506    7.3510 N   0  0  0  0  0  0  0  0  0  0  0  0
   11.3994   11.4928    5.1377 N   0  0  0  0  0  0  0  0  0  0  0  0
   10.9018   12.5666    4.6018 C   0  0  0  0  0  0  0  0  0  0  0  0
   10.8032   13.5642    5.5385 N   0  0  0  0  0  0  0  0  0  0  0  0
  1  7  2  0  0  0  0
  1  2  1  0  0  0  0
  2  3  1  0  0  0  0
  2  4  2  0  0  0  0
  4  5  1  0  0  0  0
  5  6  2  0  0  0  0
  5 11  1  0  0  0  0
  6  7  1  0  0  0  0
  6  9  1  0  0  0  0
  7  8  1  0  0  0  0
  9 10  1  0  0  0  0
 10 11  2  0  0  0  0
M  END
>  <CHROM.1>
11.67816562,12.20139064,7.23167492,-0.96201106,1.17587414,-2.20311872

>  <Name>
ligand

>  <RI>
0

>  <Rbt.Current_Directory>
/home/itssahil/PROJECTS/Mol_Feturizer/New_Systems/rnas/4FEO

>  <Rbt.Executable>
rbdock ($Id: //depot/dev/client3/rdock/2013.1/src/exe/rbdock.cxx#4 $)

>  <Rbt.Library>
libRbt.so (2013.1, Build901 2013/11/27)

>  <Rbt.Parameter_File>
/export/apps/rDock/src/rDock_2013.1_src/data/scripts/dock_solv.prm

>  <Rbt.Receptor>
prm/pocket_docking_6.prm

>  <SCORE>
-11.1968

>  <SCORE.INTER>
-11.1968

>  <SCORE.INTER.CONST>
1

>  <SCORE.INTER.POLAR>
0

>  <SCORE.INTER.ROT>
0

>  <SCORE.INTER.SOLV>
19.2688

>  <SCORE.INTER.VDW>
-17.4875

>  <SCORE.INTER.norm>
-1.01789

>  <SCORE.INTRA>
0

>  <SCORE.INTRA.DIHEDRAL>
0

>  <SCORE.INTRA.DIHEDRAL.0>
0

>  <SCORE.INTRA.POLAR>
0

>  <SCORE.INTRA.POLAR.0>
0

>  <SCORE.INTRA.REPUL>
0

>  <SCORE.INTRA.REPUL.0>
0

>  <SCORE.INTRA.SOLV>
0

>  <SCORE.INTRA.SOLV.lig_0>
-48.9252

>  <SCORE.INTRA.VDW>
0

>  <SCORE.INTRA.VDW.0>
0

>  <SCORE.INTRA.norm>
0

>  <SCORE.RESTR>
0

>  <SCORE.RESTR.CAVITY>
0

>  <SCORE.RESTR.norm>
0

>  <SCORE.SYSTEM>
0

>  <SCORE.SYSTEM.CONST>
0

>  <SCORE.SYSTEM.DIHEDRAL>
0

>  <SCORE.SYSTEM.SOLV>
0

>  <SCORE.SYSTEM.norm>
0

>  <SCORE.heavy>
11

>  <SCORE.norm>
-1.01789

>  <RMSD>
0.536

$$$$
ligand
 OpenBabel11021811493D
libRbt.so/2013.1/901 2013/11/27
 11 12  0  0  0  0  0  0  0  0999 V2000
   12.2830   11.5094    8.7649 N   0  0  0  0  0  0  0  0  0  0  0  0
   11.9207   12.7885    8.9730 C   0  0  0  0  0  0  0  0  0  0  0  0
   12.0515   13.3342   10.2419 N   0  0  0  0  0  0  0  0  0  0  0  0
   11.4337   13.5497    7.9803 N   0  0  0  0  0  0  0  0  0  0  0  0
   11.2827   13.0643    6.7379 C   0  0  0  0  0  0  0  0  0  0  0  0
   11.6483   11.7272    6.4635 C   0  0  0  0  0  0  0  0  0  0  0  0
   12.1673   10.9461    7.5432 C   0  0  0  0  0  0  0  0  0  0  0  0
   12.5439    9.6399    7.3478 N   0  0  0  0  0  0  0  0  0  0  0  0
   11.3926   11.5020    5.1429 N   0  0  0  0  0  0  0  0  0  0  0  0
   10.9058   12.5830    4.6116 C   0  0  0  0  0  0  0  0  0  0  0  0
   10.8202   13.5786    5.5517 N   0  0  0  0  0  0  0  0  0  0  0  0
  1  7  2  0  0  0  0
  1  2  1  0  0  0  0
  2  3  1  0  0  0  0
  2  4  2  0  0  0  0
  4  5  1  0  0  0  0
  5  6  2  0  0  0  0
  5 11  1  0  0  0  0
  6  7  1  0  0  0  0
  6  9  1  0  0  0  0
  7  8  1  0  0  0  0
  9 10  1  0  0  0  0
 10 11  2  0  0  0  0
M  END
>  <CHROM.1>
11.68363265,12.20073203,7.23857437,-0.94014712,1.18347569,-2.22012241

>  <Name>
ligand

>  <RI>
0

>  <Rbt.Current_Directory>
/home/itssahil/PROJECTS/Mol_Feturizer/New_Systems/rnas/4FEO

>  <Rbt.Executable>
rbdock ($Id: //depot/dev/client3/rdock/2013.1/src/exe/rbdock.cxx#4 $)

>  <Rbt.Library>
libRbt.so (2013.1, Build901 2013/11/27)

>  <Rbt.Parameter_File>
/export/apps/rDock/src/rDock_2013.1_src/data/scripts/dock_solv.prm

>  <Rbt.Receptor>
prm/pocket_docking_6.prm

>  <SCORE>
-11.1619

>  <SCORE.INTER>
-11.1619

>  <SCORE.INTER.CONST>
1

>  <SCORE.INTER.POLAR>
0

>  <SCORE.INTER.ROT>
0

>  <SCORE.INTER.SOLV>
19.3032

>  <SCORE.INTER.VDW>
-17.4756

>  <SCORE.INTER.norm>
-1.01472

>  <SCORE.INTRA>
0

>  <SCORE.INTRA.DIHEDRAL>
0

>  <SCORE.INTRA.DIHEDRAL.0>
0

>  <SCORE.INTRA.POLAR>
0

>  <SCORE.INTRA.POLAR.0>
0

>  <SCORE.INTRA.REPUL>
0

>  <SCORE.INTRA.REPUL.0>
0

>  <SCORE.INTRA.SOLV>
0

>  <SCORE.INTRA.SOLV.lig_0>
-48.9252

>  <SCORE.INTRA.VDW>
0

>  <SCORE.INTRA.VDW.0>
0

>  <SCORE.INTRA.norm>
0

>  <SCORE.RESTR>
0

>  <SCORE.RESTR.CAVITY>
0

>  <SCORE.RESTR.norm>
0

>  <SCORE.SYSTEM>
0

>  <SCORE.SYSTEM.CONST>
0

>  <SCORE.SYSTEM.DIHEDRAL>
0

>  <SCORE.SYSTEM.SOLV>
0

>  <SCORE.SYSTEM.norm>
0

>  <SCORE.heavy>
11

>  <SCORE.norm>
-1.01472

>  <RMSD>
0.537

$$$$
ligand
 OpenBabel11021811493D
libRbt.so/2013.1/901 2013/11/27
 11 12  0  0  0  0  0  0  0  0999 V2000
   12.3061   11.5677    8.7637 N   0  0  0  0  0  0  0  0  0  0  0  0
   11.9168   12.8398    8.9653 C   0  0  0  0  0  0  0  0  0  0  0  0
   12.0277   13.3919   10.2334 N   0  0  0  0  0  0  0  0  0  0  0  0
   11.4213   13.5881    7.9670 N   0  0  0  0  0  0  0  0  0  0  0  0
   11.2887   13.0960    6.7251 C   0  0  0  0  0  0  0  0  0  0  0  0
   11.6830   11.7657    6.4574 C   0  0  0  0  0  0  0  0  0  0  0  0
   12.2102   10.9985    7.5431 C   0  0  0  0  0  0  0  0  0  0  0  0
   12.6145    9.6995    7.3543 N   0  0  0  0  0  0  0  0  0  0  0  0
   11.4410   11.5315    5.1358 N   0  0  0  0  0  0  0  0  0  0  0  0
   10.9362   12.6008    4.5978 C   0  0  0  0  0  0  0  0  0  0  0  0
   10.8241   13.5973    5.5342 N   0  0  0  0  0  0  0  0  0  0  0  0
  1  7  2  0  0  0  0
  1  2  1  0  0  0  0
  2  3  1  0  0  0  0
  2  4  2  0  0  0  0
  4  5  1  0  0  0  0
  5  6  2  0  0  0  0
  5 11  1  0  0  0  0
  6  7  1  0  0  0  0
  6  9  1  0  0  0  0
  7  8  1  0  0  0  0
  9 10  1  0  0  0  0
 10 11  2  0  0  0  0
M  END
>  <CHROM.1>
11.70348906,12.24217381,7.23120693,-0.98555515,1.17120184,-2.18125138

>  <Name>
ligand

>  <RI>
0

>  <Rbt.Current_Directory>
/home/itssahil/PROJECTS/Mol_Feturizer/New_Systems/rnas/4FEO

>  <Rbt.Executable>
rbdock ($Id: //depot/dev/client3/rdock/2013.1/src/exe/rbdock.cxx#4 $)

>  <Rbt.Library>
libRbt.so (2013.1, Build901 2013/11/27)

>  <Rbt.Parameter_File>
/export/apps/rDock/src/rDock_2013.1_src/data/scripts/dock_solv.prm

>  <Rbt.Receptor>
prm/blind_docking_40.prm

>  <SCORE>
-11.1526

>  <SCORE.INTER>
-11.1526

>  <SCORE.INTER.CONST>
1

>  <SCORE.INTER.POLAR>
0

>  <SCORE.INTER.ROT>
0

>  <SCORE.INTER.SOLV>
19.1613

>  <SCORE.INTER.VDW>
-17.4222

>  <SCORE.INTER.norm>
-1.01388

>  <SCORE.INTRA>
0

>  <SCORE.INTRA.DIHEDRAL>
0

>  <SCORE.INTRA.DIHEDRAL.0>
0

>  <SCORE.INTRA.POLAR>
0

>  <SCORE.INTRA.POLAR.0>
0

>  <SCORE.INTRA.REPUL>
0

>  <SCORE.INTRA.REPUL.0>
0

>  <SCORE.INTRA.SOLV>
0

>  <SCORE.INTRA.SOLV.lig_0>
-48.9252

>  <SCORE.INTRA.VDW>
0

>  <SCORE.INTRA.VDW.0>
0

>  <SCORE.INTRA.norm>
0

>  <SCORE.RESTR>
0

>  <SCORE.RESTR.CAVITY>
0

>  <SCORE.RESTR.norm>
0

>  <SCORE.SYSTEM>
0

>  <SCORE.SYSTEM.CONST>
0

>  <SCORE.SYSTEM.DIHEDRAL>
0

>  <SCORE.SYSTEM.SOLV>
0

>  <SCORE.SYSTEM.norm>
0

>  <SCORE.heavy>
11

>  <SCORE.norm>
-1.01388

>  <RMSD>
0.539

$$$$
ligand
 OpenBabel11021811493D
libRbt.so/2013.1/901 2013/11/27
 11 12  0  0  0  0  0  0  0  0999 V2000
   12.3112   11.5669    8.7613 N   0  0  0  0  0  0  0  0  0  0  0  0
   11.9207   12.8390    8.9608 C   0  0  0  0  0  0  0  0  0  0  0  0
   12.0380   13.3955   10.2264 N   0  0  0  0  0  0  0  0  0  0  0  0
   11.4182   13.5830    7.9629 N   0  0  0  0  0  0  0  0  0  0  0  0
   11.2793   13.0865    6.7234 C   0  0  0  0  0  0  0  0  0  0  0  0
   11.6744   11.7561    6.4579 C   0  0  0  0  0  0  0  0  0  0  0  0
   12.2092   10.9935    7.5431 C   0  0  0  0  0  0  0  0  0  0  0  0
   12.6147    9.6946    7.3564 N   0  0  0  0  0  0  0  0  0  0  0  0
   11.4252   11.5170    5.1386 N   0  0  0  0  0  0  0  0  0  0  0  0
   10.9154   12.5836    4.5998 C   0  0  0  0  0  0  0  0  0  0  0  0
   10.8069   13.5830    5.5335 N   0  0  0  0  0  0  0  0  0  0  0  0
  1  7  2  0  0  0  0
  1  2  1  0  0  0  0
  2  3  1  0  0  0  0
  2  4  2  0  0  0  0
  4  5  1  0  0  0  0
  5  6  2  0  0  0  0
  5 11  1  0  0  0  0
  6  7  1  0  0  0  0
  6  9  1  0  0  0  0
  7  8  1  0  0  0  0
  9 10  1  0  0  0  0
 10 11  2  0  0  0  0
M  END
>  <CHROM.1>
11.69850781,12.23516493,7.22998296,-0.97612325,1.16642136,-2.19328017

>  <Name>
ligand

>  <RI>
0

>  <Rbt.Current_Directory>
/home/itssahil/PROJECTS/Mol_Feturizer/New_Systems/rnas/4FEO

>  <Rbt.Executable>
rbdock ($Id: //depot/dev/client3/rdock/2013.1/src/exe/rbdock.cxx#4 $)

>  <Rbt.Library>
libRbt.so (2013.1, Build901 2013/11/27)

>  <Rbt.Parameter_File>
/export/apps/rDock/src/rDock_2013.1_src/data/scripts/dock_solv.prm

>  <Rbt.Receptor>
prm/pocket_docking_3.prm

>  <SCORE>
-11.1785

>  <SCORE.INTER>
-11.1785

>  <SCORE.INTER.CONST>
1

>  <SCORE.INTER.POLAR>
0

>  <SCORE.INTER.ROT>
0

>  <SCORE.INTER.SOLV>
19.1496

>  <SCORE.INTER.VDW>
-17.4355

>  <SCORE.INTER.norm>
-1.01623

>  <SCORE.INTRA>
0

>  <SCORE.INTRA.DIHEDRAL>
0

>  <SCORE.INTRA.DIHEDRAL.0>
0

>  <SCORE.INTRA.POLAR>
0

>  <SCORE.INTRA.POLAR.0>
0

>  <SCORE.INTRA.REPUL>
0

>  <SCORE.INTRA.REPUL.0>
0

>  <SCORE.INTRA.SOLV>
0

>  <SCORE.INTRA.SOLV.lig_0>
-48.9252

>  <SCORE.INTRA.VDW>
0

>  <SCORE.INTRA.VDW.0>
0

>  <SCORE.INTRA.norm>
0

>  <SCORE.RESTR>
0

>  <SCORE.RESTR.CAVITY>
0

>  <SCORE.RESTR.norm>
0

>  <SCORE.SYSTEM>
0

>  <SCORE.SYSTEM.CONST>
0

>  <SCORE.SYSTEM.DIHEDRAL>
0

>  <SCORE.SYSTEM.SOLV>
0

>  <SCORE.SYSTEM.norm>
0

>  <SCORE.heavy>
11

>  <SCORE.norm>
-1.01623

>  <RMSD>
0.539

$$$$
ligand
 OpenBabel11021811493D
libRbt.so/2013.1/901 2013/11/27
 11 12  0  0  0  0  0  0  0  0999 V2000
   12.3026   11.5398    8.7616 N   0  0  0  0  0  0  0  0  0  0  0  0
   11.9182   12.8118    8.9735 C   0  0  0  0  0  0  0  0  0  0  0  0
   12.0333   13.3538   10.2456 N   0  0  0  0  0  0  0  0  0  0  0  0
   11.4237   13.5693    7.9818 N   0  0  0  0  0  0  0  0  0  0  0  0
   11.2871   13.0871    6.7364 C   0  0  0  0  0  0  0  0  0  0  0  0
   11.6763   11.7575    6.4579 C   0  0  0  0  0  0  0  0  0  0  0  0
   12.2026   10.9802    7.5368 C   0  0  0  0  0  0  0  0  0  0  0  0
   12.6019    9.6813    7.3376 N   0  0  0  0  0  0  0  0  0  0  0  0
   11.4312   11.5342    5.1351 N   0  0  0  0  0  0  0  0  0  0  0  0
   10.9292   12.6094    4.6060 C   0  0  0  0  0  0  0  0  0  0  0  0
   10.8223   13.5991    5.5501 N   0  0  0  0  0  0  0  0  0  0  0  0
  1  7  2  0  0  0  0
  1  2  1  0  0  0  0
  2  3  1  0  0  0  0
  2  4  2  0  0  0  0
  4  5  1  0  0  0  0
  5  6  2  0  0  0  0
  5 11  1  0  0  0  0
  6  7  1  0  0  0  0
  6  9  1  0  0  0  0
  7  8  1  0  0  0  0
  9 10  1  0  0  0  0
 10 11  2  0  0  0  0
M  END
>  <CHROM.1>
11.69978363,12.22802345,7.23530652,-0.97663949,1.17313077,-2.18187991

>  <Name>
ligand

>  <RI>
0

>  <Rbt.Current_Directory>
/home/itssahil/PROJECTS/Mol_Feturizer/New_Systems/rnas/4FEO

>  <Rbt.Executable>
rbdock ($Id: //depot/dev/client3/rdock/2013.1/src/exe/rbdock.cxx#4 $)

>  <Rbt.Library>
libRbt.so (2013.1, Build901 2013/11/27)

>  <Rbt.Parameter_File>
/export/apps/rDock/src/rDock_2013.1_src/data/scripts/dock_solv.prm

>  <Rbt.Receptor>
prm/pocket_docking_4.prm

>  <SCORE>
-11.1464

>  <SCORE.INTER>
-11.1464

>  <SCORE.INTER.CONST>
1

>  <SCORE.INTER.POLAR>
0

>  <SCORE.INTER.ROT>
0

>  <SCORE.INTER.SOLV>
19.147

>  <SCORE.INTER.VDW>
-17.4132

>  <SCORE.INTER.norm>
-1.01331

>  <SCORE.INTRA>
0

>  <SCORE.INTRA.DIHEDRAL>
0

>  <SCORE.INTRA.DIHEDRAL.0>
0

>  <SCORE.INTRA.POLAR>
0

>  <SCORE.INTRA.POLAR.0>
0

>  <SCORE.INTRA.REPUL>
0

>  <SCORE.INTRA.REPUL.0>
0

>  <SCORE.INTRA.SOLV>
0

>  <SCORE.INTRA.SOLV.lig_0>
-48.9252

>  <SCORE.INTRA.VDW>
0

>  <SCORE.INTRA.VDW.0>
0

>  <SCORE.INTRA.norm>
0

>  <SCORE.RESTR>
0

>  <SCORE.RESTR.CAVITY>
0

>  <SCORE.RESTR.norm>
0

>  <SCORE.SYSTEM>
0

>  <SCORE.SYSTEM.CONST>
0

>  <SCORE.SYSTEM.DIHEDRAL>
0

>  <SCORE.SYSTEM.SOLV>
0

>  <SCORE.SYSTEM.norm>
0

>  <SCORE.heavy>
11

>  <SCORE.norm>
-1.01331

>  <RMSD>
0.539

$$$$
ligand
 OpenBabel11021811493D
libRbt.so/2013.1/901 2013/11/27
 11 12  0  0  0  0  0  0  0  0999 V2000
   12.3134   11.5620    8.7622 N   0  0  0  0  0  0  0  0  0  0  0  0
   11.9256   12.8345    8.9650 C   0  0  0  0  0  0  0  0  0  0  0  0
   12.0446   13.3877   10.2318 N   0  0  0  0  0  0  0  0  0  0  0  0
   11.4241   13.5819    7.9690 N   0  0  0  0  0  0  0  0  0  0  0  0
   11.2836   13.0886    6.7284 C   0  0  0  0  0  0  0  0  0  0  0  0
   11.6760   11.7580    6.4595 C   0  0  0  0  0  0  0  0  0  0  0  0
   12.2098   10.9917    7.5427 C   0  0  0  0  0  0  0  0  0  0  0  0
   12.6125    9.6925    7.3527 N   0  0  0  0  0  0  0  0  0  0  0  0
   11.4258   11.5226    5.1398 N   0  0  0  0  0  0  0  0  0  0  0  0
   10.9178   12.5915    4.6038 C   0  0  0  0  0  0  0  0  0  0  0  0
   10.8118   13.5889    5.5399 N   0  0  0  0  0  0  0  0  0  0  0  0
  1  7  2  0  0  0  0
  1  2  1  0  0  0  0
  2  3  1  0  0  0  0
  2  4  2  0  0  0  0
  4  5  1  0  0  0  0
  5  6  2  0  0  0  0
  5 11  1  0  0  0  0
  6  7  1  0  0  0  0
  6  9  1  0  0  0  0
  7  8  1  0  0  0  0
  9 10  1  0  0  0  0
 10 11  2  0  0  0  0
M  END
>  <CHROM.1>
11.70139892,12.23522524,7.23276475,-0.97223145,1.16779341,-2.19447647

>  <Name>
ligand

>  <RI>
0

>  <Rbt.Current_Directory>
/home/itssahil/PROJECTS/Mol_Feturizer/New_Systems/rnas/4FEO

>  <Rbt.Executable>
rbdock ($Id: //depot/dev/client3/rdock/2013.1/src/exe/rbdock.cxx#4 $)

>  <Rbt.Library>
libRbt.so (2013.1, Build901 2013/11/27)

>  <Rbt.Parameter_File>
/export/apps/rDock/src/rDock_2013.1_src/data/scripts/dock_solv.prm

>  <Rbt.Receptor>
prm/pocket_docking_7.prm

>  <SCORE>
-11.1791

>  <SCORE.INTER>
-11.1791

>  <SCORE.INTER.CONST>
1

>  <SCORE.INTER.POLAR>
0

>  <SCORE.INTER.ROT>
0

>  <SCORE.INTER.SOLV>
19.1409

>  <SCORE.INTER.VDW>
-17.4331

>  <SCORE.INTER.norm>
-1.01628

>  <SCORE.INTRA>
0

>  <SCORE.INTRA.DIHEDRAL>
0

>  <SCORE.INTRA.DIHEDRAL.0>
0

>  <SCORE.INTRA.POLAR>
0

>  <SCORE.INTRA.POLAR.0>
0

>  <SCORE.INTRA.REPUL>
0

>  <SCORE.INTRA.REPUL.0>
0

>  <SCORE.INTRA.SOLV>
0

>  <SCORE.INTRA.SOLV.lig_0>
-48.9252

>  <SCORE.INTRA.VDW>
0

>  <SCORE.INTRA.VDW.0>
0

>  <SCORE.INTRA.norm>
0

>  <SCORE.RESTR>
0

>  <SCORE.RESTR.CAVITY>
0

>  <SCORE.RESTR.norm>
0

>  <SCORE.SYSTEM>
0

>  <SCORE.SYSTEM.CONST>
0

>  <SCORE.SYSTEM.DIHEDRAL>
0

>  <SCORE.SYSTEM.SOLV>
0

>  <SCORE.SYSTEM.norm>
0

>  <SCORE.heavy>
11

>  <SCORE.norm>
-1.01628

>  <RMSD>
0.539

$$$$
ligand
 OpenBabel11021811493D
libRbt.so/2013.1/901 2013/11/27
 11 12  0  0  0  0  0  0  0  0999 V2000
   12.2879   11.5096    8.7607 N   0  0  0  0  0  0  0  0  0  0  0  0
   11.9175   12.7864    8.9687 C   0  0  0  0  0  0  0  0  0  0  0  0
   12.0432   13.3324   10.2380 N   0  0  0  0  0  0  0  0  0  0  0  0
   11.4271   13.5449    7.9757 N   0  0  0  0  0  0  0  0  0  0  0  0
   11.2807   13.0590    6.7329 C   0  0  0  0  0  0  0  0  0  0  0  0
   11.6549   11.7243    6.4585 C   0  0  0  0  0  0  0  0  0  0  0  0
   12.1773   10.9460    7.5386 C   0  0  0  0  0  0  0  0  0  0  0  0
   12.5623    9.6422    7.3432 N   0  0  0  0  0  0  0  0  0  0  0  0
   11.4024   11.4980    5.1375 N   0  0  0  0  0  0  0  0  0  0  0  0
   10.9096   12.5762    4.6059 C   0  0  0  0  0  0  0  0  0  0  0  0
   10.8166   13.5709    5.5463 N   0  0  0  0  0  0  0  0  0  0  0  0
  1  7  2  0  0  0  0
  1  2  1  0  0  0  0
  2  3  1  0  0  0  0
  2  4  2  0  0  0  0
  4  5  1  0  0  0  0
  5  6  2  0  0  0  0
  5 11  1  0  0  0  0
  6  7  1  0  0  0  0
  6  9  1  0  0  0  0
  7  8  1  0  0  0  0
  9 10  1  0  0  0  0
 10 11  2  0  0  0  0
M  END
>  <CHROM.1>
11.68631155,12.19774817,7.23379033,-0.95266487,1.17932856,-2.20817496

>  <Name>
ligand

>  <RI>
0

>  <Rbt.Current_Directory>
/home/itssahil/PROJECTS/Mol_Feturizer/New_Systems/rnas/4FEO

>  <Rbt.Executable>
rbdock ($Id: //depot/dev/client3/rdock/2013.1/src/exe/rbdock.cxx#4 $)

>  <Rbt.Library>
libRbt.so (2013.1, Build901 2013/11/27)

>  <Rbt.Parameter_File>
/export/apps/rDock/src/rDock_2013.1_src/data/scripts/dock_solv.prm

>  <Rbt.Receptor>
prm/pocket_docking_8.prm

>  <SCORE>
-11.1661

>  <SCORE.INTER>
-11.1661

>  <SCORE.INTER.CONST>
1

>  <SCORE.INTER.POLAR>
0

>  <SCORE.INTER.ROT>
0

>  <SCORE.INTER.SOLV>
19.2468

>  <SCORE.INTER.VDW>
-17.4597

>  <SCORE.INTER.norm>
-1.0151

>  <SCORE.INTRA>
0

>  <SCORE.INTRA.DIHEDRAL>
0

>  <SCORE.INTRA.DIHEDRAL.0>
0

>  <SCORE.INTRA.POLAR>
0

>  <SCORE.INTRA.POLAR.0>
0

>  <SCORE.INTRA.REPUL>
0

>  <SCORE.INTRA.REPUL.0>
0

>  <SCORE.INTRA.SOLV>
0

>  <SCORE.INTRA.SOLV.lig_0>
-48.9252

>  <SCORE.INTRA.VDW>
0

>  <SCORE.INTRA.VDW.0>
0

>  <SCORE.INTRA.norm>
0

>  <SCORE.RESTR>
0

>  <SCORE.RESTR.CAVITY>
0

>  <SCORE.RESTR.norm>
0

>  <SCORE.SYSTEM>
0

>  <SCORE.SYSTEM.CONST>
0

>  <SCORE.SYSTEM.DIHEDRAL>
0

>  <SCORE.SYSTEM.SOLV>
0

>  <SCORE.SYSTEM.norm>
0

>  <SCORE.heavy>
11

>  <SCORE.norm>
-1.0151

>  <RMSD>
0.539

$$$$
ligand
 OpenBabel11021811493D
libRbt.so/2013.1/901 2013/11/27
 11 12  0  0  0  0  0  0  0  0999 V2000
   12.3021   11.5326    8.7578 N   0  0  0  0  0  0  0  0  0  0  0  0
   11.9131   12.8033    8.9692 C   0  0  0  0  0  0  0  0  0  0  0  0
   12.0258   13.3461   10.2411 N   0  0  0  0  0  0  0  0  0  0  0  0
   11.4164   13.5587    7.9769 N   0  0  0  0  0  0  0  0  0  0  0  0
   11.2820   13.0757    6.7317 C   0  0  0  0  0  0  0  0  0  0  0  0
   11.6759   11.7474    6.4538 C   0  0  0  0  0  0  0  0  0  0  0  0
   12.2045   10.9723    7.5332 C   0  0  0  0  0  0  0  0  0  0  0  0
   12.6085    9.6747    7.3345 N   0  0  0  0  0  0  0  0  0  0  0  0
   11.4322   11.5227    5.1309 N   0  0  0  0  0  0  0  0  0  0  0  0
   10.9267   12.5960    4.6013 C   0  0  0  0  0  0  0  0  0  0  0  0
   10.8159   13.5856    5.5450 N   0  0  0  0  0  0  0  0  0  0  0  0
  1  7  2  0  0  0  0
  1  2  1  0  0  0  0
  2  3  1  0  0  0  0
  2  4  2  0  0  0  0
  4  5  1  0  0  0  0
  5  6  2  0  0  0  0
  5 11  1  0  0  0  0
  6  7  1  0  0  0  0
  6  9  1  0  0  0  0
  7  8  1  0  0  0  0
  9 10  1  0  0  0  0
 10 11  2  0  0  0  0
M  END
>  <CHROM.1>
11.69747400,12.21822140,7.23101805,-0.98269524,1.17047552,-2.17662805

>  <Name>
ligand

>  <RI>
0

>  <Rbt.Current_Directory>
/home/itssahil/PROJECTS/Mol_Feturizer/New_Systems/rnas/4FEO

>  <Rbt.Executable>
rbdock ($Id: //depot/dev/client3/rdock/2013.1/src/exe/rbdock.cxx#4 $)

>  <Rbt.Library>
libRbt.so (2013.1, Build901 2013/11/27)

>  <Rbt.Parameter_File>
/export/apps/rDock/src/rDock_2013.1_src/data/scripts/dock_solv.prm

>  <Rbt.Receptor>
prm/blind_docking_40.prm

>  <SCORE>
-11.1456

>  <SCORE.INTER>
-11.1456

>  <SCORE.INTER.CONST>
1

>  <SCORE.INTER.POLAR>
0

>  <SCORE.INTER.ROT>
0

>  <SCORE.INTER.SOLV>
19.1218

>  <SCORE.INTER.VDW>
-17.4043

>  <SCORE.INTER.norm>
-1.01323

>  <SCORE.INTRA>
0

>  <SCORE.INTRA.DIHEDRAL>
0

>  <SCORE.INTRA.DIHEDRAL.0>
0

>  <SCORE.INTRA.POLAR>
0

>  <SCORE.INTRA.POLAR.0>
0

>  <SCORE.INTRA.REPUL>
0

>  <SCORE.INTRA.REPUL.0>
0

>  <SCORE.INTRA.SOLV>
0

>  <SCORE.INTRA.SOLV.lig_0>
-48.9252

>  <SCORE.INTRA.VDW>
0

>  <SCORE.INTRA.VDW.0>
0

>  <SCORE.INTRA.norm>
0

>  <SCORE.RESTR>
0

>  <SCORE.RESTR.CAVITY>
0

>  <SCORE.RESTR.norm>
0

>  <SCORE.SYSTEM>
0

>  <SCORE.SYSTEM.CONST>
0

>  <SCORE.SYSTEM.DIHEDRAL>
0

>  <SCORE.SYSTEM.SOLV>
0

>  <SCORE.SYSTEM.norm>
0

>  <SCORE.heavy>
11

>  <SCORE.norm>
-1.01323

>  <RMSD>
0.540

$$$$
ligand
 OpenBabel11021811493D
libRbt.so/2013.1/901 2013/11/27
 11 12  0  0  0  0  0  0  0  0999 V2000
   12.3012   11.5710    8.7673 N   0  0  0  0  0  0  0  0  0  0  0  0
   11.9171   12.8428    8.9810 C   0  0  0  0  0  0  0  0  0  0  0  0
   12.0283   13.3816   10.2547 N   0  0  0  0  0  0  0  0  0  0  0  0
   11.4268   13.6032    7.9893 N   0  0  0  0  0  0  0  0  0  0  0  0
   11.2942   13.1242    6.7423 C   0  0  0  0  0  0  0  0  0  0  0  0
   11.6831   11.7949    6.4620 C   0  0  0  0  0  0  0  0  0  0  0  0
   12.2049   11.0145    7.5408 C   0  0  0  0  0  0  0  0  0  0  0  0
   12.6038    9.7157    7.3398 N   0  0  0  0  0  0  0  0  0  0  0  0
   11.4425   11.5750    5.1377 N   0  0  0  0  0  0  0  0  0  0  0  0
   10.9433   12.6519    4.6095 C   0  0  0  0  0  0  0  0  0  0  0  0
   10.8340   13.6394    5.5557 N   0  0  0  0  0  0  0  0  0  0  0  0
  1  7  2  0  0  0  0
  1  2  1  0  0  0  0
  2  3  1  0  0  0  0
  2  4  2  0  0  0  0
  4  5  1  0  0  0  0
  5  6  2  0  0  0  0
  5 11  1  0  0  0  0
  6  7  1  0  0  0  0
  6  9  1  0  0  0  0
  7  8  1  0  0  0  0
  9 10  1  0  0  0  0
 10 11  2  0  0  0  0
M  END
>  <CHROM.1>
11.70429574,12.26349692,7.24058609,-0.98277010,1.17586541,-2.17379327

>  <Name>
ligand

>  <RI>
0

>  <Rbt.Current_Directory>
/home/itssahil/PROJECTS/Mol_Feturizer/New_Systems/rnas/4FEO

>  <Rbt.Executable>
rbdock ($Id: //depot/dev/client3/rdock/2013.1/src/exe/rbdock.cxx#4 $)

>  <Rbt.Library>
libRbt.so (2013.1, Build901 2013/11/27)

>  <Rbt.Parameter_File>
/export/apps/rDock/src/rDock_2013.1_src/data/scripts/dock_solv.prm

>  <Rbt.Receptor>
prm/pocket_docking_3.prm

>  <SCORE>
-11.1686

>  <SCORE.INTER>
-11.1686

>  <SCORE.INTER.CONST>
1

>  <SCORE.INTER.POLAR>
0

>  <SCORE.INTER.ROT>
0

>  <SCORE.INTER.SOLV>
19.1951

>  <SCORE.INTER.VDW>
-17.4441

>  <SCORE.INTER.norm>
-1.01533

>  <SCORE.INTRA>
0

>  <SCORE.INTRA.DIHEDRAL>
0

>  <SCORE.INTRA.DIHEDRAL.0>
0

>  <SCORE.INTRA.POLAR>
0

>  <SCORE.INTRA.POLAR.0>
0

>  <SCORE.INTRA.REPUL>
0

>  <SCORE.INTRA.REPUL.0>
0

>  <SCORE.INTRA.SOLV>
0

>  <SCORE.INTRA.SOLV.lig_0>
-48.9252

>  <SCORE.INTRA.VDW>
0

>  <SCORE.INTRA.VDW.0>
0

>  <SCORE.INTRA.norm>
0

>  <SCORE.RESTR>
0

>  <SCORE.RESTR.CAVITY>
0

>  <SCORE.RESTR.norm>
0

>  <SCORE.SYSTEM>
0

>  <SCORE.SYSTEM.CONST>
0

>  <SCORE.SYSTEM.DIHEDRAL>
0

>  <SCORE.SYSTEM.SOLV>
0

>  <SCORE.SYSTEM.norm>
0

>  <SCORE.heavy>
11

>  <SCORE.norm>
-1.01533

>  <RMSD>
0.540

$$$$
ligand
 OpenBabel11021811493D
libRbt.so/2013.1/901 2013/11/27
 11 12  0  0  0  0  0  0  0  0999 V2000
   12.3116   11.5628    8.7594 N   0  0  0  0  0  0  0  0  0  0  0  0
   11.9211   12.8349    8.9593 C   0  0  0  0  0  0  0  0  0  0  0  0
   12.0397   13.3915   10.2247 N   0  0  0  0  0  0  0  0  0  0  0  0
   11.4174   13.5787    7.9618 N   0  0  0  0  0  0  0  0  0  0  0  0
   11.2772   13.0821    6.7225 C   0  0  0  0  0  0  0  0  0  0  0  0
   11.6723   11.7517    6.4567 C   0  0  0  0  0  0  0  0  0  0  0  0
   12.2084   10.9893    7.5414 C   0  0  0  0  0  0  0  0  0  0  0  0
   12.6139    9.6904    7.3543 N   0  0  0  0  0  0  0  0  0  0  0  0
   11.4217   11.5124    5.1377 N   0  0  0  0  0  0  0  0  0  0  0  0
   10.9111   12.5789    4.5994 C   0  0  0  0  0  0  0  0  0  0  0  0
   10.8035   13.5784    5.5331 N   0  0  0  0  0  0  0  0  0  0  0  0
  1  7  2  0  0  0  0
  1  2  1  0  0  0  0
  2  3  1  0  0  0  0
  2  4  2  0  0  0  0
  4  5  1  0  0  0  0
  5  6  2  0  0  0  0
  5 11  1  0  0  0  0
  6  7  1  0  0  0  0
  6  9  1  0  0  0  0
  7  8  1  0  0  0  0
  9 10  1  0  0  0  0
 10 11  2  0  0  0  0
M  END
>  <CHROM.1>
11.69713897,12.23086931,7.22871407,-0.97418230,1.16564558,-2.19515431

>  <Name>
ligand

>  <RI>
0

>  <Rbt.Current_Directory>
/home/itssahil/PROJECTS/Mol_Feturizer/New_Systems/rnas/4FEO

>  <Rbt.Executable>
rbdock ($Id: //depot/dev/client3/rdock/2013.1/src/exe/rbdock.cxx#4 $)

>  <Rbt.Library>
libRbt.so (2013.1, Build901 2013/11/27)

>  <Rbt.Parameter_File>
/export/apps/rDock/src/rDock_2013.1_src/data/scripts/dock_solv.prm

>  <Rbt.Receptor>
prm/pocket_docking_5.prm

>  <SCORE>
-11.1763

>  <SCORE.INTER>
-11.1763

>  <SCORE.INTER.CONST>
1

>  <SCORE.INTER.POLAR>
0

>  <SCORE.INTER.ROT>
0

>  <SCORE.INTER.SOLV>
19.1435

>  <SCORE.INTER.VDW>
-17.4321

>  <SCORE.INTER.norm>
-1.01603

>  <SCORE.INTRA>
0

>  <SCORE.INTRA.DIHEDRAL>
0

>  <SCORE.INTRA.DIHEDRAL.0>
0

>  <SCORE.INTRA.POLAR>
0

>  <SCORE.INTRA.POLAR.0>
0

>  <SCORE.INTRA.REPUL>
0

>  <SCORE.INTRA.REPUL.0>
0

>  <SCORE.INTRA.SOLV>
0

>  <SCORE.INTRA.SOLV.lig_0>
-48.9252

>  <SCORE.INTRA.VDW>
0

>  <SCORE.INTRA.VDW.0>
0

>  <SCORE.INTRA.norm>
0

>  <SCORE.RESTR>
0

>  <SCORE.RESTR.CAVITY>
0

>  <SCORE.RESTR.norm>
0

>  <SCORE.SYSTEM>
0

>  <SCORE.SYSTEM.CONST>
0

>  <SCORE.SYSTEM.DIHEDRAL>
0

>  <SCORE.SYSTEM.SOLV>
0

>  <SCORE.SYSTEM.norm>
0

>  <SCORE.heavy>
11

>  <SCORE.norm>
-1.01603

>  <RMSD>
0.540

$$$$
ligand
 OpenBabel11021811493D
libRbt.so/2013.1/901 2013/11/27
 11 12  0  0  0  0  0  0  0  0999 V2000
   12.2701   11.5111    8.7600 N   0  0  0  0  0  0  0  0  0  0  0  0
   11.9047   12.7896    8.9666 C   0  0  0  0  0  0  0  0  0  0  0  0
   12.0296   13.3357   10.2359 N   0  0  0  0  0  0  0  0  0  0  0  0
   11.4200   13.5498    7.9720 N   0  0  0  0  0  0  0  0  0  0  0  0
   11.2747   13.0640    6.7290 C   0  0  0  0  0  0  0  0  0  0  0  0
   11.6438   11.7275    6.4562 C   0  0  0  0  0  0  0  0  0  0  0  0
   12.1601   10.9475    7.5380 C   0  0  0  0  0  0  0  0  0  0  0  0
   12.5399    9.6419    7.3442 N   0  0  0  0  0  0  0  0  0  0  0  0
   11.3936   11.5017    5.1347 N   0  0  0  0  0  0  0  0  0  0  0  0
   10.9068   12.5817    4.6013 C   0  0  0  0  0  0  0  0  0  0  0  0
   10.8158   13.5772    5.5410 N   0  0  0  0  0  0  0  0  0  0  0  0
  1  7  2  0  0  0  0
  1  2  1  0  0  0  0
  2  3  1  0  0  0  0
  2  4  2  0  0  0  0
  4  5  1  0  0  0  0
  5  6  2  0  0  0  0
  5 11  1  0  0  0  0
  6  7  1  0  0  0  0
  6  9  1  0  0  0  0
  7  8  1  0  0  0  0
  9 10  1  0  0  0  0
 10 11  2  0  0  0  0
M  END
>  <CHROM.1>
11.67529922,12.20118781,7.23133259,-0.95118578,1.18427682,-2.21001516

>  <Name>
ligand

>  <RI>
0

>  <Rbt.Current_Directory>
/home/itssahil/PROJECTS/Mol_Feturizer/New_Systems/rnas/4FEO

>  <Rbt.Executable>
rbdock ($Id: //depot/dev/client3/rdock/2013.1/src/exe/rbdock.cxx#4 $)

>  <Rbt.Library>
libRbt.so (2013.1, Build901 2013/11/27)

>  <Rbt.Parameter_File>
/export/apps/rDock/src/rDock_2013.1_src/data/scripts/dock_solv.prm

>  <Rbt.Receptor>
prm/pocket_docking_7.prm

>  <SCORE>
-11.1947

>  <SCORE.INTER>
-11.1947

>  <SCORE.INTER.CONST>
1

>  <SCORE.INTER.POLAR>
0

>  <SCORE.INTER.ROT>
0

>  <SCORE.INTER.SOLV>
19.3471

>  <SCORE.INTER.VDW>
-17.5122

>  <SCORE.INTER.norm>
-1.0177

>  <SCORE.INTRA>
0

>  <SCORE.INTRA.DIHEDRAL>
0

>  <SCORE.INTRA.DIHEDRAL.0>
0

>  <SCORE.INTRA.POLAR>
0

>  <SCORE.INTRA.POLAR.0>
0

>  <SCORE.INTRA.REPUL>
0

>  <SCORE.INTRA.REPUL.0>
0

>  <SCORE.INTRA.SOLV>
0

>  <SCORE.INTRA.SOLV.lig_0>
-48.9252

>  <SCORE.INTRA.VDW>
0

>  <SCORE.INTRA.VDW.0>
0

>  <SCORE.INTRA.norm>
0

>  <SCORE.RESTR>
0

>  <SCORE.RESTR.CAVITY>
0

>  <SCORE.RESTR.norm>
0

>  <SCORE.SYSTEM>
0

>  <SCORE.SYSTEM.CONST>
0

>  <SCORE.SYSTEM.DIHEDRAL>
0

>  <SCORE.SYSTEM.SOLV>
0

>  <SCORE.SYSTEM.norm>
0

>  <SCORE.heavy>
11

>  <SCORE.norm>
-1.0177

>  <RMSD>
0.540

$$$$
ligand
 OpenBabel11021811493D
libRbt.so/2013.1/901 2013/11/27
 11 12  0  0  0  0  0  0  0  0999 V2000
   12.2699   11.5158    8.7635 N   0  0  0  0  0  0  0  0  0  0  0  0
   11.9105   12.7975    8.9608 C   0  0  0  0  0  0  0  0  0  0  0  0
   12.0332   13.3506   10.2273 N   0  0  0  0  0  0  0  0  0  0  0  0
   11.4340   13.5541    7.9596 N   0  0  0  0  0  0  0  0  0  0  0  0
   11.2911   13.0615    6.7191 C   0  0  0  0  0  0  0  0  0  0  0  0
   11.6541   11.7215    6.4559 C   0  0  0  0  0  0  0  0  0  0  0  0
   12.1619   10.9454    7.5445 C   0  0  0  0  0  0  0  0  0  0  0  0
   12.5355    9.6366    7.3601 N   0  0  0  0  0  0  0  0  0  0  0  0
   11.4081   11.4890    5.1348 N   0  0  0  0  0  0  0  0  0  0  0  0
   10.9292   12.5683    4.5929 C   0  0  0  0  0  0  0  0  0  0  0  0
   10.8397   13.5700    5.5261 N   0  0  0  0  0  0  0  0  0  0  0  0
  1  7  2  0  0  0  0
  1  2  1  0  0  0  0
  2  3  1  0  0  0  0
  2  4  2  0  0  0  0
  4  5  1  0  0  0  0
  5  6  2  0  0  0  0
  5 11  1  0  0  0  0
  6  7  1  0  0  0  0
  6  9  1  0  0  0  0
  7  8  1  0  0  0  0
  9 10  1  0  0  0  0
 10 11  2  0  0  0  0
M  END
>  <CHROM.1>
11.68502398,12.19971487,7.22824910,-0.95134833,1.19099329,-2.21593963

>  <Name>
ligand

>  <RI>
0

>  <Rbt.Current_Directory>
/home/itssahil/PROJECTS/Mol_Feturizer/New_Systems/rnas/4FEO

>  <Rbt.Executable>
rbdock ($Id: //depot/dev/client3/rdock/2013.1/src/exe/rbdock.cxx#4 $)

>  <Rbt.Library>
libRbt.so (2013.1, Build901 2013/11/27)

>  <Rbt.Parameter_File>
/export/apps/rDock/src/rDock_2013.1_src/data/scripts/dock_solv.prm

>  <Rbt.Receptor>
prm/blind_docking_100.prm

>  <SCORE>
-11.1666

>  <SCORE.INTER>
-11.1666

>  <SCORE.INTER.CONST>
1

>  <SCORE.INTER.POLAR>
0

>  <SCORE.INTER.ROT>
0

>  <SCORE.INTER.SOLV>
19.39

>  <SCORE.INTER.VDW>
-17.5078

>  <SCORE.INTER.norm>
-1.01515

>  <SCORE.INTRA>
0

>  <SCORE.INTRA.DIHEDRAL>
0

>  <SCORE.INTRA.DIHEDRAL.0>
0

>  <SCORE.INTRA.POLAR>
0

>  <SCORE.INTRA.POLAR.0>
0

>  <SCORE.INTRA.REPUL>
0

>  <SCORE.INTRA.REPUL.0>
0

>  <SCORE.INTRA.SOLV>
0

>  <SCORE.INTRA.SOLV.lig_0>
-48.9252

>  <SCORE.INTRA.VDW>
0

>  <SCORE.INTRA.VDW.0>
0

>  <SCORE.INTRA.norm>
0

>  <SCORE.RESTR>
0

>  <SCORE.RESTR.CAVITY>
0

>  <SCORE.RESTR.norm>
0

>  <SCORE.SYSTEM>
0

>  <SCORE.SYSTEM.CONST>
0

>  <SCORE.SYSTEM.DIHEDRAL>
0

>  <SCORE.SYSTEM.SOLV>
0

>  <SCORE.SYSTEM.norm>
0

>  <SCORE.heavy>
11

>  <SCORE.norm>
-1.01515

>  <RMSD>
0.541

$$$$
ligand
 OpenBabel11021811493D
libRbt.so/2013.1/901 2013/11/27
 11 12  0  0  0  0  0  0  0  0999 V2000
   12.2499   11.6284    8.7635 N   0  0  0  0  0  0  0  0  0  0  0  0
   11.8395   12.8973    8.9432 C   0  0  0  0  0  0  0  0  0  0  0  0
   11.9198   13.4652   10.2066 N   0  0  0  0  0  0  0  0  0  0  0  0
   11.3522   13.6271    7.9274 N   0  0  0  0  0  0  0  0  0  0  0  0
   11.2489   13.1191    6.6891 C   0  0  0  0  0  0  0  0  0  0  0  0
   11.6662   11.7915    6.4441 C   0  0  0  0  0  0  0  0  0  0  0  0
   12.1840   11.0441    7.5480 C   0  0  0  0  0  0  0  0  0  0  0  0
   12.6094    9.7488    7.3818 N   0  0  0  0  0  0  0  0  0  0  0  0
   11.4516   11.5388    5.1213 N   0  0  0  0  0  0  0  0  0  0  0  0
   10.9420   12.5948    4.5617 C   0  0  0  0  0  0  0  0  0  0  0  0
   10.7993   13.6002    5.4843 N   0  0  0  0  0  0  0  0  0  0  0  0
  1  7  2  0  0  0  0
  1  2  1  0  0  0  0
  2  3  1  0  0  0  0
  2  4  2  0  0  0  0
  4  5  1  0  0  0  0
  5  6  2  0  0  0  0
  5 11  1  0  0  0  0
  6  7  1  0  0  0  0
  6  9  1  0  0  0  0
  7  8  1  0  0  0  0
  9 10  1  0  0  0  0
 10 11  2  0  0  0  0
M  END
>  <CHROM.1>
11.66607134,12.27694786,7.21259872,-1.04392308,1.16981978,-2.13903429

>  <Name>
ligand

>  <RI>
0

>  <Rbt.Current_Directory>
/home/itssahil/PROJECTS/Mol_Feturizer/New_Systems/rnas/4FEO

>  <Rbt.Executable>
rbdock ($Id: //depot/dev/client3/rdock/2013.1/src/exe/rbdock.cxx#4 $)

>  <Rbt.Library>
libRbt.so (2013.1, Build901 2013/11/27)

>  <Rbt.Parameter_File>
/export/apps/rDock/src/rDock_2013.1_src/data/scripts/dock_solv.prm

>  <Rbt.Receptor>
prm/blind_docking_60.prm

>  <SCORE>
-11.1468

>  <SCORE.INTER>
-11.1468

>  <SCORE.INTER.CONST>
1

>  <SCORE.INTER.POLAR>
0

>  <SCORE.INTER.ROT>
0

>  <SCORE.INTER.SOLV>
19.3964

>  <SCORE.INTER.VDW>
-17.4967

>  <SCORE.INTER.norm>
-1.01335

>  <SCORE.INTRA>
0

>  <SCORE.INTRA.DIHEDRAL>
0

>  <SCORE.INTRA.DIHEDRAL.0>
0

>  <SCORE.INTRA.POLAR>
0

>  <SCORE.INTRA.POLAR.0>
0

>  <SCORE.INTRA.REPUL>
0

>  <SCORE.INTRA.REPUL.0>
0

>  <SCORE.INTRA.SOLV>
0

>  <SCORE.INTRA.SOLV.lig_0>
-48.9252

>  <SCORE.INTRA.VDW>
0

>  <SCORE.INTRA.VDW.0>
0

>  <SCORE.INTRA.norm>
0

>  <SCORE.RESTR>
0

>  <SCORE.RESTR.CAVITY>
0

>  <SCORE.RESTR.norm>
0

>  <SCORE.SYSTEM>
0

>  <SCORE.SYSTEM.CONST>
0

>  <SCORE.SYSTEM.DIHEDRAL>
0

>  <SCORE.SYSTEM.SOLV>
0

>  <SCORE.SYSTEM.norm>
0

>  <SCORE.heavy>
11

>  <SCORE.norm>
-1.01335

>  <RMSD>
0.541

$$$$
ligand
 OpenBabel11021811493D
libRbt.so/2013.1/901 2013/11/27
 11 12  0  0  0  0  0  0  0  0999 V2000
   12.3014   11.5061    8.7546 N   0  0  0  0  0  0  0  0  0  0  0  0
   11.9183   12.7790    8.9638 C   0  0  0  0  0  0  0  0  0  0  0  0
   12.0413   13.3261   10.2329 N   0  0  0  0  0  0  0  0  0  0  0  0
   11.4178   13.5326    7.9720 N   0  0  0  0  0  0  0  0  0  0  0  0
   11.2736   13.0454    6.7295 C   0  0  0  0  0  0  0  0  0  0  0  0
   11.6609   11.7147    6.4539 C   0  0  0  0  0  0  0  0  0  0  0  0
   12.1938   10.9417    7.5327 C   0  0  0  0  0  0  0  0  0  0  0  0
   12.5917    9.6419    7.3362 N   0  0  0  0  0  0  0  0  0  0  0  0
   11.4077   11.4861    5.1335 N   0  0  0  0  0  0  0  0  0  0  0  0
   10.9025   12.5592    4.6032 C   0  0  0  0  0  0  0  0  0  0  0  0
   10.8015   13.5527    5.5440 N   0  0  0  0  0  0  0  0  0  0  0  0
  1  7  2  0  0  0  0
  1  2  1  0  0  0  0
  2  3  1  0  0  0  0
  2  4  2  0  0  0  0
  4  5  1  0  0  0  0
  5  6  2  0  0  0  0
  5 11  1  0  0  0  0
  6  7  1  0  0  0  0
  6  9  1  0  0  0  0
  7  8  1  0  0  0  0
  9 10  1  0  0  0  0
 10 11  2  0  0  0  0
M  END
>  <CHROM.1>
11.68919989,12.18832736,7.22926803,-0.96363781,1.16962566,-2.19787398

>  <Name>
ligand

>  <RI>
0

>  <Rbt.Current_Directory>
/home/itssahil/PROJECTS/Mol_Feturizer/New_Systems/rnas/4FEO

>  <Rbt.Executable>
rbdock ($Id: //depot/dev/client3/rdock/2013.1/src/exe/rbdock.cxx#4 $)

>  <Rbt.Library>
libRbt.so (2013.1, Build901 2013/11/27)

>  <Rbt.Parameter_File>
/export/apps/rDock/src/rDock_2013.1_src/data/scripts/dock_solv.prm

>  <Rbt.Receptor>
prm/pocket_docking_5.prm

>  <SCORE>
-11.1692

>  <SCORE.INTER>
-11.1692

>  <SCORE.INTER.CONST>
1

>  <SCORE.INTER.POLAR>
0

>  <SCORE.INTER.ROT>
0

>  <SCORE.INTER.SOLV>
19.1296

>  <SCORE.INTER.VDW>
-17.4227

>  <SCORE.INTER.norm>
-1.01538

>  <SCORE.INTRA>
0

>  <SCORE.INTRA.DIHEDRAL>
0

>  <SCORE.INTRA.DIHEDRAL.0>
0

>  <SCORE.INTRA.POLAR>
0

>  <SCORE.INTRA.POLAR.0>
0

>  <SCORE.INTRA.REPUL>
0

>  <SCORE.INTRA.REPUL.0>
0

>  <SCORE.INTRA.SOLV>
0

>  <SCORE.INTRA.SOLV.lig_0>
-48.9252

>  <SCORE.INTRA.VDW>
0

>  <SCORE.INTRA.VDW.0>
0

>  <SCORE.INTRA.norm>
0

>  <SCORE.RESTR>
0

>  <SCORE.RESTR.CAVITY>
0

>  <SCORE.RESTR.norm>
0

>  <SCORE.SYSTEM>
0

>  <SCORE.SYSTEM.CONST>
0

>  <SCORE.SYSTEM.DIHEDRAL>
0

>  <SCORE.SYSTEM.SOLV>
0

>  <SCORE.SYSTEM.norm>
0

>  <SCORE.heavy>
11

>  <SCORE.norm>
-1.01538

>  <RMSD>
0.541

$$$$
ligand
 OpenBabel11021811493D
libRbt.so/2013.1/901 2013/11/27
 11 12  0  0  0  0  0  0  0  0999 V2000
   12.2471   11.6332    8.7610 N   0  0  0  0  0  0  0  0  0  0  0  0
   11.8311   12.9004    8.9396 C   0  0  0  0  0  0  0  0  0  0  0  0
   11.9139   13.4716   10.2013 N   0  0  0  0  0  0  0  0  0  0  0  0
   11.3357   13.6254    7.9243 N   0  0  0  0  0  0  0  0  0  0  0  0
   11.2297   13.1141    6.6876 C   0  0  0  0  0  0  0  0  0  0  0  0
   11.6527   11.7881    6.4437 C   0  0  0  0  0  0  0  0  0  0  0  0
   12.1790   11.0458    7.5471 C   0  0  0  0  0  0  0  0  0  0  0  0
   12.6103    9.7523    7.3819 N   0  0  0  0  0  0  0  0  0  0  0  0
   11.4337   11.5313    5.1224 N   0  0  0  0  0  0  0  0  0  0  0  0
   10.9164   12.5835    4.5627 C   0  0  0  0  0  0  0  0  0  0  0  0
   10.7724   13.5902    5.4836 N   0  0  0  0  0  0  0  0  0  0  0  0
  1  7  2  0  0  0  0
  1  2  1  0  0  0  0
  2  3  1  0  0  0  0
  2  4  2  0  0  0  0
  4  5  1  0  0  0  0
  5  6  2  0  0  0  0
  5 11  1  0  0  0  0
  6  7  1  0  0  0  0
  6  9  1  0  0  0  0
  7  8  1  0  0  0  0
  9 10  1  0  0  0  0
 10 11  2  0  0  0  0
M  END
>  <CHROM.1>
11.65337170,12.27526332,7.21110144,-1.04175378,1.16321281,-2.14326980

>  <Name>
ligand

>  <RI>
0

>  <Rbt.Current_Directory>
/home/itssahil/PROJECTS/Mol_Feturizer/New_Systems/rnas/4FEO

>  <Rbt.Executable>
rbdock ($Id: //depot/dev/client3/rdock/2013.1/src/exe/rbdock.cxx#4 $)

>  <Rbt.Library>
libRbt.so (2013.1, Build901 2013/11/27)

>  <Rbt.Parameter_File>
/export/apps/rDock/src/rDock_2013.1_src/data/scripts/dock_solv.prm

>  <Rbt.Receptor>
prm/pocket_docking_7.prm

>  <SCORE>
-11.1059

>  <SCORE.INTER>
-11.1059

>  <SCORE.INTER.CONST>
1

>  <SCORE.INTER.POLAR>
0

>  <SCORE.INTER.ROT>
0

>  <SCORE.INTER.SOLV>
19.3981

>  <SCORE.INTER.VDW>
-17.47

>  <SCORE.INTER.norm>
-1.00962

>  <SCORE.INTRA>
0

>  <SCORE.INTRA.DIHEDRAL>
0

>  <SCORE.INTRA.DIHEDRAL.0>
0

>  <SCORE.INTRA.POLAR>
0

>  <SCORE.INTRA.POLAR.0>
0

>  <SCORE.INTRA.REPUL>
0

>  <SCORE.INTRA.REPUL.0>
0

>  <SCORE.INTRA.SOLV>
0

>  <SCORE.INTRA.SOLV.lig_0>
-48.9252

>  <SCORE.INTRA.VDW>
0

>  <SCORE.INTRA.VDW.0>
0

>  <SCORE.INTRA.norm>
0

>  <SCORE.RESTR>
0

>  <SCORE.RESTR.CAVITY>
0

>  <SCORE.RESTR.norm>
0

>  <SCORE.SYSTEM>
0

>  <SCORE.SYSTEM.CONST>
0

>  <SCORE.SYSTEM.DIHEDRAL>
0

>  <SCORE.SYSTEM.SOLV>
0

>  <SCORE.SYSTEM.norm>
0

>  <SCORE.heavy>
11

>  <SCORE.norm>
-1.00962

>  <RMSD>
0.541

$$$$
ligand
 OpenBabel11021811493D
libRbt.so/2013.1/901 2013/11/27
 11 12  0  0  0  0  0  0  0  0999 V2000
   12.3341   11.5518    8.7539 N   0  0  0  0  0  0  0  0  0  0  0  0
   11.9242   12.8164    8.9622 C   0  0  0  0  0  0  0  0  0  0  0  0
   12.0317   13.3654   10.2318 N   0  0  0  0  0  0  0  0  0  0  0  0
   11.4116   13.5599    7.9690 N   0  0  0  0  0  0  0  0  0  0  0  0
   11.2815   13.0703    6.7258 C   0  0  0  0  0  0  0  0  0  0  0  0
   11.6971   11.7480    6.4512 C   0  0  0  0  0  0  0  0  0  0  0  0
   12.2422   10.9857    7.5315 C   0  0  0  0  0  0  0  0  0  0  0  0
   12.6675    9.6945    7.3359 N   0  0  0  0  0  0  0  0  0  0  0  0
   11.4530   11.5146    5.1298 N   0  0  0  0  0  0  0  0  0  0  0  0
   10.9276   12.5773    4.5982 C   0  0  0  0  0  0  0  0  0  0  0  0
   10.8030   13.5682    5.5390 N   0  0  0  0  0  0  0  0  0  0  0  0
  1  7  2  0  0  0  0
  1  2  1  0  0  0  0
  2  3  1  0  0  0  0
  2  4  2  0  0  0  0
  4  5  1  0  0  0  0
  5  6  2  0  0  0  0
  5 11  1  0  0  0  0
  6  7  1  0  0  0  0
  6  9  1  0  0  0  0
  7  8  1  0  0  0  0
  9 10  1  0  0  0  0
 10 11  2  0  0  0  0
M  END
>  <CHROM.1>
11.71305535,12.22176813,7.22672199,-1.00017105,1.15465481,-2.16401084

>  <Name>
ligand

>  <RI>
0

>  <Rbt.Current_Directory>
/home/itssahil/PROJECTS/Mol_Feturizer/New_Systems/rnas/4FEO

>  <Rbt.Executable>
rbdock ($Id: //depot/dev/client3/rdock/2013.1/src/exe/rbdock.cxx#4 $)

>  <Rbt.Library>
libRbt.so (2013.1, Build901 2013/11/27)

>  <Rbt.Parameter_File>
/export/apps/rDock/src/rDock_2013.1_src/data/scripts/dock_solv.prm

>  <Rbt.Receptor>
prm/pocket_docking_7.prm

>  <SCORE>
-11.1492

>  <SCORE.INTER>
-11.1492

>  <SCORE.INTER.CONST>
1

>  <SCORE.INTER.POLAR>
0

>  <SCORE.INTER.ROT>
0

>  <SCORE.INTER.SOLV>
18.9407

>  <SCORE.INTER.VDW>
-17.3464

>  <SCORE.INTER.norm>
-1.01357

>  <SCORE.INTRA>
0

>  <SCORE.INTRA.DIHEDRAL>
0

>  <SCORE.INTRA.DIHEDRAL.0>
0

>  <SCORE.INTRA.POLAR>
0

>  <SCORE.INTRA.POLAR.0>
0

>  <SCORE.INTRA.REPUL>
0

>  <SCORE.INTRA.REPUL.0>
0

>  <SCORE.INTRA.SOLV>
0

>  <SCORE.INTRA.SOLV.lig_0>
-48.9252

>  <SCORE.INTRA.VDW>
0

>  <SCORE.INTRA.VDW.0>
0

>  <SCORE.INTRA.norm>
0

>  <SCORE.RESTR>
0

>  <SCORE.RESTR.CAVITY>
0

>  <SCORE.RESTR.norm>
0

>  <SCORE.SYSTEM>
0

>  <SCORE.SYSTEM.CONST>
0

>  <SCORE.SYSTEM.DIHEDRAL>
0

>  <SCORE.SYSTEM.SOLV>
0

>  <SCORE.SYSTEM.norm>
0

>  <SCORE.heavy>
11

>  <SCORE.norm>
-1.01357

>  <RMSD>
0.541

$$$$
ligand
 OpenBabel11021811493D
libRbt.so/2013.1/901 2013/11/27
 11 12  0  0  0  0  0  0  0  0999 V2000
   12.3196   11.5570    8.7574 N   0  0  0  0  0  0  0  0  0  0  0  0
   11.9291   12.8275    8.9671 C   0  0  0  0  0  0  0  0  0  0  0  0
   12.0493   13.3749   10.2363 N   0  0  0  0  0  0  0  0  0  0  0  0
   11.4238   13.5784    7.9757 N   0  0  0  0  0  0  0  0  0  0  0  0
   11.2819   13.0908    6.7331 C   0  0  0  0  0  0  0  0  0  0  0  0
   11.6770   11.7625    6.4570 C   0  0  0  0  0  0  0  0  0  0  0  0
   12.2148   10.9923    7.5354 C   0  0  0  0  0  0  0  0  0  0  0  0
   12.6204    9.6949    7.3383 N   0  0  0  0  0  0  0  0  0  0  0  0
   11.4246   11.5327    5.1367 N   0  0  0  0  0  0  0  0  0  0  0  0
   10.9130   12.6030    4.6069 C   0  0  0  0  0  0  0  0  0  0  0  0
   10.8064   13.5956    5.5480 N   0  0  0  0  0  0  0  0  0  0  0  0
  1  7  2  0  0  0  0
  1  2  1  0  0  0  0
  2  3  1  0  0  0  0
  2  4  2  0  0  0  0
  4  5  1  0  0  0  0
  5  6  2  0  0  0  0
  5 11  1  0  0  0  0
  6  7  1  0  0  0  0
  6  9  1  0  0  0  0
  7  8  1  0  0  0  0
  9 10  1  0  0  0  0
 10 11  2  0  0  0  0
M  END
>  <CHROM.1>
11.70281585,12.23598392,7.23248891,-0.97161742,1.16462299,-2.19024445

>  <Name>
ligand

>  <RI>
0

>  <Rbt.Current_Directory>
/home/itssahil/PROJECTS/Mol_Feturizer/New_Systems/rnas/4FEO

>  <Rbt.Executable>
rbdock ($Id: //depot/dev/client3/rdock/2013.1/src/exe/rbdock.cxx#4 $)

>  <Rbt.Library>
libRbt.so (2013.1, Build901 2013/11/27)

>  <Rbt.Parameter_File>
/export/apps/rDock/src/rDock_2013.1_src/data/scripts/dock_solv.prm

>  <Rbt.Receptor>
prm/blind_docking_80.prm

>  <SCORE>
-11.175

>  <SCORE.INTER>
-11.175

>  <SCORE.INTER.CONST>
1

>  <SCORE.INTER.POLAR>
0

>  <SCORE.INTER.ROT>
0

>  <SCORE.INTER.SOLV>
19.0947

>  <SCORE.INTER.VDW>
-17.4149

>  <SCORE.INTER.norm>
-1.01591

>  <SCORE.INTRA>
0

>  <SCORE.INTRA.DIHEDRAL>
0

>  <SCORE.INTRA.DIHEDRAL.0>
0

>  <SCORE.INTRA.POLAR>
0

>  <SCORE.INTRA.POLAR.0>
0

>  <SCORE.INTRA.REPUL>
0

>  <SCORE.INTRA.REPUL.0>
0

>  <SCORE.INTRA.SOLV>
0

>  <SCORE.INTRA.SOLV.lig_0>
-48.9252

>  <SCORE.INTRA.VDW>
0

>  <SCORE.INTRA.VDW.0>
0

>  <SCORE.INTRA.norm>
0

>  <SCORE.RESTR>
0

>  <SCORE.RESTR.CAVITY>
0

>  <SCORE.RESTR.norm>
0

>  <SCORE.SYSTEM>
0

>  <SCORE.SYSTEM.CONST>
0

>  <SCORE.SYSTEM.DIHEDRAL>
0

>  <SCORE.SYSTEM.SOLV>
0

>  <SCORE.SYSTEM.norm>
0

>  <SCORE.heavy>
11

>  <SCORE.norm>
-1.01591

>  <RMSD>
0.542

$$$$
ligand
 OpenBabel11021811493D
libRbt.so/2013.1/901 2013/11/27
 11 12  0  0  0  0  0  0  0  0999 V2000
   12.3283   11.5986    8.7735 N   0  0  0  0  0  0  0  0  0  0  0  0
   11.9563   12.8732    8.9918 C   0  0  0  0  0  0  0  0  0  0  0  0
   12.0932   13.4133   10.2625 N   0  0  0  0  0  0  0  0  0  0  0  0
   11.4535   13.6353    8.0076 N   0  0  0  0  0  0  0  0  0  0  0  0
   11.2960   13.1552    6.7639 C   0  0  0  0  0  0  0  0  0  0  0  0
   11.6714   11.8231    6.4790 C   0  0  0  0  0  0  0  0  0  0  0  0
   12.2070   11.0409    7.5498 C   0  0  0  0  0  0  0  0  0  0  0  0
   12.5939    9.7393    7.3439 N   0  0  0  0  0  0  0  0  0  0  0  0
   11.4061   11.6026    5.1595 N   0  0  0  0  0  0  0  0  0  0  0  0
   10.9047   12.6820    4.6384 C   0  0  0  0  0  0  0  0  0  0  0  0
   10.8183   13.6716    5.5847 N   0  0  0  0  0  0  0  0  0  0  0  0
  1  7  2  0  0  0  0
  1  2  1  0  0  0  0
  2  3  1  0  0  0  0
  2  4  2  0  0  0  0
  4  5  1  0  0  0  0
  5  6  2  0  0  0  0
  5 11  1  0  0  0  0
  6  7  1  0  0  0  0
  6  9  1  0  0  0  0
  7  8  1  0  0  0  0
  9 10  1  0  0  0  0
 10 11  2  0  0  0  0
M  END
>  <CHROM.1>
11.70923088,12.29265829,7.25631709,-0.93627071,1.17082272,-2.21825465

>  <Name>
ligand

>  <RI>
0

>  <Rbt.Current_Directory>
/home/itssahil/PROJECTS/Mol_Feturizer/New_Systems/rnas/4FEO

>  <Rbt.Executable>
rbdock ($Id: //depot/dev/client3/rdock/2013.1/src/exe/rbdock.cxx#4 $)

>  <Rbt.Library>
libRbt.so (2013.1, Build901 2013/11/27)

>  <Rbt.Parameter_File>
/export/apps/rDock/src/rDock_2013.1_src/data/scripts/dock_solv.prm

>  <Rbt.Receptor>
prm/pocket_docking_3.prm

>  <SCORE>
-11.1694

>  <SCORE.INTER>
-11.1694

>  <SCORE.INTER.CONST>
1

>  <SCORE.INTER.POLAR>
0

>  <SCORE.INTER.ROT>
0

>  <SCORE.INTER.SOLV>
19.2078

>  <SCORE.INTER.VDW>
-17.4489

>  <SCORE.INTER.norm>
-1.0154

>  <SCORE.INTRA>
0

>  <SCORE.INTRA.DIHEDRAL>
0

>  <SCORE.INTRA.DIHEDRAL.0>
0

>  <SCORE.INTRA.POLAR>
0

>  <SCORE.INTRA.POLAR.0>
0

>  <SCORE.INTRA.REPUL>
0

>  <SCORE.INTRA.REPUL.0>
0

>  <SCORE.INTRA.SOLV>
0

>  <SCORE.INTRA.SOLV.lig_0>
-48.9252

>  <SCORE.INTRA.VDW>
0

>  <SCORE.INTRA.VDW.0>
0

>  <SCORE.INTRA.norm>
0

>  <SCORE.RESTR>
0

>  <SCORE.RESTR.CAVITY>
0

>  <SCORE.RESTR.norm>
0

>  <SCORE.SYSTEM>
0

>  <SCORE.SYSTEM.CONST>
0

>  <SCORE.SYSTEM.DIHEDRAL>
0

>  <SCORE.SYSTEM.SOLV>
0

>  <SCORE.SYSTEM.norm>
0

>  <SCORE.heavy>
11

>  <SCORE.norm>
-1.0154

>  <RMSD>
0.542

$$$$
ligand
 OpenBabel11021811493D
libRbt.so/2013.1/901 2013/11/27
 11 12  0  0  0  0  0  0  0  0999 V2000
   12.3124   11.5604    8.7584 N   0  0  0  0  0  0  0  0  0  0  0  0
   11.9211   12.8313    8.9641 C   0  0  0  0  0  0  0  0  0  0  0  0
   12.0351   13.3808   10.2331 N   0  0  0  0  0  0  0  0  0  0  0  0
   11.4208   13.5808    7.9691 N   0  0  0  0  0  0  0  0  0  0  0  0
   11.2850   13.0912    6.7266 C   0  0  0  0  0  0  0  0  0  0  0  0
   11.6812   11.7624    6.4545 C   0  0  0  0  0  0  0  0  0  0  0  0
   12.2136   10.9938    7.5367 C   0  0  0  0  0  0  0  0  0  0  0  0
   12.6199    9.6961    7.3437 N   0  0  0  0  0  0  0  0  0  0  0  0
   11.4353   11.5306    5.1333 N   0  0  0  0  0  0  0  0  0  0  0  0
   10.9265   12.6001    4.5993 C   0  0  0  0  0  0  0  0  0  0  0  0
   10.8155   13.5942    5.5383 N   0  0  0  0  0  0  0  0  0  0  0  0
  1  7  2  0  0  0  0
  1  2  1  0  0  0  0
  2  3  1  0  0  0  0
  2  4  2  0  0  0  0
  4  5  1  0  0  0  0
  5  6  2  0  0  0  0
  5 11  1  0  0  0  0
  6  7  1  0  0  0  0
  6  9  1  0  0  0  0
  7  8  1  0  0  0  0
  9 10  1  0  0  0  0
 10 11  2  0  0  0  0
M  END
>  <CHROM.1>
11.70327292,12.23714405,7.22936581,-0.98162892,1.16762649,-2.18260964

>  <Name>
ligand

>  <RI>
0

>  <Rbt.Current_Directory>
/home/itssahil/PROJECTS/Mol_Feturizer/New_Systems/rnas/4FEO

>  <Rbt.Executable>
rbdock ($Id: //depot/dev/client3/rdock/2013.1/src/exe/rbdock.cxx#4 $)

>  <Rbt.Library>
libRbt.so (2013.1, Build901 2013/11/27)

>  <Rbt.Parameter_File>
/export/apps/rDock/src/rDock_2013.1_src/data/scripts/dock_solv.prm

>  <Rbt.Receptor>
prm/pocket_docking_3.prm

>  <SCORE>
-11.1822

>  <SCORE.INTER>
-11.1822

>  <SCORE.INTER.CONST>
1

>  <SCORE.INTER.POLAR>
0

>  <SCORE.INTER.ROT>
0

>  <SCORE.INTER.SOLV>
19.1203

>  <SCORE.INTER.VDW>
-17.4282

>  <SCORE.INTER.norm>
-1.01657

>  <SCORE.INTRA>
0

>  <SCORE.INTRA.DIHEDRAL>
0

>  <SCORE.INTRA.DIHEDRAL.0>
0

>  <SCORE.INTRA.POLAR>
0

>  <SCORE.INTRA.POLAR.0>
0

>  <SCORE.INTRA.REPUL>
0

>  <SCORE.INTRA.REPUL.0>
0

>  <SCORE.INTRA.SOLV>
0

>  <SCORE.INTRA.SOLV.lig_0>
-48.9252

>  <SCORE.INTRA.VDW>
0

>  <SCORE.INTRA.VDW.0>
0

>  <SCORE.INTRA.norm>
0

>  <SCORE.RESTR>
0

>  <SCORE.RESTR.CAVITY>
0

>  <SCORE.RESTR.norm>
0

>  <SCORE.SYSTEM>
0

>  <SCORE.SYSTEM.CONST>
0

>  <SCORE.SYSTEM.DIHEDRAL>
0

>  <SCORE.SYSTEM.SOLV>
0

>  <SCORE.SYSTEM.norm>
0

>  <SCORE.heavy>
11

>  <SCORE.norm>
-1.01657

>  <RMSD>
0.542

$$$$
ligand
 OpenBabel11021811493D
libRbt.so/2013.1/901 2013/11/27
 11 12  0  0  0  0  0  0  0  0999 V2000
   12.3103   11.4678    8.7485 N   0  0  0  0  0  0  0  0  0  0  0  0
   11.9153   12.7336    8.9779 C   0  0  0  0  0  0  0  0  0  0  0  0
   12.0331   13.2615   10.2555 N   0  0  0  0  0  0  0  0  0  0  0  0
   11.4077   13.4981    7.9982 N   0  0  0  0  0  0  0  0  0  0  0  0
   11.2681   13.0294    6.7480 C   0  0  0  0  0  0  0  0  0  0  0  0
   11.6679   11.7070    6.4514 C   0  0  0  0  0  0  0  0  0  0  0  0
   12.2080   10.9219    7.5178 C   0  0  0  0  0  0  0  0  0  0  0  0
   12.6182    9.6293    7.3007 N   0  0  0  0  0  0  0  0  0  0  0  0
   11.4168   11.4970    5.1275 N   0  0  0  0  0  0  0  0  0  0  0  0
   10.9016   12.5736    4.6142 C   0  0  0  0  0  0  0  0  0  0  0  0
   10.7912   13.5510    5.5707 N   0  0  0  0  0  0  0  0  0  0  0  0
  1  7  2  0  0  0  0
  1  2  1  0  0  0  0
  2  3  1  0  0  0  0
  2  4  2  0  0  0  0
  4  5  1  0  0  0  0
  5  6  2  0  0  0  0
  5 11  1  0  0  0  0
  6  7  1  0  0  0  0
  6  9  1  0  0  0  0
  7  8  1  0  0  0  0
  9 10  1  0  0  0  0
 10 11  2  0  0  0  0
M  END
>  <CHROM.1>
11.69173832,12.16841892,7.23415199,-0.97751521,1.16198218,-2.16921560

>  <Name>
ligand

>  <RI>
0

>  <Rbt.Current_Directory>
/home/itssahil/PROJECTS/Mol_Feturizer/New_Systems/rnas/4FEO

>  <Rbt.Executable>
rbdock ($Id: //depot/dev/client3/rdock/2013.1/src/exe/rbdock.cxx#4 $)

>  <Rbt.Library>
libRbt.so (2013.1, Build901 2013/11/27)

>  <Rbt.Parameter_File>
/export/apps/rDock/src/rDock_2013.1_src/data/scripts/dock_solv.prm

>  <Rbt.Receptor>
prm/pocket_docking_6.prm

>  <SCORE>
-11.107

>  <SCORE.INTER>
-11.107

>  <SCORE.INTER.CONST>
1

>  <SCORE.INTER.POLAR>
0

>  <SCORE.INTER.ROT>
0

>  <SCORE.INTER.SOLV>
18.9471

>  <SCORE.INTER.VDW>
-17.3203

>  <SCORE.INTER.norm>
-1.00972

>  <SCORE.INTRA>
0

>  <SCORE.INTRA.DIHEDRAL>
0

>  <SCORE.INTRA.DIHEDRAL.0>
0

>  <SCORE.INTRA.POLAR>
0

>  <SCORE.INTRA.POLAR.0>
0

>  <SCORE.INTRA.REPUL>
0

>  <SCORE.INTRA.REPUL.0>
0

>  <SCORE.INTRA.SOLV>
0

>  <SCORE.INTRA.SOLV.lig_0>
-48.9252

>  <SCORE.INTRA.VDW>
0

>  <SCORE.INTRA.VDW.0>
0

>  <SCORE.INTRA.norm>
0

>  <SCORE.RESTR>
0

>  <SCORE.RESTR.CAVITY>
0

>  <SCORE.RESTR.norm>
0

>  <SCORE.SYSTEM>
0

>  <SCORE.SYSTEM.CONST>
0

>  <SCORE.SYSTEM.DIHEDRAL>
0

>  <SCORE.SYSTEM.SOLV>
0

>  <SCORE.SYSTEM.norm>
0

>  <SCORE.heavy>
11

>  <SCORE.norm>
-1.00972

>  <RMSD>
0.542

$$$$
ligand
 OpenBabel11021811493D
libRbt.so/2013.1/901 2013/11/27
 11 12  0  0  0  0  0  0  0  0999 V2000
   12.3379   11.4350    8.7566 N   0  0  0  0  0  0  0  0  0  0  0  0
   11.9632   12.7050    8.9958 C   0  0  0  0  0  0  0  0  0  0  0  0
   12.0997   13.2245   10.2751 N   0  0  0  0  0  0  0  0  0  0  0  0
   11.4582   13.4819    8.0246 N   0  0  0  0  0  0  0  0  0  0  0  0
   11.3009   13.0219    6.7733 C   0  0  0  0  0  0  0  0  0  0  0  0
   11.6791   11.6954    6.4664 C   0  0  0  0  0  0  0  0  0  0  0  0
   12.2171   10.8971    7.5240 C   0  0  0  0  0  0  0  0  0  0  0  0
   12.6068    9.5999    7.2966 N   0  0  0  0  0  0  0  0  0  0  0  0
   11.4135   11.4960    5.1436 N   0  0  0  0  0  0  0  0  0  0  0  0
   10.9094   12.5826    4.6405 C   0  0  0  0  0  0  0  0  0  0  0  0
   10.8214   13.5564    5.6029 N   0  0  0  0  0  0  0  0  0  0  0  0
  1  7  2  0  0  0  0
  1  2  1  0  0  0  0
  2  3  1  0  0  0  0
  2  4  2  0  0  0  0
  4  5  1  0  0  0  0
  5  6  2  0  0  0  0
  5 11  1  0  0  0  0
  6  7  1  0  0  0  0
  6  9  1  0  0  0  0
  7  8  1  0  0  0  0
  9 10  1  0  0  0  0
 10 11  2  0  0  0  0
M  END
>  <CHROM.1>
11.71637347,12.15235908,7.25126906,-0.93846761,1.16869106,-2.19988640

>  <Name>
ligand

>  <RI>
0

>  <Rbt.Current_Directory>
/home/itssahil/PROJECTS/Mol_Feturizer/New_Systems/rnas/4FEO

>  <Rbt.Executable>
rbdock ($Id: //depot/dev/client3/rdock/2013.1/src/exe/rbdock.cxx#4 $)

>  <Rbt.Library>
libRbt.so (2013.1, Build901 2013/11/27)

>  <Rbt.Parameter_File>
/export/apps/rDock/src/rDock_2013.1_src/data/scripts/dock_solv.prm

>  <Rbt.Receptor>
prm/blind_docking_60.prm

>  <SCORE>
-11.1417

>  <SCORE.INTER>
-11.1417

>  <SCORE.INTER.CONST>
1

>  <SCORE.INTER.POLAR>
0

>  <SCORE.INTER.ROT>
0

>  <SCORE.INTER.SOLV>
18.9093

>  <SCORE.INTER.VDW>
-17.3309

>  <SCORE.INTER.norm>
-1.01288

>  <SCORE.INTRA>
0

>  <SCORE.INTRA.DIHEDRAL>
0

>  <SCORE.INTRA.DIHEDRAL.0>
0

>  <SCORE.INTRA.POLAR>
0

>  <SCORE.INTRA.POLAR.0>
0

>  <SCORE.INTRA.REPUL>
0

>  <SCORE.INTRA.REPUL.0>
0

>  <SCORE.INTRA.SOLV>
0

>  <SCORE.INTRA.SOLV.lig_0>
-48.9252

>  <SCORE.INTRA.VDW>
0

>  <SCORE.INTRA.VDW.0>
0

>  <SCORE.INTRA.norm>
0

>  <SCORE.RESTR>
0

>  <SCORE.RESTR.CAVITY>
0

>  <SCORE.RESTR.norm>
0

>  <SCORE.SYSTEM>
0

>  <SCORE.SYSTEM.CONST>
0

>  <SCORE.SYSTEM.DIHEDRAL>
0

>  <SCORE.SYSTEM.SOLV>
0

>  <SCORE.SYSTEM.norm>
0

>  <SCORE.heavy>
11

>  <SCORE.norm>
-1.01288

>  <RMSD>
0.544

$$$$
ligand
 OpenBabel11021811493D
libRbt.so/2013.1/901 2013/11/27
 11 12  0  0  0  0  0  0  0  0999 V2000
   12.2358   11.6293    8.7630 N   0  0  0  0  0  0  0  0  0  0  0  0
   11.8363   12.9014    8.9441 C   0  0  0  0  0  0  0  0  0  0  0  0
   11.9241   13.4682   10.2075 N   0  0  0  0  0  0  0  0  0  0  0  0
   11.3527   13.6357    7.9297 N   0  0  0  0  0  0  0  0  0  0  0  0
   11.2424   13.1290    6.6915 C   0  0  0  0  0  0  0  0  0  0  0  0
   11.6482   11.7982    6.4450 C   0  0  0  0  0  0  0  0  0  0  0  0
   12.1624   11.0461    7.5474 C   0  0  0  0  0  0  0  0  0  0  0  0
   12.5767    9.7474    7.3796 N   0  0  0  0  0  0  0  0  0  0  0  0
   11.4285   11.5478    5.1225 N   0  0  0  0  0  0  0  0  0  0  0  0
   10.9264   12.6082    4.5646 C   0  0  0  0  0  0  0  0  0  0  0  0
   10.7940   13.6144    5.4878 N   0  0  0  0  0  0  0  0  0  0  0  0
  1  7  2  0  0  0  0
  1  2  1  0  0  0  0
  2  3  1  0  0  0  0
  2  4  2  0  0  0  0
  4  5  1  0  0  0  0
  5  6  2  0  0  0  0
  5 11  1  0  0  0  0
  6  7  1  0  0  0  0
  6  9  1  0  0  0  0
  7  8  1  0  0  0  0
  9 10  1  0  0  0  0
 10 11  2  0  0  0  0
M  END
>  <CHROM.1>
11.65382832,12.28329242,7.21362818,-1.02746655,1.17546964,-2.15377626

>  <Name>
ligand

>  <RI>
0

>  <Rbt.Current_Directory>
/home/itssahil/PROJECTS/Mol_Feturizer/New_Systems/rnas/4FEO

>  <Rbt.Executable>
rbdock ($Id: //depot/dev/client3/rdock/2013.1/src/exe/rbdock.cxx#4 $)

>  <Rbt.Library>
libRbt.so (2013.1, Build901 2013/11/27)

>  <Rbt.Parameter_File>
/export/apps/rDock/src/rDock_2013.1_src/data/scripts/dock_solv.prm

>  <Rbt.Receptor>
prm/pocket_docking_3.prm

>  <SCORE>
-11.1724

>  <SCORE.INTER>
-11.1724

>  <SCORE.INTER.CONST>
1

>  <SCORE.INTER.POLAR>
0

>  <SCORE.INTER.ROT>
0

>  <SCORE.INTER.SOLV>
19.5031

>  <SCORE.INTER.VDW>
-17.5493

>  <SCORE.INTER.norm>
-1.01567

>  <SCORE.INTRA>
0

>  <SCORE.INTRA.DIHEDRAL>
0

>  <SCORE.INTRA.DIHEDRAL.0>
0

>  <SCORE.INTRA.POLAR>
0

>  <SCORE.INTRA.POLAR.0>
0

>  <SCORE.INTRA.REPUL>
0

>  <SCORE.INTRA.REPUL.0>
0

>  <SCORE.INTRA.SOLV>
0

>  <SCORE.INTRA.SOLV.lig_0>
-48.9252

>  <SCORE.INTRA.VDW>
0

>  <SCORE.INTRA.VDW.0>
0

>  <SCORE.INTRA.norm>
0

>  <SCORE.RESTR>
0

>  <SCORE.RESTR.CAVITY>
0

>  <SCORE.RESTR.norm>
0

>  <SCORE.SYSTEM>
0

>  <SCORE.SYSTEM.CONST>
0

>  <SCORE.SYSTEM.DIHEDRAL>
0

>  <SCORE.SYSTEM.SOLV>
0

>  <SCORE.SYSTEM.norm>
0

>  <SCORE.heavy>
11

>  <SCORE.norm>
-1.01567

>  <RMSD>
0.544

$$$$
ligand
 OpenBabel11021811493D
libRbt.so/2013.1/901 2013/11/27
 11 12  0  0  0  0  0  0  0  0999 V2000
   12.2394   11.6280    8.7647 N   0  0  0  0  0  0  0  0  0  0  0  0
   11.8414   12.9010    8.9431 C   0  0  0  0  0  0  0  0  0  0  0  0
   11.9258   13.4690   10.2062 N   0  0  0  0  0  0  0  0  0  0  0  0
   11.3623   13.6348    7.9263 N   0  0  0  0  0  0  0  0  0  0  0  0
   11.2554   13.1270    6.6882 C   0  0  0  0  0  0  0  0  0  0  0  0
   11.6600   11.7952    6.4446 C   0  0  0  0  0  0  0  0  0  0  0  0
   12.1692   11.0436    7.5495 C   0  0  0  0  0  0  0  0  0  0  0  0
   12.5820    9.7440    7.3846 N   0  0  0  0  0  0  0  0  0  0  0  0
   11.4443   11.5438    5.1216 N   0  0  0  0  0  0  0  0  0  0  0  0
   10.9457   12.6044    4.5608 C   0  0  0  0  0  0  0  0  0  0  0  0
   10.8118   13.6117    5.4826 N   0  0  0  0  0  0  0  0  0  0  0  0
  1  7  2  0  0  0  0
  1  2  1  0  0  0  0
  2  3  1  0  0  0  0
  2  4  2  0  0  0  0
  4  5  1  0  0  0  0
  5  6  2  0  0  0  0
  5 11  1  0  0  0  0
  6  7  1  0  0  0  0
  6  9  1  0  0  0  0
  7  8  1  0  0  0  0
  9 10  1  0  0  0  0
 10 11  2  0  0  0  0
M  END
>  <CHROM.1>
11.66373975,12.28119877,7.21270129,-1.03255971,1.17864453,-2.15018044

>  <Name>
ligand

>  <RI>
0

>  <Rbt.Current_Directory>
/home/itssahil/PROJECTS/Mol_Feturizer/New_Systems/rnas/4FEO

>  <Rbt.Executable>
rbdock ($Id: //depot/dev/client3/rdock/2013.1/src/exe/rbdock.cxx#4 $)

>  <Rbt.Library>
libRbt.so (2013.1, Build901 2013/11/27)

>  <Rbt.Parameter_File>
/export/apps/rDock/src/rDock_2013.1_src/data/scripts/dock_solv.prm

>  <Rbt.Receptor>
prm/pocket_docking_3.prm

>  <SCORE>
-11.1802

>  <SCORE.INTER>
-11.1802

>  <SCORE.INTER.CONST>
1

>  <SCORE.INTER.POLAR>
0

>  <SCORE.INTER.ROT>
0

>  <SCORE.INTER.SOLV>
19.4944

>  <SCORE.INTER.VDW>
-17.5516

>  <SCORE.INTER.norm>
-1.01638

>  <SCORE.INTRA>
0

>  <SCORE.INTRA.DIHEDRAL>
0

>  <SCORE.INTRA.DIHEDRAL.0>
0

>  <SCORE.INTRA.POLAR>
0

>  <SCORE.INTRA.POLAR.0>
0

>  <SCORE.INTRA.REPUL>
0

>  <SCORE.INTRA.REPUL.0>
0

>  <SCORE.INTRA.SOLV>
0

>  <SCORE.INTRA.SOLV.lig_0>
-48.9252

>  <SCORE.INTRA.VDW>
0

>  <SCORE.INTRA.VDW.0>
0

>  <SCORE.INTRA.norm>
0

>  <SCORE.RESTR>
0

>  <SCORE.RESTR.CAVITY>
0

>  <SCORE.RESTR.norm>
0

>  <SCORE.SYSTEM>
0

>  <SCORE.SYSTEM.CONST>
0

>  <SCORE.SYSTEM.DIHEDRAL>
0

>  <SCORE.SYSTEM.SOLV>
0

>  <SCORE.SYSTEM.norm>
0

>  <SCORE.heavy>
11

>  <SCORE.norm>
-1.01638

>  <RMSD>
0.544

$$$$
ligand
 OpenBabel11021811493D
libRbt.so/2013.1/901 2013/11/27
 11 12  0  0  0  0  0  0  0  0999 V2000
   12.3139   11.4915    8.7568 N   0  0  0  0  0  0  0  0  0  0  0  0
   11.9454   12.7677    8.9717 C   0  0  0  0  0  0  0  0  0  0  0  0
   12.0792   13.3092   10.2421 N   0  0  0  0  0  0  0  0  0  0  0  0
   11.4493   13.5300    7.9844 N   0  0  0  0  0  0  0  0  0  0  0  0
   11.2950   13.0486    6.7408 C   0  0  0  0  0  0  0  0  0  0  0  0
   11.6668   11.7147    6.4594 C   0  0  0  0  0  0  0  0  0  0  0  0
   12.1955   10.9324    7.5335 C   0  0  0  0  0  0  0  0  0  0  0  0
   12.5786    9.6290    7.3311 N   0  0  0  0  0  0  0  0  0  0  0  0
   11.4060   11.4932    5.1392 N   0  0  0  0  0  0  0  0  0  0  0  0
   10.9105   12.5735    4.6145 C   0  0  0  0  0  0  0  0  0  0  0  0
   10.8238   13.5649    5.5589 N   0  0  0  0  0  0  0  0  0  0  0  0
  1  7  2  0  0  0  0
  1  2  1  0  0  0  0
  2  3  1  0  0  0  0
  2  4  2  0  0  0  0
  4  5  1  0  0  0  0
  5  6  2  0  0  0  0
  5 11  1  0  0  0  0
  6  7  1  0  0  0  0
  6  9  1  0  0  0  0
  7  8  1  0  0  0  0
  9 10  1  0  0  0  0
 10 11  2  0  0  0  0
M  END
>  <CHROM.1>
11.70325460,12.18536096,7.23614848,-0.93901765,1.17600416,-2.21723970

>  <Name>
ligand

>  <RI>
0

>  <Rbt.Current_Directory>
/home/itssahil/PROJECTS/Mol_Feturizer/New_Systems/rnas/4FEO

>  <Rbt.Executable>
rbdock ($Id: //depot/dev/client3/rdock/2013.1/src/exe/rbdock.cxx#4 $)

>  <Rbt.Library>
libRbt.so (2013.1, Build901 2013/11/27)

>  <Rbt.Parameter_File>
/export/apps/rDock/src/rDock_2013.1_src/data/scripts/dock_solv.prm

>  <Rbt.Receptor>
prm/pocket_docking_4.prm

>  <SCORE>
-11.1418

>  <SCORE.INTER>
-11.1418

>  <SCORE.INTER.CONST>
1

>  <SCORE.INTER.POLAR>
0

>  <SCORE.INTER.ROT>
0

>  <SCORE.INTER.SOLV>
19.1123

>  <SCORE.INTER.VDW>
-17.3986

>  <SCORE.INTER.norm>
-1.01289

>  <SCORE.INTRA>
0

>  <SCORE.INTRA.DIHEDRAL>
0

>  <SCORE.INTRA.DIHEDRAL.0>
0

>  <SCORE.INTRA.POLAR>
0

>  <SCORE.INTRA.POLAR.0>
0

>  <SCORE.INTRA.REPUL>
0

>  <SCORE.INTRA.REPUL.0>
0

>  <SCORE.INTRA.SOLV>
0

>  <SCORE.INTRA.SOLV.lig_0>
-48.9252

>  <SCORE.INTRA.VDW>
0

>  <SCORE.INTRA.VDW.0>
0

>  <SCORE.INTRA.norm>
0

>  <SCORE.RESTR>
0

>  <SCORE.RESTR.CAVITY>
0

>  <SCORE.RESTR.norm>
0

>  <SCORE.SYSTEM>
0

>  <SCORE.SYSTEM.CONST>
0

>  <SCORE.SYSTEM.DIHEDRAL>
0

>  <SCORE.SYSTEM.SOLV>
0

>  <SCORE.SYSTEM.norm>
0

>  <SCORE.heavy>
11

>  <SCORE.norm>
-1.01289

>  <RMSD>
0.544

$$$$
ligand
 OpenBabel11021811493D
libRbt.so/2013.1/901 2013/11/27
 11 12  0  0  0  0  0  0  0  0999 V2000
   12.3067   11.5676    8.7598 N   0  0  0  0  0  0  0  0  0  0  0  0
   11.9195   12.8414    8.9559 C   0  0  0  0  0  0  0  0  0  0  0  0
   12.0302   13.3982   10.2219 N   0  0  0  0  0  0  0  0  0  0  0  0
   11.4266   13.5866    7.9541 N   0  0  0  0  0  0  0  0  0  0  0  0
   11.2944   13.0898    6.7140 C   0  0  0  0  0  0  0  0  0  0  0  0
   11.6865   11.7578    6.4520 C   0  0  0  0  0  0  0  0  0  0  0  0
   12.2110   10.9938    7.5413 C   0  0  0  0  0  0  0  0  0  0  0  0
   12.6130    9.6933    7.3581 N   0  0  0  0  0  0  0  0  0  0  0  0
   11.4455   11.5187    5.1311 N   0  0  0  0  0  0  0  0  0  0  0  0
   10.9433   12.5869    4.5882 C   0  0  0  0  0  0  0  0  0  0  0  0
   10.8321   13.5873    5.5206 N   0  0  0  0  0  0  0  0  0  0  0  0
  1  7  2  0  0  0  0
  1  2  1  0  0  0  0
  2  3  1  0  0  0  0
  2  4  2  0  0  0  0
  4  5  1  0  0  0  0
  5  6  2  0  0  0  0
  5 11  1  0  0  0  0
  6  7  1  0  0  0  0
  6  9  1  0  0  0  0
  7  8  1  0  0  0  0
  9 10  1  0  0  0  0
 10 11  2  0  0  0  0
M  END
>  <CHROM.1>
11.70701142,12.23722740,7.22391922,-0.98503354,1.17341169,-2.18569594

>  <Name>
ligand

>  <RI>
0

>  <Rbt.Current_Directory>
/home/itssahil/PROJECTS/Mol_Feturizer/New_Systems/rnas/4FEO

>  <Rbt.Executable>
rbdock ($Id: //depot/dev/client3/rdock/2013.1/src/exe/rbdock.cxx#4 $)

>  <Rbt.Library>
libRbt.so (2013.1, Build901 2013/11/27)

>  <Rbt.Parameter_File>
/export/apps/rDock/src/rDock_2013.1_src/data/scripts/dock_solv.prm

>  <Rbt.Receptor>
prm/pocket_docking_4.prm

>  <SCORE>
-11.1493

>  <SCORE.INTER>
-11.1493

>  <SCORE.INTER.CONST>
1

>  <SCORE.INTER.POLAR>
0

>  <SCORE.INTER.ROT>
0

>  <SCORE.INTER.SOLV>
19.1776

>  <SCORE.INTER.VDW>
-17.4254

>  <SCORE.INTER.norm>
-1.01357

>  <SCORE.INTRA>
0

>  <SCORE.INTRA.DIHEDRAL>
0

>  <SCORE.INTRA.DIHEDRAL.0>
0

>  <SCORE.INTRA.POLAR>
0

>  <SCORE.INTRA.POLAR.0>
0

>  <SCORE.INTRA.REPUL>
0

>  <SCORE.INTRA.REPUL.0>
0

>  <SCORE.INTRA.SOLV>
0

>  <SCORE.INTRA.SOLV.lig_0>
-48.9252

>  <SCORE.INTRA.VDW>
0

>  <SCORE.INTRA.VDW.0>
0

>  <SCORE.INTRA.norm>
0

>  <SCORE.RESTR>
0

>  <SCORE.RESTR.CAVITY>
0

>  <SCORE.RESTR.norm>
0

>  <SCORE.SYSTEM>
0

>  <SCORE.SYSTEM.CONST>
0

>  <SCORE.SYSTEM.DIHEDRAL>
0

>  <SCORE.SYSTEM.SOLV>
0

>  <SCORE.SYSTEM.norm>
0

>  <SCORE.heavy>
11

>  <SCORE.norm>
-1.01357

>  <RMSD>
0.544

$$$$
ligand
 OpenBabel11021811493D
libRbt.so/2013.1/901 2013/11/27
 11 12  0  0  0  0  0  0  0  0999 V2000
   12.3172   11.5560    8.7517 N   0  0  0  0  0  0  0  0  0  0  0  0
   11.9238   12.8261    8.9583 C   0  0  0  0  0  0  0  0  0  0  0  0
   12.0448   13.3776   10.2257 N   0  0  0  0  0  0  0  0  0  0  0  0
   11.4147   13.5727    7.9657 N   0  0  0  0  0  0  0  0  0  0  0  0
   11.2719   13.0810    6.7247 C   0  0  0  0  0  0  0  0  0  0  0  0
   11.6700   11.7529    6.4519 C   0  0  0  0  0  0  0  0  0  0  0  0
   12.2118   10.9874    7.5316 C   0  0  0  0  0  0  0  0  0  0  0  0
   12.6205    9.6905    7.3377 N   0  0  0  0  0  0  0  0  0  0  0  0
   11.4159   11.5185    5.1327 N   0  0  0  0  0  0  0  0  0  0  0  0
   10.9005   12.5859    4.6006 C   0  0  0  0  0  0  0  0  0  0  0  0
   10.7930   13.5810    5.5390 N   0  0  0  0  0  0  0  0  0  0  0  0
  1  7  2  0  0  0  0
  1  2  1  0  0  0  0
  2  3  1  0  0  0  0
  2  4  2  0  0  0  0
  4  5  1  0  0  0  0
  5  6  2  0  0  0  0
  5 11  1  0  0  0  0
  6  7  1  0  0  0  0
  6  9  1  0  0  0  0
  7  8  1  0  0  0  0
  9 10  1  0  0  0  0
 10 11  2  0  0  0  0
M  END
>  <CHROM.1>
11.69595897,12.22878971,7.22590553,-0.97185559,1.16142461,-2.19299443

>  <Name>
ligand

>  <RI>
0

>  <Rbt.Current_Directory>
/home/itssahil/PROJECTS/Mol_Feturizer/New_Systems/rnas/4FEO

>  <Rbt.Executable>
rbdock ($Id: //depot/dev/client3/rdock/2013.1/src/exe/rbdock.cxx#4 $)

>  <Rbt.Library>
libRbt.so (2013.1, Build901 2013/11/27)

>  <Rbt.Parameter_File>
/export/apps/rDock/src/rDock_2013.1_src/data/scripts/dock_solv.prm

>  <Rbt.Receptor>
prm/pocket_docking_6.prm

>  <SCORE>
-11.1689

>  <SCORE.INTER>
-11.1689

>  <SCORE.INTER.CONST>
1

>  <SCORE.INTER.POLAR>
0

>  <SCORE.INTER.ROT>
0

>  <SCORE.INTER.SOLV>
19.0992

>  <SCORE.INTER.VDW>
-17.4123

>  <SCORE.INTER.norm>
-1.01535

>  <SCORE.INTRA>
0

>  <SCORE.INTRA.DIHEDRAL>
0

>  <SCORE.INTRA.DIHEDRAL.0>
0

>  <SCORE.INTRA.POLAR>
0

>  <SCORE.INTRA.POLAR.0>
0

>  <SCORE.INTRA.REPUL>
0

>  <SCORE.INTRA.REPUL.0>
0

>  <SCORE.INTRA.SOLV>
0

>  <SCORE.INTRA.SOLV.lig_0>
-48.9252

>  <SCORE.INTRA.VDW>
0

>  <SCORE.INTRA.VDW.0>
0

>  <SCORE.INTRA.norm>
0

>  <SCORE.RESTR>
0

>  <SCORE.RESTR.CAVITY>
0

>  <SCORE.RESTR.norm>
0

>  <SCORE.SYSTEM>
0

>  <SCORE.SYSTEM.CONST>
0

>  <SCORE.SYSTEM.DIHEDRAL>
0

>  <SCORE.SYSTEM.SOLV>
0

>  <SCORE.SYSTEM.norm>
0

>  <SCORE.heavy>
11

>  <SCORE.norm>
-1.01535

>  <RMSD>
0.544

$$$$
ligand
 OpenBabel11021811493D
libRbt.so/2013.1/901 2013/11/27
 11 12  0  0  0  0  0  0  0  0999 V2000
   12.3050   11.5073    8.7487 N   0  0  0  0  0  0  0  0  0  0  0  0
   11.9174   12.7780    8.9626 C   0  0  0  0  0  0  0  0  0  0  0  0
   12.0413   13.3218   10.2330 N   0  0  0  0  0  0  0  0  0  0  0  0
   11.4116   13.5326    7.9743 N   0  0  0  0  0  0  0  0  0  0  0  0
   11.2662   13.0486    6.7306 C   0  0  0  0  0  0  0  0  0  0  0  0
   11.6581   11.7203    6.4502 C   0  0  0  0  0  0  0  0  0  0  0  0
   12.1966   10.9461    7.5253 C   0  0  0  0  0  0  0  0  0  0  0  0
   12.5992    9.6485    7.3240 N   0  0  0  0  0  0  0  0  0  0  0  0
   11.4026   11.4946    5.1297 N   0  0  0  0  0  0  0  0  0  0  0  0
   10.8919   12.5673    4.6039 C   0  0  0  0  0  0  0  0  0  0  0  0
   10.7893   13.5575    5.5479 N   0  0  0  0  0  0  0  0  0  0  0  0
  1  7  2  0  0  0  0
  1  2  1  0  0  0  0
  2  3  1  0  0  0  0
  2  4  2  0  0  0  0
  4  5  1  0  0  0  0
  5  6  2  0  0  0  0
  5 11  1  0  0  0  0
  6  7  1  0  0  0  0
  6  9  1  0  0  0  0
  7  8  1  0  0  0  0
  9 10  1  0  0  0  0
 10 11  2  0  0  0  0
M  END
>  <CHROM.1>
11.68643470,12.19163765,7.22686036,-0.96448576,1.16503887,-2.19409212

>  <Name>
ligand

>  <RI>
0

>  <Rbt.Current_Directory>
/home/itssahil/PROJECTS/Mol_Feturizer/New_Systems/rnas/4FEO

>  <Rbt.Executable>
rbdock ($Id: //depot/dev/client3/rdock/2013.1/src/exe/rbdock.cxx#4 $)

>  <Rbt.Library>
libRbt.so (2013.1, Build901 2013/11/27)

>  <Rbt.Parameter_File>
/export/apps/rDock/src/rDock_2013.1_src/data/scripts/dock_solv.prm

>  <Rbt.Receptor>
prm/pocket_docking_7.prm

>  <SCORE>
-11.1679

>  <SCORE.INTER>
-11.1679

>  <SCORE.INTER.CONST>
1

>  <SCORE.INTER.POLAR>
0

>  <SCORE.INTER.ROT>
0

>  <SCORE.INTER.SOLV>
19.0903

>  <SCORE.INTER.VDW>
-17.4087

>  <SCORE.INTER.norm>
-1.01526

>  <SCORE.INTRA>
0

>  <SCORE.INTRA.DIHEDRAL>
0

>  <SCORE.INTRA.DIHEDRAL.0>
0

>  <SCORE.INTRA.POLAR>
0

>  <SCORE.INTRA.POLAR.0>
0

>  <SCORE.INTRA.REPUL>
0

>  <SCORE.INTRA.REPUL.0>
0

>  <SCORE.INTRA.SOLV>
0

>  <SCORE.INTRA.SOLV.lig_0>
-48.9252

>  <SCORE.INTRA.VDW>
0

>  <SCORE.INTRA.VDW.0>
0

>  <SCORE.INTRA.norm>
0

>  <SCORE.RESTR>
0

>  <SCORE.RESTR.CAVITY>
0

>  <SCORE.RESTR.norm>
0

>  <SCORE.SYSTEM>
0

>  <SCORE.SYSTEM.CONST>
0

>  <SCORE.SYSTEM.DIHEDRAL>
0

>  <SCORE.SYSTEM.SOLV>
0

>  <SCORE.SYSTEM.norm>
0

>  <SCORE.heavy>
11

>  <SCORE.norm>
-1.01526

>  <RMSD>
0.544

$$$$
ligand
 OpenBabel11021811493D
libRbt.so/2013.1/901 2013/11/27
 11 12  0  0  0  0  0  0  0  0999 V2000
   12.3266   11.4572    8.7502 N   0  0  0  0  0  0  0  0  0  0  0  0
   11.9431   12.7249    8.9881 C   0  0  0  0  0  0  0  0  0  0  0  0
   12.0753   13.2465   10.2670 N   0  0  0  0  0  0  0  0  0  0  0  0
   11.4334   13.4974    8.0158 N   0  0  0  0  0  0  0  0  0  0  0  0
   11.2800   13.0352    6.7649 C   0  0  0  0  0  0  0  0  0  0  0  0
   11.6673   11.7110    6.4594 C   0  0  0  0  0  0  0  0  0  0  0  0
   12.2101   10.9174    7.5181 C   0  0  0  0  0  0  0  0  0  0  0  0
   12.6087    9.6225    7.2922 N   0  0  0  0  0  0  0  0  0  0  0  0
   11.4039   11.5086    5.1367 N   0  0  0  0  0  0  0  0  0  0  0  0
   10.8927   12.5912    4.6323 C   0  0  0  0  0  0  0  0  0  0  0  0
   10.7975   13.5654    5.5937 N   0  0  0  0  0  0  0  0  0  0  0  0
  1  7  2  0  0  0  0
  1  2  1  0  0  0  0
  2  3  1  0  0  0  0
  2  4  2  0  0  0  0
  4  5  1  0  0  0  0
  5  6  2  0  0  0  0
  5 11  1  0  0  0  0
  6  7  1  0  0  0  0
  6  9  1  0  0  0  0
  7  8  1  0  0  0  0
  9 10  1  0  0  0  0
 10 11  2  0  0  0  0
M  END
>  <CHROM.1>
11.70105400,12.16890578,7.24392311,-0.94970324,1.16352569,-2.19049462

>  <Name>
ligand

>  <RI>
0

>  <Rbt.Current_Directory>
/home/itssahil/PROJECTS/Mol_Feturizer/New_Systems/rnas/4FEO

>  <Rbt.Executable>
rbdock ($Id: //depot/dev/client3/rdock/2013.1/src/exe/rbdock.cxx#4 $)

>  <Rbt.Library>
libRbt.so (2013.1, Build901 2013/11/27)

>  <Rbt.Parameter_File>
/export/apps/rDock/src/rDock_2013.1_src/data/scripts/dock_solv.prm

>  <Rbt.Receptor>
prm/pocket_docking_8.prm

>  <SCORE>
-11.1357

>  <SCORE.INTER>
-11.1357

>  <SCORE.INTER.CONST>
1

>  <SCORE.INTER.POLAR>
0

>  <SCORE.INTER.ROT>
0

>  <SCORE.INTER.SOLV>
18.9325

>  <SCORE.INTER.VDW>
-17.3346

>  <SCORE.INTER.norm>
-1.01233

>  <SCORE.INTRA>
0

>  <SCORE.INTRA.DIHEDRAL>
0

>  <SCORE.INTRA.DIHEDRAL.0>
0

>  <SCORE.INTRA.POLAR>
0

>  <SCORE.INTRA.POLAR.0>
0

>  <SCORE.INTRA.REPUL>
0

>  <SCORE.INTRA.REPUL.0>
0

>  <SCORE.INTRA.SOLV>
0

>  <SCORE.INTRA.SOLV.lig_0>
-48.9252

>  <SCORE.INTRA.VDW>
0

>  <SCORE.INTRA.VDW.0>
0

>  <SCORE.INTRA.norm>
0

>  <SCORE.RESTR>
0

>  <SCORE.RESTR.CAVITY>
0

>  <SCORE.RESTR.norm>
0

>  <SCORE.SYSTEM>
0

>  <SCORE.SYSTEM.CONST>
0

>  <SCORE.SYSTEM.DIHEDRAL>
0

>  <SCORE.SYSTEM.SOLV>
0

>  <SCORE.SYSTEM.norm>
0

>  <SCORE.heavy>
11

>  <SCORE.norm>
-1.01233

>  <RMSD>
0.544

$$$$
ligand
 OpenBabel11021811493D
libRbt.so/2013.1/901 2013/11/27
 11 12  0  0  0  0  0  0  0  0999 V2000
   12.2853   11.5011    8.7530 N   0  0  0  0  0  0  0  0  0  0  0  0
   11.9034   12.7756    8.9542 C   0  0  0  0  0  0  0  0  0  0  0  0
   12.0110   13.3251   10.2236 N   0  0  0  0  0  0  0  0  0  0  0  0
   11.4187   13.5285    7.9541 N   0  0  0  0  0  0  0  0  0  0  0  0
   11.2897   13.0390    6.7108 C   0  0  0  0  0  0  0  0  0  0  0  0
   11.6766   11.7065    6.4435 C   0  0  0  0  0  0  0  0  0  0  0  0
   12.1924   10.9342    7.5310 C   0  0  0  0  0  0  0  0  0  0  0  0
   12.5890    9.6328    7.3428 N   0  0  0  0  0  0  0  0  0  0  0  0
   11.4405   11.4756    5.1203 N   0  0  0  0  0  0  0  0  0  0  0  0
   10.9459   12.5491    4.5808 C   0  0  0  0  0  0  0  0  0  0  0  0
   10.8353   13.5450    5.5180 N   0  0  0  0  0  0  0  0  0  0  0  0
  1  7  2  0  0  0  0
  1  2  1  0  0  0  0
  2  3  1  0  0  0  0
  2  4  2  0  0  0  0
  4  5  1  0  0  0  0
  5  6  2  0  0  0  0
  5 11  1  0  0  0  0
  6  7  1  0  0  0  0
  6  9  1  0  0  0  0
  7  8  1  0  0  0  0
  9 10  1  0  0  0  0
 10 11  2  0  0  0  0
M  END
>  <CHROM.1>
11.69590363,12.18170184,7.21804279,-0.98751736,1.17996881,-2.17807188

>  <Name>
ligand

>  <RI>
0

>  <Rbt.Current_Directory>
/home/itssahil/PROJECTS/Mol_Feturizer/New_Systems/rnas/4FEO

>  <Rbt.Executable>
rbdock ($Id: //depot/dev/client3/rdock/2013.1/src/exe/rbdock.cxx#4 $)

>  <Rbt.Library>
libRbt.so (2013.1, Build901 2013/11/27)

>  <Rbt.Parameter_File>
/export/apps/rDock/src/rDock_2013.1_src/data/scripts/dock_solv.prm

>  <Rbt.Receptor>
prm/blind_docking_100.prm

>  <SCORE>
-11.162

>  <SCORE.INTER>
-11.162

>  <SCORE.INTER.CONST>
1

>  <SCORE.INTER.POLAR>
0

>  <SCORE.INTER.ROT>
0

>  <SCORE.INTER.SOLV>
19.1949

>  <SCORE.INTER.VDW>
-17.4396

>  <SCORE.INTER.norm>
-1.01473

>  <SCORE.INTRA>
0

>  <SCORE.INTRA.DIHEDRAL>
0

>  <SCORE.INTRA.DIHEDRAL.0>
0

>  <SCORE.INTRA.POLAR>
0

>  <SCORE.INTRA.POLAR.0>
0

>  <SCORE.INTRA.REPUL>
0

>  <SCORE.INTRA.REPUL.0>
0

>  <SCORE.INTRA.SOLV>
0

>  <SCORE.INTRA.SOLV.lig_0>
-48.9252

>  <SCORE.INTRA.VDW>
0

>  <SCORE.INTRA.VDW.0>
0

>  <SCORE.INTRA.norm>
0

>  <SCORE.RESTR>
0

>  <SCORE.RESTR.CAVITY>
0

>  <SCORE.RESTR.norm>
0

>  <SCORE.SYSTEM>
0

>  <SCORE.SYSTEM.CONST>
0

>  <SCORE.SYSTEM.DIHEDRAL>
0

>  <SCORE.SYSTEM.SOLV>
0

>  <SCORE.SYSTEM.norm>
0

>  <SCORE.heavy>
11

>  <SCORE.norm>
-1.01473

>  <RMSD>
0.545

$$$$
ligand
 OpenBabel11021811493D
libRbt.so/2013.1/901 2013/11/27
 11 12  0  0  0  0  0  0  0  0999 V2000
   12.2552   11.6256    8.7587 N   0  0  0  0  0  0  0  0  0  0  0  0
   11.8536   12.8964    8.9449 C   0  0  0  0  0  0  0  0  0  0  0  0
   11.9480   13.4609   10.2088 N   0  0  0  0  0  0  0  0  0  0  0  0
   11.3616   13.6313    7.9350 N   0  0  0  0  0  0  0  0  0  0  0  0
   11.2448   13.1268    6.6965 C   0  0  0  0  0  0  0  0  0  0  0  0
   11.6524   11.7975    6.4448 C   0  0  0  0  0  0  0  0  0  0  0  0
   12.1755   11.0446    7.5425 C   0  0  0  0  0  0  0  0  0  0  0  0
   12.5921    9.7473    7.3696 N   0  0  0  0  0  0  0  0  0  0  0  0
   11.4249   11.5491    5.1233 N   0  0  0  0  0  0  0  0  0  0  0  0
   10.9165   12.6093    4.5706 C   0  0  0  0  0  0  0  0  0  0  0  0
   10.7875   13.6134    5.4967 N   0  0  0  0  0  0  0  0  0  0  0  0
  1  7  2  0  0  0  0
  1  2  1  0  0  0  0
  2  3  1  0  0  0  0
  2  4  2  0  0  0  0
  4  5  1  0  0  0  0
  5  6  2  0  0  0  0
  5 11  1  0  0  0  0
  6  7  1  0  0  0  0
  6  9  1  0  0  0  0
  7  8  1  0  0  0  0
  9 10  1  0  0  0  0
 10 11  2  0  0  0  0
M  END
>  <CHROM.1>
11.66167865,12.28111645,7.21437945,-1.01743617,1.16981936,-2.16107890

>  <Name>
ligand

>  <RI>
0

>  <Rbt.Current_Directory>
/home/itssahil/PROJECTS/Mol_Feturizer/New_Systems/rnas/4FEO

>  <Rbt.Executable>
rbdock ($Id: //depot/dev/client3/rdock/2013.1/src/exe/rbdock.cxx#4 $)

>  <Rbt.Library>
libRbt.so (2013.1, Build901 2013/11/27)

>  <Rbt.Parameter_File>
/export/apps/rDock/src/rDock_2013.1_src/data/scripts/dock_solv.prm

>  <Rbt.Receptor>
prm/pocket_docking_3.prm

>  <SCORE>
-11.1687

>  <SCORE.INTER>
-11.1687

>  <SCORE.INTER.CONST>
1

>  <SCORE.INTER.POLAR>
0

>  <SCORE.INTER.ROT>
0

>  <SCORE.INTER.SOLV>
19.413

>  <SCORE.INTER.VDW>
-17.5168

>  <SCORE.INTER.norm>
-1.01533

>  <SCORE.INTRA>
0

>  <SCORE.INTRA.DIHEDRAL>
0

>  <SCORE.INTRA.DIHEDRAL.0>
0

>  <SCORE.INTRA.POLAR>
0

>  <SCORE.INTRA.POLAR.0>
0

>  <SCORE.INTRA.REPUL>
0

>  <SCORE.INTRA.REPUL.0>
0

>  <SCORE.INTRA.SOLV>
0

>  <SCORE.INTRA.SOLV.lig_0>
-48.9252

>  <SCORE.INTRA.VDW>
0

>  <SCORE.INTRA.VDW.0>
0

>  <SCORE.INTRA.norm>
0

>  <SCORE.RESTR>
0

>  <SCORE.RESTR.CAVITY>
0

>  <SCORE.RESTR.norm>
0

>  <SCORE.SYSTEM>
0

>  <SCORE.SYSTEM.CONST>
0

>  <SCORE.SYSTEM.DIHEDRAL>
0

>  <SCORE.SYSTEM.SOLV>
0

>  <SCORE.SYSTEM.norm>
0

>  <SCORE.heavy>
11

>  <SCORE.norm>
-1.01533

>  <RMSD>
0.545

$$$$
ligand
 OpenBabel11021811493D
libRbt.so/2013.1/901 2013/11/27
 11 12  0  0  0  0  0  0  0  0999 V2000
   12.2880   11.5133    8.7524 N   0  0  0  0  0  0  0  0  0  0  0  0
   11.9177   12.7904    8.9589 C   0  0  0  0  0  0  0  0  0  0  0  0
   12.0458   13.3388   10.2269 N   0  0  0  0  0  0  0  0  0  0  0  0
   11.4250   13.5469    7.9655 N   0  0  0  0  0  0  0  0  0  0  0  0
   11.2761   13.0587    6.7239 C   0  0  0  0  0  0  0  0  0  0  0  0
   11.6502   11.7236    6.4512 C   0  0  0  0  0  0  0  0  0  0  0  0
   12.1751   10.9475    7.5317 C   0  0  0  0  0  0  0  0  0  0  0  0
   12.5601    9.6434    7.3379 N   0  0  0  0  0  0  0  0  0  0  0  0
   11.3950   11.4948    5.1312 N   0  0  0  0  0  0  0  0  0  0  0  0
   10.9007   12.5718    4.5986 C   0  0  0  0  0  0  0  0  0  0  0  0
   10.8094   13.5682    5.5373 N   0  0  0  0  0  0  0  0  0  0  0  0
  1  7  2  0  0  0  0
  1  2  1  0  0  0  0
  2  3  1  0  0  0  0
  2  4  2  0  0  0  0
  4  5  1  0  0  0  0
  5  6  2  0  0  0  0
  5 11  1  0  0  0  0
  6  7  1  0  0  0  0
  6  9  1  0  0  0  0
  7  8  1  0  0  0  0
  9 10  1  0  0  0  0
 10 11  2  0  0  0  0
M  END
>  <CHROM.1>
11.68306744,12.19849907,7.22556004,-0.94879278,1.17783043,-2.21361195

>  <Name>
ligand

>  <RI>
0

>  <Rbt.Current_Directory>
/home/itssahil/PROJECTS/Mol_Feturizer/New_Systems/rnas/4FEO

>  <Rbt.Executable>
rbdock ($Id: //depot/dev/client3/rdock/2013.1/src/exe/rbdock.cxx#4 $)

>  <Rbt.Library>
libRbt.so (2013.1, Build901 2013/11/27)

>  <Rbt.Parameter_File>
/export/apps/rDock/src/rDock_2013.1_src/data/scripts/dock_solv.prm

>  <Rbt.Receptor>
prm/blind_docking_40.prm

>  <SCORE>
-11.1964

>  <SCORE.INTER>
-11.1964

>  <SCORE.INTER.CONST>
1

>  <SCORE.INTER.POLAR>
0

>  <SCORE.INTER.ROT>
0

>  <SCORE.INTER.SOLV>
19.2575

>  <SCORE.INTER.VDW>
-17.4834

>  <SCORE.INTER.norm>
-1.01785

>  <SCORE.INTRA>
0

>  <SCORE.INTRA.DIHEDRAL>
0

>  <SCORE.INTRA.DIHEDRAL.0>
0

>  <SCORE.INTRA.POLAR>
0

>  <SCORE.INTRA.POLAR.0>
0

>  <SCORE.INTRA.REPUL>
0

>  <SCORE.INTRA.REPUL.0>
0

>  <SCORE.INTRA.SOLV>
0

>  <SCORE.INTRA.SOLV.lig_0>
-48.9252

>  <SCORE.INTRA.VDW>
0

>  <SCORE.INTRA.VDW.0>
0

>  <SCORE.INTRA.norm>
0

>  <SCORE.RESTR>
0

>  <SCORE.RESTR.CAVITY>
0

>  <SCORE.RESTR.norm>
0

>  <SCORE.SYSTEM>
0

>  <SCORE.SYSTEM.CONST>
0

>  <SCORE.SYSTEM.DIHEDRAL>
0

>  <SCORE.SYSTEM.SOLV>
0

>  <SCORE.SYSTEM.norm>
0

>  <SCORE.heavy>
11

>  <SCORE.norm>
-1.01785

>  <RMSD>
0.546

$$$$
ligand
 OpenBabel11021811493D
libRbt.so/2013.1/901 2013/11/27
 11 12  0  0  0  0  0  0  0  0999 V2000
   12.2401   11.6283    8.7589 N   0  0  0  0  0  0  0  0  0  0  0  0
   11.8366   12.8992    8.9399 C   0  0  0  0  0  0  0  0  0  0  0  0
   11.9231   13.4666   10.2031 N   0  0  0  0  0  0  0  0  0  0  0  0
   11.3501   13.6316    7.9255 N   0  0  0  0  0  0  0  0  0  0  0  0
   11.2410   13.1243    6.6874 C   0  0  0  0  0  0  0  0  0  0  0  0
   11.6510   11.7947    6.4411 C   0  0  0  0  0  0  0  0  0  0  0  0
   12.1680   11.0446    7.5435 C   0  0  0  0  0  0  0  0  0  0  0  0
   12.5865    9.7472    7.3759 N   0  0  0  0  0  0  0  0  0  0  0  0
   11.4315   11.5433    5.1188 N   0  0  0  0  0  0  0  0  0  0  0  0
   10.9257   12.6020    4.5608 C   0  0  0  0  0  0  0  0  0  0  0  0
   10.7905   13.6079    5.4839 N   0  0  0  0  0  0  0  0  0  0  0  0
  1  7  2  0  0  0  0
  1  2  1  0  0  0  0
  2  3  1  0  0  0  0
  2  4  2  0  0  0  0
  4  5  1  0  0  0  0
  5  6  2  0  0  0  0
  5 11  1  0  0  0  0
  6  7  1  0  0  0  0
  6  9  1  0  0  0  0
  7  8  1  0  0  0  0
  9 10  1  0  0  0  0
 10 11  2  0  0  0  0
M  END
>  <CHROM.1>
11.65534234,12.28005653,7.20962225,-1.03114513,1.17253905,-2.15064157

>  <Name>
ligand

>  <RI>
0

>  <Rbt.Current_Directory>
/home/itssahil/PROJECTS/Mol_Feturizer/New_Systems/rnas/4FEO

>  <Rbt.Executable>
rbdock ($Id: //depot/dev/client3/rdock/2013.1/src/exe/rbdock.cxx#4 $)

>  <Rbt.Library>
libRbt.so (2013.1, Build901 2013/11/27)

>  <Rbt.Parameter_File>
/export/apps/rDock/src/rDock_2013.1_src/data/scripts/dock_solv.prm

>  <Rbt.Receptor>
prm/pocket_docking_3.prm

>  <SCORE>
-11.173

>  <SCORE.INTER>
-11.173

>  <SCORE.INTER.CONST>
1

>  <SCORE.INTER.POLAR>
0

>  <SCORE.INTER.ROT>
0

>  <SCORE.INTER.SOLV>
19.467

>  <SCORE.INTER.VDW>
-17.5377

>  <SCORE.INTER.norm>
-1.01573

>  <SCORE.INTRA>
0

>  <SCORE.INTRA.DIHEDRAL>
0

>  <SCORE.INTRA.DIHEDRAL.0>
0

>  <SCORE.INTRA.POLAR>
0

>  <SCORE.INTRA.POLAR.0>
0

>  <SCORE.INTRA.REPUL>
0

>  <SCORE.INTRA.REPUL.0>
0

>  <SCORE.INTRA.SOLV>
0

>  <SCORE.INTRA.SOLV.lig_0>
-48.9252

>  <SCORE.INTRA.VDW>
0

>  <SCORE.INTRA.VDW.0>
0

>  <SCORE.INTRA.norm>
0

>  <SCORE.RESTR>
0

>  <SCORE.RESTR.CAVITY>
0

>  <SCORE.RESTR.norm>
0

>  <SCORE.SYSTEM>
0

>  <SCORE.SYSTEM.CONST>
0

>  <SCORE.SYSTEM.DIHEDRAL>
0

>  <SCORE.SYSTEM.SOLV>
0

>  <SCORE.SYSTEM.norm>
0

>  <SCORE.heavy>
11

>  <SCORE.norm>
-1.01573

>  <RMSD>
0.546

$$$$
ligand
 OpenBabel11021811493D
libRbt.so/2013.1/901 2013/11/27
 11 12  0  0  0  0  0  0  0  0999 V2000
   12.3434   11.4363    8.7545 N   0  0  0  0  0  0  0  0  0  0  0  0
   11.9675   12.7058    8.9947 C   0  0  0  0  0  0  0  0  0  0  0  0
   12.1058   13.2253   10.2737 N   0  0  0  0  0  0  0  0  0  0  0  0
   11.4597   13.4822    8.0244 N   0  0  0  0  0  0  0  0  0  0  0  0
   11.3006   13.0220    6.7734 C   0  0  0  0  0  0  0  0  0  0  0  0
   11.6798   11.6961    6.4657 C   0  0  0  0  0  0  0  0  0  0  0  0
   12.2208   10.8983    7.5221 C   0  0  0  0  0  0  0  0  0  0  0  0
   12.6116    9.6016    7.2940 N   0  0  0  0  0  0  0  0  0  0  0  0
   11.4120   11.4964    5.1434 N   0  0  0  0  0  0  0  0  0  0  0  0
   10.9056   12.5824    4.6413 C   0  0  0  0  0  0  0  0  0  0  0  0
   10.8182   13.5561    5.6040 N   0  0  0  0  0  0  0  0  0  0  0  0
  1  7  2  0  0  0  0
  1  2  1  0  0  0  0
  2  3  1  0  0  0  0
  2  4  2  0  0  0  0
  4  5  1  0  0  0  0
  5  6  2  0  0  0  0
  5 11  1  0  0  0  0
  6  7  1  0  0  0  0
  6  9  1  0  0  0  0
  7  8  1  0  0  0  0
  9 10  1  0  0  0  0
 10 11  2  0  0  0  0
M  END
>  <CHROM.1>
11.71804578,12.15296066,7.25050665,-0.93637320,1.16658114,-2.20172960

>  <Name>
ligand

>  <RI>
0

>  <Rbt.Current_Directory>
/home/itssahil/PROJECTS/Mol_Feturizer/New_Systems/rnas/4FEO

>  <Rbt.Executable>
rbdock ($Id: //depot/dev/client3/rdock/2013.1/src/exe/rbdock.cxx#4 $)

>  <Rbt.Library>
libRbt.so (2013.1, Build901 2013/11/27)

>  <Rbt.Parameter_File>
/export/apps/rDock/src/rDock_2013.1_src/data/scripts/dock_solv.prm

>  <Rbt.Receptor>
prm/pocket_docking_5.prm

>  <SCORE>
-11.1416

>  <SCORE.INTER>
-11.1416

>  <SCORE.INTER.CONST>
1

>  <SCORE.INTER.POLAR>
0

>  <SCORE.INTER.ROT>
0

>  <SCORE.INTER.SOLV>
18.8854

>  <SCORE.INTER.VDW>
-17.3228

>  <SCORE.INTER.norm>
-1.01287

>  <SCORE.INTRA>
0

>  <SCORE.INTRA.DIHEDRAL>
0

>  <SCORE.INTRA.DIHEDRAL.0>
0

>  <SCORE.INTRA.POLAR>
0

>  <SCORE.INTRA.POLAR.0>
0

>  <SCORE.INTRA.REPUL>
0

>  <SCORE.INTRA.REPUL.0>
0

>  <SCORE.INTRA.SOLV>
0

>  <SCORE.INTRA.SOLV.lig_0>
-48.9252

>  <SCORE.INTRA.VDW>
0

>  <SCORE.INTRA.VDW.0>
0

>  <SCORE.INTRA.norm>
0

>  <SCORE.RESTR>
0

>  <SCORE.RESTR.CAVITY>
0

>  <SCORE.RESTR.norm>
0

>  <SCORE.SYSTEM>
0

>  <SCORE.SYSTEM.CONST>
0

>  <SCORE.SYSTEM.DIHEDRAL>
0

>  <SCORE.SYSTEM.SOLV>
0

>  <SCORE.SYSTEM.norm>
0

>  <SCORE.heavy>
11

>  <SCORE.norm>
-1.01287

>  <RMSD>
0.546

$$$$
ligand
 OpenBabel11021811493D
libRbt.so/2013.1/901 2013/11/27
 11 12  0  0  0  0  0  0  0  0999 V2000
   12.2460   11.5069    8.7588 N   0  0  0  0  0  0  0  0  0  0  0  0
   11.8904   12.7894    8.9573 C   0  0  0  0  0  0  0  0  0  0  0  0
   12.0052   13.3380   10.2266 N   0  0  0  0  0  0  0  0  0  0  0  0
   11.4250   13.5512    7.9548 N   0  0  0  0  0  0  0  0  0  0  0  0
   11.2899   13.0631    6.7116 C   0  0  0  0  0  0  0  0  0  0  0  0
   11.6495   11.7225    6.4470 C   0  0  0  0  0  0  0  0  0  0  0  0
   12.1453   10.9407    7.5371 C   0  0  0  0  0  0  0  0  0  0  0  0
   12.5150    9.6310    7.3516 N   0  0  0  0  0  0  0  0  0  0  0  0
   11.4131   11.4952    5.1232 N   0  0  0  0  0  0  0  0  0  0  0  0
   10.9430   12.5782    4.5810 C   0  0  0  0  0  0  0  0  0  0  0  0
   10.8502   13.5773    5.5167 N   0  0  0  0  0  0  0  0  0  0  0  0
  1  7  2  0  0  0  0
  1  2  1  0  0  0  0
  2  3  1  0  0  0  0
  2  4  2  0  0  0  0
  4  5  1  0  0  0  0
  5  6  2  0  0  0  0
  5 11  1  0  0  0  0
  6  7  1  0  0  0  0
  6  9  1  0  0  0  0
  7  8  1  0  0  0  0
  9 10  1  0  0  0  0
 10 11  2  0  0  0  0
M  END
>  <CHROM.1>
11.67625424,12.19805283,7.22113300,-0.96205687,1.19908008,-2.20278554

>  <Name>
ligand

>  <RI>
0

>  <Rbt.Current_Directory>
/home/itssahil/PROJECTS/Mol_Feturizer/New_Systems/rnas/4FEO

>  <Rbt.Executable>
rbdock ($Id: //depot/dev/client3/rdock/2013.1/src/exe/rbdock.cxx#4 $)

>  <Rbt.Library>
libRbt.so (2013.1, Build901 2013/11/27)

>  <Rbt.Parameter_File>
/export/apps/rDock/src/rDock_2013.1_src/data/scripts/dock_solv.prm

>  <Rbt.Receptor>
prm/pocket_docking_8.prm

>  <SCORE>
-11.1615

>  <SCORE.INTER>
-11.1615

>  <SCORE.INTER.CONST>
1

>  <SCORE.INTER.POLAR>
0

>  <SCORE.INTER.ROT>
0

>  <SCORE.INTER.SOLV>
19.4855

>  <SCORE.INTER.VDW>
-17.5362

>  <SCORE.INTER.norm>
-1.01469

>  <SCORE.INTRA>
0

>  <SCORE.INTRA.DIHEDRAL>
0

>  <SCORE.INTRA.DIHEDRAL.0>
0

>  <SCORE.INTRA.POLAR>
0

>  <SCORE.INTRA.POLAR.0>
0

>  <SCORE.INTRA.REPUL>
0

>  <SCORE.INTRA.REPUL.0>
0

>  <SCORE.INTRA.SOLV>
0

>  <SCORE.INTRA.SOLV.lig_0>
-48.9252

>  <SCORE.INTRA.VDW>
0

>  <SCORE.INTRA.VDW.0>
0

>  <SCORE.INTRA.norm>
0

>  <SCORE.RESTR>
0

>  <SCORE.RESTR.CAVITY>
0

>  <SCORE.RESTR.norm>
0

>  <SCORE.SYSTEM>
0

>  <SCORE.SYSTEM.CONST>
0

>  <SCORE.SYSTEM.DIHEDRAL>
0

>  <SCORE.SYSTEM.SOLV>
0

>  <SCORE.SYSTEM.norm>
0

>  <SCORE.heavy>
11

>  <SCORE.norm>
-1.01469

>  <RMSD>
0.546

$$$$
ligand
 OpenBabel11021811493D
libRbt.so/2013.1/901 2013/11/27
 11 12  0  0  0  0  0  0  0  0999 V2000
   12.3027   11.5689    8.7593 N   0  0  0  0  0  0  0  0  0  0  0  0
   11.9279   12.8440    8.9699 C   0  0  0  0  0  0  0  0  0  0  0  0
   12.0504   13.3875   10.2405 N   0  0  0  0  0  0  0  0  0  0  0  0
   11.4360   13.6031    7.9781 N   0  0  0  0  0  0  0  0  0  0  0  0
   11.2925   13.1196    6.7340 C   0  0  0  0  0  0  0  0  0  0  0  0
   11.6714   11.7868    6.4569 C   0  0  0  0  0  0  0  0  0  0  0  0
   12.1952   11.0078    7.5358 C   0  0  0  0  0  0  0  0  0  0  0  0
   12.5848    9.7057    7.3379 N   0  0  0  0  0  0  0  0  0  0  0  0
   11.4210   11.5627    5.1352 N   0  0  0  0  0  0  0  0  0  0  0  0
   10.9252   12.6404    4.6055 C   0  0  0  0  0  0  0  0  0  0  0  0
   10.8280   13.6326    5.5481 N   0  0  0  0  0  0  0  0  0  0  0  0
  1  7  2  0  0  0  0
  1  2  1  0  0  0  0
  2  3  1  0  0  0  0
  2  4  2  0  0  0  0
  4  5  1  0  0  0  0
  5  6  2  0  0  0  0
  5 11  1  0  0  0  0
  6  7  1  0  0  0  0
  6  9  1  0  0  0  0
  7  8  1  0  0  0  0
  9 10  1  0  0  0  0
 10 11  2  0  0  0  0
M  END
>  <CHROM.1>
11.70044812,12.25854784,7.23335435,-0.96001934,1.17727403,-2.19909518

>  <Name>
ligand

>  <RI>
0

>  <Rbt.Current_Directory>
/home/itssahil/PROJECTS/Mol_Feturizer/New_Systems/rnas/4FEO

>  <Rbt.Executable>
rbdock ($Id: //depot/dev/client3/rdock/2013.1/src/exe/rbdock.cxx#4 $)

>  <Rbt.Library>
libRbt.so (2013.1, Build901 2013/11/27)

>  <Rbt.Parameter_File>
/export/apps/rDock/src/rDock_2013.1_src/data/scripts/dock_solv.prm

>  <Rbt.Receptor>
prm/pocket_docking_3.prm

>  <SCORE>
-11.1865

>  <SCORE.INTER>
-11.1865

>  <SCORE.INTER.CONST>
1

>  <SCORE.INTER.POLAR>
0

>  <SCORE.INTER.ROT>
0

>  <SCORE.INTER.SOLV>
19.2423

>  <SCORE.INTER.VDW>
-17.4718

>  <SCORE.INTER.norm>
-1.01696

>  <SCORE.INTRA>
0

>  <SCORE.INTRA.DIHEDRAL>
0

>  <SCORE.INTRA.DIHEDRAL.0>
0

>  <SCORE.INTRA.POLAR>
0

>  <SCORE.INTRA.POLAR.0>
0

>  <SCORE.INTRA.REPUL>
0

>  <SCORE.INTRA.REPUL.0>
0

>  <SCORE.INTRA.SOLV>
0

>  <SCORE.INTRA.SOLV.lig_0>
-48.9252

>  <SCORE.INTRA.VDW>
0

>  <SCORE.INTRA.VDW.0>
0

>  <SCORE.INTRA.norm>
0

>  <SCORE.RESTR>
0

>  <SCORE.RESTR.CAVITY>
0

>  <SCORE.RESTR.norm>
0

>  <SCORE.SYSTEM>
0

>  <SCORE.SYSTEM.CONST>
0

>  <SCORE.SYSTEM.DIHEDRAL>
0

>  <SCORE.SYSTEM.SOLV>
0

>  <SCORE.SYSTEM.norm>
0

>  <SCORE.heavy>
11

>  <SCORE.norm>
-1.01696

>  <RMSD>
0.547

$$$$
ligand
 OpenBabel11021811493D
libRbt.so/2013.1/901 2013/11/27
 11 12  0  0  0  0  0  0  0  0999 V2000
   12.3635   11.6194    8.7639 N   0  0  0  0  0  0  0  0  0  0  0  0
   11.9445   12.8780    8.9900 C   0  0  0  0  0  0  0  0  0  0  0  0
   12.0499   13.4104   10.2670 N   0  0  0  0  0  0  0  0  0  0  0  0
   11.4249   13.6311    8.0079 N   0  0  0  0  0  0  0  0  0  0  0  0
   11.2966   13.1576    6.7583 C   0  0  0  0  0  0  0  0  0  0  0  0
   11.7215   11.8423    6.4650 C   0  0  0  0  0  0  0  0  0  0  0  0
   12.2739   11.0694    7.5340 C   0  0  0  0  0  0  0  0  0  0  0  0
   12.7085    9.7842    7.3202 N   0  0  0  0  0  0  0  0  0  0  0  0
   11.4771   11.6252    5.1410 N   0  0  0  0  0  0  0  0  0  0  0  0
   10.9431   12.6911    4.6247 C   0  0  0  0  0  0  0  0  0  0  0  0
   10.8125   13.6680    5.5791 N   0  0  0  0  0  0  0  0  0  0  0  0
  1  7  2  0  0  0  0
  1  2  1  0  0  0  0
  2  3  1  0  0  0  0
  2  4  2  0  0  0  0
  4  5  1  0  0  0  0
  5  6  2  0  0  0  0
  5 11  1  0  0  0  0
  6  7  1  0  0  0  0
  6  9  1  0  0  0  0
  7  8  1  0  0  0  0
  9 10  1  0  0  0  0
 10 11  2  0  0  0  0
M  END
>  <CHROM.1>
11.73515780,12.30552554,7.24693896,-1.00720832,1.14761787,-2.14391688

>  <Name>
ligand

>  <RI>
0

>  <Rbt.Current_Directory>
/home/itssahil/PROJECTS/Mol_Feturizer/New_Systems/rnas/4FEO

>  <Rbt.Executable>
rbdock ($Id: //depot/dev/client3/rdock/2013.1/src/exe/rbdock.cxx#4 $)

>  <Rbt.Library>
libRbt.so (2013.1, Build901 2013/11/27)

>  <Rbt.Parameter_File>
/export/apps/rDock/src/rDock_2013.1_src/data/scripts/dock_solv.prm

>  <Rbt.Receptor>
prm/pocket_docking_3.prm

>  <SCORE>
-11.091

>  <SCORE.INTER>
-11.091

>  <SCORE.INTER.CONST>
1

>  <SCORE.INTER.POLAR>
0

>  <SCORE.INTER.ROT>
0

>  <SCORE.INTER.SOLV>
18.9112

>  <SCORE.INTER.VDW>
-17.2977

>  <SCORE.INTER.norm>
-1.00827

>  <SCORE.INTRA>
0

>  <SCORE.INTRA.DIHEDRAL>
0

>  <SCORE.INTRA.DIHEDRAL.0>
0

>  <SCORE.INTRA.POLAR>
0

>  <SCORE.INTRA.POLAR.0>
0

>  <SCORE.INTRA.REPUL>
0

>  <SCORE.INTRA.REPUL.0>
0

>  <SCORE.INTRA.SOLV>
0

>  <SCORE.INTRA.SOLV.lig_0>
-48.9252

>  <SCORE.INTRA.VDW>
0

>  <SCORE.INTRA.VDW.0>
0

>  <SCORE.INTRA.norm>
0

>  <SCORE.RESTR>
0

>  <SCORE.RESTR.CAVITY>
0

>  <SCORE.RESTR.norm>
0

>  <SCORE.SYSTEM>
0

>  <SCORE.SYSTEM.CONST>
0

>  <SCORE.SYSTEM.DIHEDRAL>
0

>  <SCORE.SYSTEM.SOLV>
0

>  <SCORE.SYSTEM.norm>
0

>  <SCORE.heavy>
11

>  <SCORE.norm>
-1.00827

>  <RMSD>
0.548

$$$$
ligand
 OpenBabel11021811493D
libRbt.so/2013.1/901 2013/11/27
 11 12  0  0  0  0  0  0  0  0999 V2000
   12.3361   11.5413    8.7395 N   0  0  0  0  0  0  0  0  0  0  0  0
   11.9111   12.8028    8.9363 C   0  0  0  0  0  0  0  0  0  0  0  0
   12.0211   13.3681   10.1986 N   0  0  0  0  0  0  0  0  0  0  0  0
   11.3810   13.5278    7.9386 N   0  0  0  0  0  0  0  0  0  0  0  0
   11.2478   13.0219    6.7022 C   0  0  0  0  0  0  0  0  0  0  0  0
   11.6787   11.7020    6.4398 C   0  0  0  0  0  0  0  0  0  0  0  0
   12.2423   10.9598    7.5245 C   0  0  0  0  0  0  0  0  0  0  0  0
   12.6831    9.6720    7.3407 N   0  0  0  0  0  0  0  0  0  0  0  0
   11.4276   11.4500    5.1232 N   0  0  0  0  0  0  0  0  0  0  0  0
   10.8840   12.4993    4.5834 C   0  0  0  0  0  0  0  0  0  0  0  0
   10.7536   13.4994    5.5135 N   0  0  0  0  0  0  0  0  0  0  0  0
  1  7  2  0  0  0  0
  1  2  1  0  0  0  0
  2  3  1  0  0  0  0
  2  4  2  0  0  0  0
  4  5  1  0  0  0  0
  5  6  2  0  0  0  0
  5 11  1  0  0  0  0
  6  7  1  0  0  0  0
  6  9  1  0  0  0  0
  7  8  1  0  0  0  0
  9 10  1  0  0  0  0
 10 11  2  0  0  0  0
M  END
>  <CHROM.1>
11.69444047,12.18507641,7.20959052,-1.00258459,1.13931878,-2.17352000

>  <Name>
ligand

>  <RI>
0

>  <Rbt.Current_Directory>
/home/itssahil/PROJECTS/Mol_Feturizer/New_Systems/rnas/4FEO

>  <Rbt.Executable>
rbdock ($Id: //depot/dev/client3/rdock/2013.1/src/exe/rbdock.cxx#4 $)

>  <Rbt.Library>
libRbt.so (2013.1, Build901 2013/11/27)

>  <Rbt.Parameter_File>
/export/apps/rDock/src/rDock_2013.1_src/data/scripts/dock_solv.prm

>  <Rbt.Receptor>
prm/pocket_docking_4.prm

>  <SCORE>
-11.1791

>  <SCORE.INTER>
-11.1791

>  <SCORE.INTER.CONST>
1

>  <SCORE.INTER.POLAR>
0

>  <SCORE.INTER.ROT>
0

>  <SCORE.INTER.SOLV>
18.8691

>  <SCORE.INTER.VDW>
-17.3424

>  <SCORE.INTER.norm>
-1.01628

>  <SCORE.INTRA>
0

>  <SCORE.INTRA.DIHEDRAL>
0

>  <SCORE.INTRA.DIHEDRAL.0>
0

>  <SCORE.INTRA.POLAR>
0

>  <SCORE.INTRA.POLAR.0>
0

>  <SCORE.INTRA.REPUL>
0

>  <SCORE.INTRA.REPUL.0>
0

>  <SCORE.INTRA.SOLV>
0

>  <SCORE.INTRA.SOLV.lig_0>
-48.9252

>  <SCORE.INTRA.VDW>
0

>  <SCORE.INTRA.VDW.0>
0

>  <SCORE.INTRA.norm>
0

>  <SCORE.RESTR>
0

>  <SCORE.RESTR.CAVITY>
0

>  <SCORE.RESTR.norm>
0

>  <SCORE.SYSTEM>
0

>  <SCORE.SYSTEM.CONST>
0

>  <SCORE.SYSTEM.DIHEDRAL>
0

>  <SCORE.SYSTEM.SOLV>
0

>  <SCORE.SYSTEM.norm>
0

>  <SCORE.heavy>
11

>  <SCORE.norm>
-1.01628

>  <RMSD>
0.548

$$$$
ligand
 OpenBabel11021811493D
libRbt.so/2013.1/901 2013/11/27
 11 12  0  0  0  0  0  0  0  0999 V2000
   12.3408   11.4317    8.7497 N   0  0  0  0  0  0  0  0  0  0  0  0
   11.9604   12.6995    8.9921 C   0  0  0  0  0  0  0  0  0  0  0  0
   12.0947   13.2165   10.2726 N   0  0  0  0  0  0  0  0  0  0  0  0
   11.4517   13.4764    8.0228 N   0  0  0  0  0  0  0  0  0  0  0  0
   11.2964   13.0187    6.7704 C   0  0  0  0  0  0  0  0  0  0  0  0
   11.6805   11.6947    6.4602 C   0  0  0  0  0  0  0  0  0  0  0  0
   12.2223   10.8963    7.5158 C   0  0  0  0  0  0  0  0  0  0  0  0
   12.6177    9.6014    7.2853 N   0  0  0  0  0  0  0  0  0  0  0  0
   11.4157   11.4974    5.1370 N   0  0  0  0  0  0  0  0  0  0  0  0
   10.9066   12.5829    4.6366 C   0  0  0  0  0  0  0  0  0  0  0  0
   10.8144   13.5540    5.6014 N   0  0  0  0  0  0  0  0  0  0  0  0
  1  7  2  0  0  0  0
  1  2  1  0  0  0  0
  2  3  1  0  0  0  0
  2  4  2  0  0  0  0
  4  5  1  0  0  0  0
  5  6  2  0  0  0  0
  5 11  1  0  0  0  0
  6  7  1  0  0  0  0
  6  9  1  0  0  0  0
  7  8  1  0  0  0  0
  9 10  1  0  0  0  0
 10 11  2  0  0  0  0
M  END
>  <CHROM.1>
11.71585029,12.14992112,7.24622076,-0.94493168,1.16497311,-2.19151767

>  <Name>
ligand

>  <RI>
0

>  <Rbt.Current_Directory>
/home/itssahil/PROJECTS/Mol_Feturizer/New_Systems/rnas/4FEO

>  <Rbt.Executable>
rbdock ($Id: //depot/dev/client3/rdock/2013.1/src/exe/rbdock.cxx#4 $)

>  <Rbt.Library>
libRbt.so (2013.1, Build901 2013/11/27)

>  <Rbt.Parameter_File>
/export/apps/rDock/src/rDock_2013.1_src/data/scripts/dock_solv.prm

>  <Rbt.Receptor>
prm/pocket_docking_7.prm

>  <SCORE>
-11.1415

>  <SCORE.INTER>
-11.1415

>  <SCORE.INTER.CONST>
1

>  <SCORE.INTER.POLAR>
0

>  <SCORE.INTER.ROT>
0

>  <SCORE.INTER.SOLV>
18.8652

>  <SCORE.INTER.VDW>
-17.3161

>  <SCORE.INTER.norm>
-1.01287

>  <SCORE.INTRA>
0

>  <SCORE.INTRA.DIHEDRAL>
0

>  <SCORE.INTRA.DIHEDRAL.0>
0

>  <SCORE.INTRA.POLAR>
0

>  <SCORE.INTRA.POLAR.0>
0

>  <SCORE.INTRA.REPUL>
0

>  <SCORE.INTRA.REPUL.0>
0

>  <SCORE.INTRA.SOLV>
0

>  <SCORE.INTRA.SOLV.lig_0>
-48.9252

>  <SCORE.INTRA.VDW>
0

>  <SCORE.INTRA.VDW.0>
0

>  <SCORE.INTRA.norm>
0

>  <SCORE.RESTR>
0

>  <SCORE.RESTR.CAVITY>
0

>  <SCORE.RESTR.norm>
0

>  <SCORE.SYSTEM>
0

>  <SCORE.SYSTEM.CONST>
0

>  <SCORE.SYSTEM.DIHEDRAL>
0

>  <SCORE.SYSTEM.SOLV>
0

>  <SCORE.SYSTEM.norm>
0

>  <SCORE.heavy>
11

>  <SCORE.norm>
-1.01287

>  <RMSD>
0.548

$$$$
ligand
 OpenBabel11021811493D
libRbt.so/2013.1/901 2013/11/27
 11 12  0  0  0  0  0  0  0  0999 V2000
   12.3101   11.3864    8.7487 N   0  0  0  0  0  0  0  0  0  0  0  0
   11.9176   12.6474    9.0063 C   0  0  0  0  0  0  0  0  0  0  0  0
   12.0242   13.1421   10.2982 N   0  0  0  0  0  0  0  0  0  0  0  0
   11.4232   13.4388    8.0413 N   0  0  0  0  0  0  0  0  0  0  0  0
   11.2948   13.0028    6.7781 C   0  0  0  0  0  0  0  0  0  0  0  0
   11.6926   11.6868    6.4519 C   0  0  0  0  0  0  0  0  0  0  0  0
   12.2186   10.8725    7.5034 C   0  0  0  0  0  0  0  0  0  0  0  0
   12.6260    9.5841    7.2576 N   0  0  0  0  0  0  0  0  0  0  0  0
   11.4545   11.5117    5.1206 N   0  0  0  0  0  0  0  0  0  0  0  0
   10.9488   12.6032    4.6298 C   0  0  0  0  0  0  0  0  0  0  0  0
   10.8323   13.5563    5.6097 N   0  0  0  0  0  0  0  0  0  0  0  0
  1  7  2  0  0  0  0
  1  2  1  0  0  0  0
  2  3  1  0  0  0  0
  2  4  2  0  0  0  0
  4  5  1  0  0  0  0
  5  6  2  0  0  0  0
  5 11  1  0  0  0  0
  6  7  1  0  0  0  0
  6  9  1  0  0  0  0
  7  8  1  0  0  0  0
  9 10  1  0  0  0  0
 10 11  2  0  0  0  0
M  END
>  <CHROM.1>
11.71008038,12.12795787,7.24645959,-0.99405063,1.17098046,-2.12843734

>  <Name>
ligand

>  <RI>
0

>  <Rbt.Current_Directory>
/home/itssahil/PROJECTS/Mol_Feturizer/New_Systems/rnas/4FEO

>  <Rbt.Executable>
rbdock ($Id: //depot/dev/client3/rdock/2013.1/src/exe/rbdock.cxx#4 $)

>  <Rbt.Library>
libRbt.so (2013.1, Build901 2013/11/27)

>  <Rbt.Parameter_File>
/export/apps/rDock/src/rDock_2013.1_src/data/scripts/dock_solv.prm

>  <Rbt.Receptor>
prm/pocket_docking_6.prm

>  <SCORE>
-11.1268

>  <SCORE.INTER>
-11.1268

>  <SCORE.INTER.CONST>
1

>  <SCORE.INTER.POLAR>
0

>  <SCORE.INTER.ROT>
0

>  <SCORE.INTER.SOLV>
18.8548

>  <SCORE.INTER.VDW>
-17.3028

>  <SCORE.INTER.norm>
-1.01152

>  <SCORE.INTRA>
0

>  <SCORE.INTRA.DIHEDRAL>
0

>  <SCORE.INTRA.DIHEDRAL.0>
0

>  <SCORE.INTRA.POLAR>
0

>  <SCORE.INTRA.POLAR.0>
0

>  <SCORE.INTRA.REPUL>
0

>  <SCORE.INTRA.REPUL.0>
0

>  <SCORE.INTRA.SOLV>
0

>  <SCORE.INTRA.SOLV.lig_0>
-48.9252

>  <SCORE.INTRA.VDW>
0

>  <SCORE.INTRA.VDW.0>
0

>  <SCORE.INTRA.norm>
0

>  <SCORE.RESTR>
0

>  <SCORE.RESTR.CAVITY>
0

>  <SCORE.RESTR.norm>
0

>  <SCORE.SYSTEM>
0

>  <SCORE.SYSTEM.CONST>
0

>  <SCORE.SYSTEM.DIHEDRAL>
0

>  <SCORE.SYSTEM.SOLV>
0

>  <SCORE.SYSTEM.norm>
0

>  <SCORE.heavy>
11

>  <SCORE.norm>
-1.01152

>  <RMSD>
0.549

$$$$
ligand
 OpenBabel11021811493D
libRbt.so/2013.1/901 2013/11/27
 11 12  0  0  0  0  0  0  0  0999 V2000
   12.3191   11.5544    8.7491 N   0  0  0  0  0  0  0  0  0  0  0  0
   11.9274   12.8240    8.9624 C   0  0  0  0  0  0  0  0  0  0  0  0
   12.0427   13.3664   10.2342 N   0  0  0  0  0  0  0  0  0  0  0  0
   11.4255   13.5786    7.9721 N   0  0  0  0  0  0  0  0  0  0  0  0
   11.2885   13.0959    6.7271 C   0  0  0  0  0  0  0  0  0  0  0  0
   11.6850   11.7688    6.4472 C   0  0  0  0  0  0  0  0  0  0  0  0
   12.2191   10.9945    7.5245 C   0  0  0  0  0  0  0  0  0  0  0  0
   12.6259    9.6981    7.3238 N   0  0  0  0  0  0  0  0  0  0  0  0
   11.4376   11.5442    5.1250 N   0  0  0  0  0  0  0  0  0  0  0  0
   10.9275   12.6164    4.5976 C   0  0  0  0  0  0  0  0  0  0  0  0
   10.8172   13.6052    5.5422 N   0  0  0  0  0  0  0  0  0  0  0  0
  1  7  2  0  0  0  0
  1  2  1  0  0  0  0
  2  3  1  0  0  0  0
  2  4  2  0  0  0  0
  4  5  1  0  0  0  0
  5  6  2  0  0  0  0
  5 11  1  0  0  0  0
  6  7  1  0  0  0  0
  6  9  1  0  0  0  0
  7  8  1  0  0  0  0
  9 10  1  0  0  0  0
 10 11  2  0  0  0  0
M  END
>  <CHROM.1>
11.70777803,12.23925456,7.22461027,-0.97982943,1.16647453,-2.17872500

>  <Name>
ligand

>  <RI>
0

>  <Rbt.Current_Directory>
/home/itssahil/PROJECTS/Mol_Feturizer/New_Systems/rnas/4FEO

>  <Rbt.Executable>
rbdock ($Id: //depot/dev/client3/rdock/2013.1/src/exe/rbdock.cxx#4 $)

>  <Rbt.Library>
libRbt.so (2013.1, Build901 2013/11/27)

>  <Rbt.Parameter_File>
/export/apps/rDock/src/rDock_2013.1_src/data/scripts/dock_solv.prm

>  <Rbt.Receptor>
prm/pocket_docking_4.prm

>  <SCORE>
-11.2005

>  <SCORE.INTER>
-11.2005

>  <SCORE.INTER.CONST>
1

>  <SCORE.INTER.POLAR>
0

>  <SCORE.INTER.ROT>
0

>  <SCORE.INTER.SOLV>
19.0827

>  <SCORE.INTER.VDW>
-17.4279

>  <SCORE.INTER.norm>
-1.01822

>  <SCORE.INTRA>
0

>  <SCORE.INTRA.DIHEDRAL>
0

>  <SCORE.INTRA.DIHEDRAL.0>
0

>  <SCORE.INTRA.POLAR>
0

>  <SCORE.INTRA.POLAR.0>
0

>  <SCORE.INTRA.REPUL>
0

>  <SCORE.INTRA.REPUL.0>
0

>  <SCORE.INTRA.SOLV>
0

>  <SCORE.INTRA.SOLV.lig_0>
-48.9252

>  <SCORE.INTRA.VDW>
0

>  <SCORE.INTRA.VDW.0>
0

>  <SCORE.INTRA.norm>
0

>  <SCORE.RESTR>
0

>  <SCORE.RESTR.CAVITY>
0

>  <SCORE.RESTR.norm>
0

>  <SCORE.SYSTEM>
0

>  <SCORE.SYSTEM.CONST>
0

>  <SCORE.SYSTEM.DIHEDRAL>
0

>  <SCORE.SYSTEM.SOLV>
0

>  <SCORE.SYSTEM.norm>
0

>  <SCORE.heavy>
11

>  <SCORE.norm>
-1.01822

>  <RMSD>
0.550

$$$$
ligand
 OpenBabel11021811493D
libRbt.so/2013.1/901 2013/11/27
 11 12  0  0  0  0  0  0  0  0999 V2000
   12.3185   11.5571    8.7480 N   0  0  0  0  0  0  0  0  0  0  0  0
   11.9256   12.8264    8.9607 C   0  0  0  0  0  0  0  0  0  0  0  0
   12.0406   13.3696   10.2322 N   0  0  0  0  0  0  0  0  0  0  0  0
   11.4228   13.5801    7.9702 N   0  0  0  0  0  0  0  0  0  0  0  0
   11.2861   13.0965    6.7254 C   0  0  0  0  0  0  0  0  0  0  0  0
   11.6839   11.7697    6.4461 C   0  0  0  0  0  0  0  0  0  0  0  0
   12.2189   10.9965    7.5237 C   0  0  0  0  0  0  0  0  0  0  0  0
   12.6269    9.7004    7.3236 N   0  0  0  0  0  0  0  0  0  0  0  0
   11.4365   11.5442    5.1241 N   0  0  0  0  0  0  0  0  0  0  0  0
   10.9253   12.6156    4.5962 C   0  0  0  0  0  0  0  0  0  0  0  0
   10.8141   13.6048    5.5403 N   0  0  0  0  0  0  0  0  0  0  0  0
  1  7  2  0  0  0  0
  1  2  1  0  0  0  0
  2  3  1  0  0  0  0
  2  4  2  0  0  0  0
  4  5  1  0  0  0  0
  5  6  2  0  0  0  0
  5 11  1  0  0  0  0
  6  7  1  0  0  0  0
  6  9  1  0  0  0  0
  7  8  1  0  0  0  0
  9 10  1  0  0  0  0
 10 11  2  0  0  0  0
M  END
>  <CHROM.1>
11.70629386,12.24057393,7.22328879,-0.98093742,1.16557959,-2.17822500

>  <Name>
ligand

>  <RI>
0

>  <Rbt.Current_Directory>
/home/itssahil/PROJECTS/Mol_Feturizer/New_Systems/rnas/4FEO

>  <Rbt.Executable>
rbdock ($Id: //depot/dev/client3/rdock/2013.1/src/exe/rbdock.cxx#4 $)

>  <Rbt.Library>
libRbt.so (2013.1, Build901 2013/11/27)

>  <Rbt.Parameter_File>
/export/apps/rDock/src/rDock_2013.1_src/data/scripts/dock_solv.prm

>  <Rbt.Receptor>
prm/pocket_docking_6.prm

>  <SCORE>
-11.1995

>  <SCORE.INTER>
-11.1995

>  <SCORE.INTER.CONST>
1

>  <SCORE.INTER.POLAR>
0

>  <SCORE.INTER.ROT>
0

>  <SCORE.INTER.SOLV>
19.086

>  <SCORE.INTER.VDW>
-17.4283

>  <SCORE.INTER.norm>
-1.01813

>  <SCORE.INTRA>
0

>  <SCORE.INTRA.DIHEDRAL>
0

>  <SCORE.INTRA.DIHEDRAL.0>
0

>  <SCORE.INTRA.POLAR>
0

>  <SCORE.INTRA.POLAR.0>
0

>  <SCORE.INTRA.REPUL>
0

>  <SCORE.INTRA.REPUL.0>
0

>  <SCORE.INTRA.SOLV>
0

>  <SCORE.INTRA.SOLV.lig_0>
-48.9252

>  <SCORE.INTRA.VDW>
0

>  <SCORE.INTRA.VDW.0>
0

>  <SCORE.INTRA.norm>
0

>  <SCORE.RESTR>
0

>  <SCORE.RESTR.CAVITY>
0

>  <SCORE.RESTR.norm>
0

>  <SCORE.SYSTEM>
0

>  <SCORE.SYSTEM.CONST>
0

>  <SCORE.SYSTEM.DIHEDRAL>
0

>  <SCORE.SYSTEM.SOLV>
0

>  <SCORE.SYSTEM.norm>
0

>  <SCORE.heavy>
11

>  <SCORE.norm>
-1.01813

>  <RMSD>
0.551

$$$$
ligand
 OpenBabel11021811493D
libRbt.so/2013.1/901 2013/11/27
 11 12  0  0  0  0  0  0  0  0999 V2000
   12.2952   11.4939    8.7370 N   0  0  0  0  0  0  0  0  0  0  0  0
   11.8981   12.7611    8.9545 C   0  0  0  0  0  0  0  0  0  0  0  0
   12.0105   13.2995   10.2283 N   0  0  0  0  0  0  0  0  0  0  0  0
   11.3936   13.5171    7.9667 N   0  0  0  0  0  0  0  0  0  0  0  0
   11.2591   13.0381    6.7199 C   0  0  0  0  0  0  0  0  0  0  0  0
   11.6614   11.7137    6.4356 C   0  0  0  0  0  0  0  0  0  0  0  0
   12.1982   10.9379    7.5104 C   0  0  0  0  0  0  0  0  0  0  0  0
   12.6105    9.6439    7.3054 N   0  0  0  0  0  0  0  0  0  0  0  0
   11.4156   11.4927    5.1125 N   0  0  0  0  0  0  0  0  0  0  0  0
   10.9013   12.5645    4.5885 C   0  0  0  0  0  0  0  0  0  0  0  0
   10.7863   13.5496    5.5366 N   0  0  0  0  0  0  0  0  0  0  0  0
  1  7  2  0  0  0  0
  1  2  1  0  0  0  0
  2  3  1  0  0  0  0
  2  4  2  0  0  0  0
  4  5  1  0  0  0  0
  5  6  2  0  0  0  0
  5 11  1  0  0  0  0
  6  7  1  0  0  0  0
  6  9  1  0  0  0  0
  7  8  1  0  0  0  0
  9 10  1  0  0  0  0
 10 11  2  0  0  0  0
M  END
>  <CHROM.1>
11.68178490,12.18151878,7.21464115,-0.98687914,1.16330852,-2.16875939

>  <Name>
ligand

>  <RI>
0

>  <Rbt.Current_Directory>
/home/itssahil/PROJECTS/Mol_Feturizer/New_Systems/rnas/4FEO

>  <Rbt.Executable>
rbdock ($Id: //depot/dev/client3/rdock/2013.1/src/exe/rbdock.cxx#4 $)

>  <Rbt.Library>
libRbt.so (2013.1, Build901 2013/11/27)

>  <Rbt.Parameter_File>
/export/apps/rDock/src/rDock_2013.1_src/data/scripts/dock_solv.prm

>  <Rbt.Receptor>
prm/pocket_docking_7.prm

>  <SCORE>
-11.1597

>  <SCORE.INTER>
-11.1597

>  <SCORE.INTER.CONST>
1

>  <SCORE.INTER.POLAR>
0

>  <SCORE.INTER.ROT>
0

>  <SCORE.INTER.SOLV>
19.0599

>  <SCORE.INTER.VDW>
-17.3931

>  <SCORE.INTER.norm>
-1.01452

>  <SCORE.INTRA>
0

>  <SCORE.INTRA.DIHEDRAL>
0

>  <SCORE.INTRA.DIHEDRAL.0>
0

>  <SCORE.INTRA.POLAR>
0

>  <SCORE.INTRA.POLAR.0>
0

>  <SCORE.INTRA.REPUL>
0

>  <SCORE.INTRA.REPUL.0>
0

>  <SCORE.INTRA.SOLV>
0

>  <SCORE.INTRA.SOLV.lig_0>
-48.9252

>  <SCORE.INTRA.VDW>
0

>  <SCORE.INTRA.VDW.0>
0

>  <SCORE.INTRA.norm>
0

>  <SCORE.RESTR>
0

>  <SCORE.RESTR.CAVITY>
0

>  <SCORE.RESTR.norm>
0

>  <SCORE.SYSTEM>
0

>  <SCORE.SYSTEM.CONST>
0

>  <SCORE.SYSTEM.DIHEDRAL>
0

>  <SCORE.SYSTEM.SOLV>
0

>  <SCORE.SYSTEM.norm>
0

>  <SCORE.heavy>
11

>  <SCORE.norm>
-1.01452

>  <RMSD>
0.551

$$$$
ligand
 OpenBabel11021811493D
libRbt.so/2013.1/901 2013/11/27
 11 12  0  0  0  0  0  0  0  0999 V2000
   12.3150   11.5187    8.7401 N   0  0  0  0  0  0  0  0  0  0  0  0
   11.9124   12.7865    8.9433 C   0  0  0  0  0  0  0  0  0  0  0  0
   12.0245   13.3405   10.2104 N   0  0  0  0  0  0  0  0  0  0  0  0
   11.4028   13.5285    7.9475 N   0  0  0  0  0  0  0  0  0  0  0  0
   11.2686   13.0342    6.7066 C   0  0  0  0  0  0  0  0  0  0  0  0
   11.6764   11.7084    6.4373 C   0  0  0  0  0  0  0  0  0  0  0  0
   12.2185   10.9478    7.5203 C   0  0  0  0  0  0  0  0  0  0  0  0
   12.6364    9.6534    7.3299 N   0  0  0  0  0  0  0  0  0  0  0  0
   11.4295   11.4707    5.1173 N   0  0  0  0  0  0  0  0  0  0  0  0
   10.9095   12.5339    4.5816 C   0  0  0  0  0  0  0  0  0  0  0  0
   10.7915   13.5295    5.5181 N   0  0  0  0  0  0  0  0  0  0  0  0
  1  7  2  0  0  0  0
  1  2  1  0  0  0  0
  2  3  1  0  0  0  0
  2  4  2  0  0  0  0
  4  5  1  0  0  0  0
  5  6  2  0  0  0  0
  5 11  1  0  0  0  0
  6  7  1  0  0  0  0
  6  9  1  0  0  0  0
  7  8  1  0  0  0  0
  9 10  1  0  0  0  0
 10 11  2  0  0  0  0
M  END
>  <CHROM.1>
11.69596569,12.18547497,7.21072372,-0.98998531,1.15861156,-2.17771169

>  <Name>
ligand

>  <RI>
0

>  <Rbt.Current_Directory>
/home/itssahil/PROJECTS/Mol_Feturizer/New_Systems/rnas/4FEO

>  <Rbt.Executable>
rbdock ($Id: //depot/dev/client3/rdock/2013.1/src/exe/rbdock.cxx#4 $)

>  <Rbt.Library>
libRbt.so (2013.1, Build901 2013/11/27)

>  <Rbt.Parameter_File>
/export/apps/rDock/src/rDock_2013.1_src/data/scripts/dock_solv.prm

>  <Rbt.Receptor>
prm/pocket_docking_8.prm

>  <SCORE>
-11.1244

>  <SCORE.INTER>
-11.1244

>  <SCORE.INTER.CONST>
1

>  <SCORE.INTER.POLAR>
0

>  <SCORE.INTER.ROT>
0

>  <SCORE.INTER.SOLV>
19.007

>  <SCORE.INTER.VDW>
-17.352

>  <SCORE.INTER.norm>
-1.01131

>  <SCORE.INTRA>
0

>  <SCORE.INTRA.DIHEDRAL>
0

>  <SCORE.INTRA.DIHEDRAL.0>
0

>  <SCORE.INTRA.POLAR>
0

>  <SCORE.INTRA.POLAR.0>
0

>  <SCORE.INTRA.REPUL>
0

>  <SCORE.INTRA.REPUL.0>
0

>  <SCORE.INTRA.SOLV>
0

>  <SCORE.INTRA.SOLV.lig_0>
-48.9252

>  <SCORE.INTRA.VDW>
0

>  <SCORE.INTRA.VDW.0>
0

>  <SCORE.INTRA.norm>
0

>  <SCORE.RESTR>
0

>  <SCORE.RESTR.CAVITY>
0

>  <SCORE.RESTR.norm>
0

>  <SCORE.SYSTEM>
0

>  <SCORE.SYSTEM.CONST>
0

>  <SCORE.SYSTEM.DIHEDRAL>
0

>  <SCORE.SYSTEM.SOLV>
0

>  <SCORE.SYSTEM.norm>
0

>  <SCORE.heavy>
11

>  <SCORE.norm>
-1.01131

>  <RMSD>
0.551

$$$$
ligand
 OpenBabel11021811493D
libRbt.so/2013.1/901 2013/11/27
 11 12  0  0  0  0  0  0  0  0999 V2000
   12.3043   11.5000    8.7379 N   0  0  0  0  0  0  0  0  0  0  0  0
   11.9109   12.7691    8.9504 C   0  0  0  0  0  0  0  0  0  0  0  0
   12.0265   13.3129   10.2216 N   0  0  0  0  0  0  0  0  0  0  0  0
   11.4070   13.5221    7.9599 N   0  0  0  0  0  0  0  0  0  0  0  0
   11.2696   13.0381    6.7154 C   0  0  0  0  0  0  0  0  0  0  0  0
   11.6679   11.7113    6.4364 C   0  0  0  0  0  0  0  0  0  0  0  0
   12.2041   10.9388    7.5139 C   0  0  0  0  0  0  0  0  0  0  0  0
   12.6126    9.6429    7.3140 N   0  0  0  0  0  0  0  0  0  0  0  0
   11.4197   11.4852    5.1146 N   0  0  0  0  0  0  0  0  0  0  0  0
   10.9076   12.5561    4.5866 C   0  0  0  0  0  0  0  0  0  0  0  0
   10.7965   13.5456    5.5305 N   0  0  0  0  0  0  0  0  0  0  0  0
  1  7  2  0  0  0  0
  1  2  1  0  0  0  0
  2  3  1  0  0  0  0
  2  4  2  0  0  0  0
  4  5  1  0  0  0  0
  5  6  2  0  0  0  0
  5 11  1  0  0  0  0
  6  7  1  0  0  0  0
  6  9  1  0  0  0  0
  7  8  1  0  0  0  0
  9 10  1  0  0  0  0
 10 11  2  0  0  0  0
M  END
>  <CHROM.1>
11.69064133,12.18252319,7.21333743,-0.98020479,1.16474419,-2.17927737

>  <Name>
ligand

>  <RI>
0

>  <Rbt.Current_Directory>
/home/itssahil/PROJECTS/Mol_Feturizer/New_Systems/rnas/4FEO

>  <Rbt.Executable>
rbdock ($Id: //depot/dev/client3/rdock/2013.1/src/exe/rbdock.cxx#4 $)

>  <Rbt.Library>
libRbt.so (2013.1, Build901 2013/11/27)

>  <Rbt.Parameter_File>
/export/apps/rDock/src/rDock_2013.1_src/data/scripts/dock_solv.prm

>  <Rbt.Receptor>
prm/pocket_docking_3.prm

>  <SCORE>
-11.1622

>  <SCORE.INTER>
-11.1622

>  <SCORE.INTER.CONST>
1

>  <SCORE.INTER.POLAR>
0

>  <SCORE.INTER.ROT>
0

>  <SCORE.INTER.SOLV>
19.0531

>  <SCORE.INTER.VDW>
-17.3925

>  <SCORE.INTER.norm>
-1.01475

>  <SCORE.INTRA>
0

>  <SCORE.INTRA.DIHEDRAL>
0

>  <SCORE.INTRA.DIHEDRAL.0>
0

>  <SCORE.INTRA.POLAR>
0

>  <SCORE.INTRA.POLAR.0>
0

>  <SCORE.INTRA.REPUL>
0

>  <SCORE.INTRA.REPUL.0>
0

>  <SCORE.INTRA.SOLV>
0

>  <SCORE.INTRA.SOLV.lig_0>
-48.9252

>  <SCORE.INTRA.VDW>
0

>  <SCORE.INTRA.VDW.0>
0

>  <SCORE.INTRA.norm>
0

>  <SCORE.RESTR>
0

>  <SCORE.RESTR.CAVITY>
0

>  <SCORE.RESTR.norm>
0

>  <SCORE.SYSTEM>
0

>  <SCORE.SYSTEM.CONST>
0

>  <SCORE.SYSTEM.DIHEDRAL>
0

>  <SCORE.SYSTEM.SOLV>
0

>  <SCORE.SYSTEM.norm>
0

>  <SCORE.heavy>
11

>  <SCORE.norm>
-1.01475

>  <RMSD>
0.553

$$$$
ligand
 OpenBabel11021811493D
libRbt.so/2013.1/901 2013/11/27
 11 12  0  0  0  0  0  0  0  0999 V2000
   12.2939   11.5659    8.7535 N   0  0  0  0  0  0  0  0  0  0  0  0
   11.9175   12.8415    8.9583 C   0  0  0  0  0  0  0  0  0  0  0  0
   12.0308   13.3881   10.2285 N   0  0  0  0  0  0  0  0  0  0  0  0
   11.4327   13.5982    7.9611 N   0  0  0  0  0  0  0  0  0  0  0  0
   11.2983   13.1117    6.7172 C   0  0  0  0  0  0  0  0  0  0  0  0
   11.6793   11.7783    6.4461 C   0  0  0  0  0  0  0  0  0  0  0  0
   12.1954   11.0019    7.5306 C   0  0  0  0  0  0  0  0  0  0  0  0
   12.5864    9.6994    7.3386 N   0  0  0  0  0  0  0  0  0  0  0  0
   11.4385   11.5510    5.1231 N   0  0  0  0  0  0  0  0  0  0  0  0
   10.9464   12.6274    4.5873 C   0  0  0  0  0  0  0  0  0  0  0  0
   10.8423   13.6218    5.5267 N   0  0  0  0  0  0  0  0  0  0  0  0
  1  7  2  0  0  0  0
  1  2  1  0  0  0  0
  2  3  1  0  0  0  0
  2  4  2  0  0  0  0
  4  5  1  0  0  0  0
  5  6  2  0  0  0  0
  5 11  1  0  0  0  0
  6  7  1  0  0  0  0
  6  9  1  0  0  0  0
  7  8  1  0  0  0  0
  9 10  1  0  0  0  0
 10 11  2  0  0  0  0
M  END
>  <CHROM.1>
11.70266276,12.25188432,7.22156306,-0.97554186,1.18140751,-2.18715485

>  <Name>
ligand

>  <RI>
0

>  <Rbt.Current_Directory>
/home/itssahil/PROJECTS/Mol_Feturizer/New_Systems/rnas/4FEO

>  <Rbt.Executable>
rbdock ($Id: //depot/dev/client3/rdock/2013.1/src/exe/rbdock.cxx#4 $)

>  <Rbt.Library>
libRbt.so (2013.1, Build901 2013/11/27)

>  <Rbt.Parameter_File>
/export/apps/rDock/src/rDock_2013.1_src/data/scripts/dock_solv.prm

>  <Rbt.Receptor>
prm/pocket_docking_3.prm

>  <SCORE>
-11.1657

>  <SCORE.INTER>
-11.1657

>  <SCORE.INTER.CONST>
1

>  <SCORE.INTER.POLAR>
0

>  <SCORE.INTER.ROT>
0

>  <SCORE.INTER.SOLV>
19.2625

>  <SCORE.INTER.VDW>
-17.4647

>  <SCORE.INTER.norm>
-1.01507

>  <SCORE.INTRA>
0

>  <SCORE.INTRA.DIHEDRAL>
0

>  <SCORE.INTRA.DIHEDRAL.0>
0

>  <SCORE.INTRA.POLAR>
0

>  <SCORE.INTRA.POLAR.0>
0

>  <SCORE.INTRA.REPUL>
0

>  <SCORE.INTRA.REPUL.0>
0

>  <SCORE.INTRA.SOLV>
0

>  <SCORE.INTRA.SOLV.lig_0>
-48.9252

>  <SCORE.INTRA.VDW>
0

>  <SCORE.INTRA.VDW.0>
0

>  <SCORE.INTRA.norm>
0

>  <SCORE.RESTR>
0

>  <SCORE.RESTR.CAVITY>
0

>  <SCORE.RESTR.norm>
0

>  <SCORE.SYSTEM>
0

>  <SCORE.SYSTEM.CONST>
0

>  <SCORE.SYSTEM.DIHEDRAL>
0

>  <SCORE.SYSTEM.SOLV>
0

>  <SCORE.SYSTEM.norm>
0

>  <SCORE.heavy>
11

>  <SCORE.norm>
-1.01507

>  <RMSD>
0.553

$$$$
ligand
 OpenBabel11021811493D
libRbt.so/2013.1/901 2013/11/27
 11 12  0  0  0  0  0  0  0  0999 V2000
   12.3108   11.5561    8.7449 N   0  0  0  0  0  0  0  0  0  0  0  0
   11.9160   12.8249    8.9566 C   0  0  0  0  0  0  0  0  0  0  0  0
   12.0271   13.3681   10.2285 N   0  0  0  0  0  0  0  0  0  0  0  0
   11.4150   13.5781    7.9649 N   0  0  0  0  0  0  0  0  0  0  0  0
   11.2819   13.0945    6.7197 C   0  0  0  0  0  0  0  0  0  0  0  0
   11.6819   11.7681    6.4414 C   0  0  0  0  0  0  0  0  0  0  0  0
   12.2149   10.9954    7.5203 C   0  0  0  0  0  0  0  0  0  0  0  0
   12.6248    9.6998    7.3211 N   0  0  0  0  0  0  0  0  0  0  0  0
   11.4382   11.5425    5.1186 N   0  0  0  0  0  0  0  0  0  0  0  0
   10.9272   12.6134    4.5895 C   0  0  0  0  0  0  0  0  0  0  0  0
   10.8125   13.6024    5.5334 N   0  0  0  0  0  0  0  0  0  0  0  0
  1  7  2  0  0  0  0
  1  2  1  0  0  0  0
  2  3  1  0  0  0  0
  2  4  2  0  0  0  0
  4  5  1  0  0  0  0
  5  6  2  0  0  0  0
  5 11  1  0  0  0  0
  6  7  1  0  0  0  0
  6  9  1  0  0  0  0
  7  8  1  0  0  0  0
  9 10  1  0  0  0  0
 10 11  2  0  0  0  0
M  END
>  <CHROM.1>
11.70180253,12.23898314,7.21861331,-0.98788045,1.16617339,-2.17176650

>  <Name>
ligand

>  <RI>
0

>  <Rbt.Current_Directory>
/home/itssahil/PROJECTS/Mol_Feturizer/New_Systems/rnas/4FEO

>  <Rbt.Executable>
rbdock ($Id: //depot/dev/client3/rdock/2013.1/src/exe/rbdock.cxx#4 $)

>  <Rbt.Library>
libRbt.so (2013.1, Build901 2013/11/27)

>  <Rbt.Parameter_File>
/export/apps/rDock/src/rDock_2013.1_src/data/scripts/dock_solv.prm

>  <Rbt.Receptor>
prm/pocket_docking_3.prm

>  <SCORE>
-11.198

>  <SCORE.INTER>
-11.198

>  <SCORE.INTER.CONST>
1

>  <SCORE.INTER.POLAR>
0

>  <SCORE.INTER.ROT>
0

>  <SCORE.INTER.SOLV>
19.1091

>  <SCORE.INTER.VDW>
-17.435

>  <SCORE.INTER.norm>
-1.018

>  <SCORE.INTRA>
0

>  <SCORE.INTRA.DIHEDRAL>
0

>  <SCORE.INTRA.DIHEDRAL.0>
0

>  <SCORE.INTRA.POLAR>
0

>  <SCORE.INTRA.POLAR.0>
0

>  <SCORE.INTRA.REPUL>
0

>  <SCORE.INTRA.REPUL.0>
0

>  <SCORE.INTRA.SOLV>
0

>  <SCORE.INTRA.SOLV.lig_0>
-48.9252

>  <SCORE.INTRA.VDW>
0

>  <SCORE.INTRA.VDW.0>
0

>  <SCORE.INTRA.norm>
0

>  <SCORE.RESTR>
0

>  <SCORE.RESTR.CAVITY>
0

>  <SCORE.RESTR.norm>
0

>  <SCORE.SYSTEM>
0

>  <SCORE.SYSTEM.CONST>
0

>  <SCORE.SYSTEM.DIHEDRAL>
0

>  <SCORE.SYSTEM.SOLV>
0

>  <SCORE.SYSTEM.norm>
0

>  <SCORE.heavy>
11

>  <SCORE.norm>
-1.018

>  <RMSD>
0.553

$$$$
ligand
 OpenBabel11021811493D
libRbt.so/2013.1/901 2013/11/27
 11 12  0  0  0  0  0  0  0  0999 V2000
   12.2984   11.5640    8.7524 N   0  0  0  0  0  0  0  0  0  0  0  0
   11.9182   12.8380    8.9597 C   0  0  0  0  0  0  0  0  0  0  0  0
   12.0292   13.3824   10.2310 N   0  0  0  0  0  0  0  0  0  0  0  0
   11.4317   13.5954    7.9638 N   0  0  0  0  0  0  0  0  0  0  0  0
   11.2994   13.1110    6.7188 C   0  0  0  0  0  0  0  0  0  0  0  0
   11.6844   11.7793    6.4452 C   0  0  0  0  0  0  0  0  0  0  0  0
   12.2022   11.0022    7.5284 C   0  0  0  0  0  0  0  0  0  0  0  0
   12.5971    9.7012    7.3340 N   0  0  0  0  0  0  0  0  0  0  0  0
   11.4450   11.5540    5.1216 N   0  0  0  0  0  0  0  0  0  0  0  0
   10.9501   12.6300    4.5877 C   0  0  0  0  0  0  0  0  0  0  0  0
   10.8425   13.6222    5.5291 N   0  0  0  0  0  0  0  0  0  0  0  0
  1  7  2  0  0  0  0
  1  2  1  0  0  0  0
  2  3  1  0  0  0  0
  2  4  2  0  0  0  0
  4  5  1  0  0  0  0
  5  6  2  0  0  0  0
  5 11  1  0  0  0  0
  6  7  1  0  0  0  0
  6  9  1  0  0  0  0
  7  8  1  0  0  0  0
  9 10  1  0  0  0  0
 10 11  2  0  0  0  0
M  END
>  <CHROM.1>
11.70599885,12.25135923,7.22163443,-0.98110243,1.17933788,-2.17996595

>  <Name>
ligand

>  <RI>
0

>  <Rbt.Current_Directory>
/home/itssahil/PROJECTS/Mol_Feturizer/New_Systems/rnas/4FEO

>  <Rbt.Executable>
rbdock ($Id: //depot/dev/client3/rdock/2013.1/src/exe/rbdock.cxx#4 $)

>  <Rbt.Library>
libRbt.so (2013.1, Build901 2013/11/27)

>  <Rbt.Parameter_File>
/export/apps/rDock/src/rDock_2013.1_src/data/scripts/dock_solv.prm

>  <Rbt.Receptor>
prm/pocket_docking_3.prm

>  <SCORE>
-11.1646

>  <SCORE.INTER>
-11.1646

>  <SCORE.INTER.CONST>
1

>  <SCORE.INTER.POLAR>
0

>  <SCORE.INTER.ROT>
0

>  <SCORE.INTER.SOLV>
19.2245

>  <SCORE.INTER.VDW>
-17.4512

>  <SCORE.INTER.norm>
-1.01496

>  <SCORE.INTRA>
0

>  <SCORE.INTRA.DIHEDRAL>
0

>  <SCORE.INTRA.DIHEDRAL.0>
0

>  <SCORE.INTRA.POLAR>
0

>  <SCORE.INTRA.POLAR.0>
0

>  <SCORE.INTRA.REPUL>
0

>  <SCORE.INTRA.REPUL.0>
0

>  <SCORE.INTRA.SOLV>
0

>  <SCORE.INTRA.SOLV.lig_0>
-48.9252

>  <SCORE.INTRA.VDW>
0

>  <SCORE.INTRA.VDW.0>
0

>  <SCORE.INTRA.norm>
0

>  <SCORE.RESTR>
0

>  <SCORE.RESTR.CAVITY>
0

>  <SCORE.RESTR.norm>
0

>  <SCORE.SYSTEM>
0

>  <SCORE.SYSTEM.CONST>
0

>  <SCORE.SYSTEM.DIHEDRAL>
0

>  <SCORE.SYSTEM.SOLV>
0

>  <SCORE.SYSTEM.norm>
0

>  <SCORE.heavy>
11

>  <SCORE.norm>
-1.01496

>  <RMSD>
0.553

$$$$
ligand
 OpenBabel11021811493D
libRbt.so/2013.1/901 2013/11/27
 11 12  0  0  0  0  0  0  0  0999 V2000
   12.3109   11.5054    8.7365 N   0  0  0  0  0  0  0  0  0  0  0  0
   11.9151   12.7739    8.9483 C   0  0  0  0  0  0  0  0  0  0  0  0
   12.0350   13.3205   10.2180 N   0  0  0  0  0  0  0  0  0  0  0  0
   11.4047   13.5237    7.9587 N   0  0  0  0  0  0  0  0  0  0  0  0
   11.2629   13.0368    6.7158 C   0  0  0  0  0  0  0  0  0  0  0  0
   11.6634   11.7106    6.4375 C   0  0  0  0  0  0  0  0  0  0  0  0
   12.2066   10.9416    7.5141 C   0  0  0  0  0  0  0  0  0  0  0  0
   12.6176    9.6464    7.3149 N   0  0  0  0  0  0  0  0  0  0  0  0
   11.4098   11.4812    5.1173 N   0  0  0  0  0  0  0  0  0  0  0  0
   10.8925   12.5497    4.5896 C   0  0  0  0  0  0  0  0  0  0  0  0
   10.7831   13.5408    5.5321 N   0  0  0  0  0  0  0  0  0  0  0  0
  1  7  2  0  0  0  0
  1  2  1  0  0  0  0
  2  3  1  0  0  0  0
  2  4  2  0  0  0  0
  4  5  1  0  0  0  0
  5  6  2  0  0  0  0
  5 11  1  0  0  0  0
  6  7  1  0  0  0  0
  6  9  1  0  0  0  0
  7  8  1  0  0  0  0
  9 10  1  0  0  0  0
 10 11  2  0  0  0  0
M  END
>  <CHROM.1>
11.68846962,12.18336488,7.21347388,-0.97464588,1.15996076,-2.18633136

>  <Name>
ligand

>  <RI>
0

>  <Rbt.Current_Directory>
/home/itssahil/PROJECTS/Mol_Feturizer/New_Systems/rnas/4FEO

>  <Rbt.Executable>
rbdock ($Id: //depot/dev/client3/rdock/2013.1/src/exe/rbdock.cxx#4 $)

>  <Rbt.Library>
libRbt.so (2013.1, Build901 2013/11/27)

>  <Rbt.Parameter_File>
/export/apps/rDock/src/rDock_2013.1_src/data/scripts/dock_solv.prm

>  <Rbt.Receptor>
prm/pocket_docking_8.prm

>  <SCORE>
-11.1587

>  <SCORE.INTER>
-11.1587

>  <SCORE.INTER.CONST>
1

>  <SCORE.INTER.POLAR>
0

>  <SCORE.INTER.ROT>
0

>  <SCORE.INTER.SOLV>
19.0289

>  <SCORE.INTER.VDW>
-17.3821

>  <SCORE.INTER.norm>
-1.01443

>  <SCORE.INTRA>
0

>  <SCORE.INTRA.DIHEDRAL>
0

>  <SCORE.INTRA.DIHEDRAL.0>
0

>  <SCORE.INTRA.POLAR>
0

>  <SCORE.INTRA.POLAR.0>
0

>  <SCORE.INTRA.REPUL>
0

>  <SCORE.INTRA.REPUL.0>
0

>  <SCORE.INTRA.SOLV>
0

>  <SCORE.INTRA.SOLV.lig_0>
-48.9252

>  <SCORE.INTRA.VDW>
0

>  <SCORE.INTRA.VDW.0>
0

>  <SCORE.INTRA.norm>
0

>  <SCORE.RESTR>
0

>  <SCORE.RESTR.CAVITY>
0

>  <SCORE.RESTR.norm>
0

>  <SCORE.SYSTEM>
0

>  <SCORE.SYSTEM.CONST>
0

>  <SCORE.SYSTEM.DIHEDRAL>
0

>  <SCORE.SYSTEM.SOLV>
0

>  <SCORE.SYSTEM.norm>
0

>  <SCORE.heavy>
11

>  <SCORE.norm>
-1.01443

>  <RMSD>
0.553

$$$$
ligand
 OpenBabel11021811493D
libRbt.so/2013.1/901 2013/11/27
 11 12  0  0  0  0  0  0  0  0999 V2000
   12.3123   11.5135    8.7368 N   0  0  0  0  0  0  0  0  0  0  0  0
   11.9172   12.7830    8.9445 C   0  0  0  0  0  0  0  0  0  0  0  0
   12.0373   13.3335   10.2124 N   0  0  0  0  0  0  0  0  0  0  0  0
   11.4075   13.5299    7.9524 N   0  0  0  0  0  0  0  0  0  0  0  0
   11.2656   13.0391    6.7109 C   0  0  0  0  0  0  0  0  0  0  0  0
   11.6654   11.7117    6.4371 C   0  0  0  0  0  0  0  0  0  0  0  0
   12.2078   10.9459    7.5162 C   0  0  0  0  0  0  0  0  0  0  0  0
   12.6181    9.6497    7.3212 N   0  0  0  0  0  0  0  0  0  0  0  0
   11.4118   11.4782    5.1175 N   0  0  0  0  0  0  0  0  0  0  0  0
   10.8952   12.5454    4.5863 C   0  0  0  0  0  0  0  0  0  0  0  0
   10.7863   13.5396    5.5255 N   0  0  0  0  0  0  0  0  0  0  0  0
  1  7  2  0  0  0  0
  1  2  1  0  0  0  0
  2  3  1  0  0  0  0
  2  4  2  0  0  0  0
  4  5  1  0  0  0  0
  5  6  2  0  0  0  0
  5 11  1  0  0  0  0
  6  7  1  0  0  0  0
  6  9  1  0  0  0  0
  7  8  1  0  0  0  0
  9 10  1  0  0  0  0
 10 11  2  0  0  0  0
M  END
>  <CHROM.1>
11.69056288,12.18697363,7.21147495,-0.97406413,1.16058559,-2.19008955

>  <Name>
ligand

>  <RI>
0

>  <Rbt.Current_Directory>
/home/itssahil/PROJECTS/Mol_Feturizer/New_Systems/rnas/4FEO

>  <Rbt.Executable>
rbdock ($Id: //depot/dev/client3/rdock/2013.1/src/exe/rbdock.cxx#4 $)

>  <Rbt.Library>
libRbt.so (2013.1, Build901 2013/11/27)

>  <Rbt.Parameter_File>
/export/apps/rDock/src/rDock_2013.1_src/data/scripts/dock_solv.prm

>  <Rbt.Receptor>
prm/pocket_docking_6.prm

>  <SCORE>
-11.1598

>  <SCORE.INTER>
-11.1598

>  <SCORE.INTER.CONST>
1

>  <SCORE.INTER.POLAR>
0

>  <SCORE.INTER.ROT>
0

>  <SCORE.INTER.SOLV>
19.0436

>  <SCORE.INTER.VDW>
-17.3877

>  <SCORE.INTER.norm>
-1.01453

>  <SCORE.INTRA>
0

>  <SCORE.INTRA.DIHEDRAL>
0

>  <SCORE.INTRA.DIHEDRAL.0>
0

>  <SCORE.INTRA.POLAR>
0

>  <SCORE.INTRA.POLAR.0>
0

>  <SCORE.INTRA.REPUL>
0

>  <SCORE.INTRA.REPUL.0>
0

>  <SCORE.INTRA.SOLV>
0

>  <SCORE.INTRA.SOLV.lig_0>
-48.9252

>  <SCORE.INTRA.VDW>
0

>  <SCORE.INTRA.VDW.0>
0

>  <SCORE.INTRA.norm>
0

>  <SCORE.RESTR>
0

>  <SCORE.RESTR.CAVITY>
0

>  <SCORE.RESTR.norm>
0

>  <SCORE.SYSTEM>
0

>  <SCORE.SYSTEM.CONST>
0

>  <SCORE.SYSTEM.DIHEDRAL>
0

>  <SCORE.SYSTEM.SOLV>
0

>  <SCORE.SYSTEM.norm>
0

>  <SCORE.heavy>
11

>  <SCORE.norm>
-1.01453

>  <RMSD>
0.554

$$$$
ligand
 OpenBabel11021811493D
libRbt.so/2013.1/901 2013/11/27
 11 12  0  0  0  0  0  0  0  0999 V2000
   12.2653   11.5151    8.7494 N   0  0  0  0  0  0  0  0  0  0  0  0
   11.9093   12.7978    8.9459 C   0  0  0  0  0  0  0  0  0  0  0  0
   12.0357   13.3521   10.2116 N   0  0  0  0  0  0  0  0  0  0  0  0
   11.4327   13.5544    7.9448 N   0  0  0  0  0  0  0  0  0  0  0  0
   11.2862   13.0607    6.7051 C   0  0  0  0  0  0  0  0  0  0  0  0
   11.6456   11.7195    6.4427 C   0  0  0  0  0  0  0  0  0  0  0  0
   12.1536   10.9434    7.5313 C   0  0  0  0  0  0  0  0  0  0  0  0
   12.5238    9.6336    7.3477 N   0  0  0  0  0  0  0  0  0  0  0  0
   11.3964   11.4860    5.1224 N   0  0  0  0  0  0  0  0  0  0  0  0
   10.9191   12.5659    4.5801 C   0  0  0  0  0  0  0  0  0  0  0  0
   10.8337   13.5688    5.5124 N   0  0  0  0  0  0  0  0  0  0  0  0
  1  7  2  0  0  0  0
  1  2  1  0  0  0  0
  2  3  1  0  0  0  0
  2  4  2  0  0  0  0
  4  5  1  0  0  0  0
  5  6  2  0  0  0  0
  5 11  1  0  0  0  0
  6  7  1  0  0  0  0
  6  9  1  0  0  0  0
  7  8  1  0  0  0  0
  9 10  1  0  0  0  0
 10 11  2  0  0  0  0
M  END
>  <CHROM.1>
11.67908719,12.19853479,7.21449785,-0.94336130,1.19170826,-2.22452330

>  <Name>
ligand

>  <RI>
0

>  <Rbt.Current_Directory>
/home/itssahil/PROJECTS/Mol_Feturizer/New_Systems/rnas/4FEO

>  <Rbt.Executable>
rbdock ($Id: //depot/dev/client3/rdock/2013.1/src/exe/rbdock.cxx#4 $)

>  <Rbt.Library>
libRbt.so (2013.1, Build901 2013/11/27)

>  <Rbt.Parameter_File>
/export/apps/rDock/src/rDock_2013.1_src/data/scripts/dock_solv.prm

>  <Rbt.Receptor>
prm/pocket_docking_7.prm

>  <SCORE>
-11.1951

>  <SCORE.INTER>
-11.1951

>  <SCORE.INTER.CONST>
1

>  <SCORE.INTER.POLAR>
0

>  <SCORE.INTER.ROT>
0

>  <SCORE.INTER.SOLV>
19.428

>  <SCORE.INTER.VDW>
-17.5394

>  <SCORE.INTER.norm>
-1.01773

>  <SCORE.INTRA>
0

>  <SCORE.INTRA.DIHEDRAL>
0

>  <SCORE.INTRA.DIHEDRAL.0>
0

>  <SCORE.INTRA.POLAR>
0

>  <SCORE.INTRA.POLAR.0>
0

>  <SCORE.INTRA.REPUL>
0

>  <SCORE.INTRA.REPUL.0>
0

>  <SCORE.INTRA.SOLV>
0

>  <SCORE.INTRA.SOLV.lig_0>
-48.9252

>  <SCORE.INTRA.VDW>
0

>  <SCORE.INTRA.VDW.0>
0

>  <SCORE.INTRA.norm>
0

>  <SCORE.RESTR>
0

>  <SCORE.RESTR.CAVITY>
0

>  <SCORE.RESTR.norm>
0

>  <SCORE.SYSTEM>
0

>  <SCORE.SYSTEM.CONST>
0

>  <SCORE.SYSTEM.DIHEDRAL>
0

>  <SCORE.SYSTEM.SOLV>
0

>  <SCORE.SYSTEM.norm>
0

>  <SCORE.heavy>
11

>  <SCORE.norm>
-1.01773

>  <RMSD>
0.554

$$$$
ligand
 OpenBabel11021811493D
libRbt.so/2013.1/901 2013/11/27
 11 12  0  0  0  0  0  0  0  0999 V2000
   12.3781   11.4109    8.7580 N   0  0  0  0  0  0  0  0  0  0  0  0
   12.0154   12.6818    9.0111 C   0  0  0  0  0  0  0  0  0  0  0  0
   12.1685   13.1898   10.2931 N   0  0  0  0  0  0  0  0  0  0  0  0
   11.5068   13.4703    8.0512 N   0  0  0  0  0  0  0  0  0  0  0  0
   11.3337   13.0217    6.7979 C   0  0  0  0  0  0  0  0  0  0  0  0
   11.6987   11.6949    6.4766 C   0  0  0  0  0  0  0  0  0  0  0  0
   12.2410   10.8840    7.5224 C   0  0  0  0  0  0  0  0  0  0  0  0
   12.6184    9.5857    7.2808 N   0  0  0  0  0  0  0  0  0  0  0  0
   11.4186   11.5082    5.1550 N   0  0  0  0  0  0  0  0  0  0  0  0
   10.9178   12.6026    4.6656 C   0  0  0  0  0  0  0  0  0  0  0  0
   10.8468   13.5693    5.6366 N   0  0  0  0  0  0  0  0  0  0  0  0
  1  7  2  0  0  0  0
  1  2  1  0  0  0  0
  2  3  1  0  0  0  0
  2  4  2  0  0  0  0
  4  5  1  0  0  0  0
  5  6  2  0  0  0  0
  5 11  1  0  0  0  0
  6  7  1  0  0  0  0
  6  9  1  0  0  0  0
  7  8  1  0  0  0  0
  9 10  1  0  0  0  0
 10 11  2  0  0  0  0
M  END
>  <CHROM.1>
11.74720627,12.14513128,7.26471644,-0.90654105,1.16890033,-2.22120522

>  <Name>
ligand

>  <RI>
0

>  <Rbt.Current_Directory>
/home/itssahil/PROJECTS/Mol_Feturizer/New_Systems/rnas/4FEO

>  <Rbt.Executable>
rbdock ($Id: //depot/dev/client3/rdock/2013.1/src/exe/rbdock.cxx#4 $)

>  <Rbt.Library>
libRbt.so (2013.1, Build901 2013/11/27)

>  <Rbt.Parameter_File>
/export/apps/rDock/src/rDock_2013.1_src/data/scripts/dock_solv.prm

>  <Rbt.Receptor>
prm/pocket_docking_8.prm

>  <SCORE>
-11.1132

>  <SCORE.INTER>
-11.1132

>  <SCORE.INTER.CONST>
1

>  <SCORE.INTER.POLAR>
0

>  <SCORE.INTER.ROT>
0

>  <SCORE.INTER.SOLV>
18.7853

>  <SCORE.INTER.VDW>
-17.2706

>  <SCORE.INTER.norm>
-1.0103

>  <SCORE.INTRA>
0

>  <SCORE.INTRA.DIHEDRAL>
0

>  <SCORE.INTRA.DIHEDRAL.0>
0

>  <SCORE.INTRA.POLAR>
0

>  <SCORE.INTRA.POLAR.0>
0

>  <SCORE.INTRA.REPUL>
0

>  <SCORE.INTRA.REPUL.0>
0

>  <SCORE.INTRA.SOLV>
0

>  <SCORE.INTRA.SOLV.lig_0>
-48.9252

>  <SCORE.INTRA.VDW>
0

>  <SCORE.INTRA.VDW.0>
0

>  <SCORE.INTRA.norm>
0

>  <SCORE.RESTR>
0

>  <SCORE.RESTR.CAVITY>
0

>  <SCORE.RESTR.norm>
0

>  <SCORE.SYSTEM>
0

>  <SCORE.SYSTEM.CONST>
0

>  <SCORE.SYSTEM.DIHEDRAL>
0

>  <SCORE.SYSTEM.SOLV>
0

>  <SCORE.SYSTEM.norm>
0

>  <SCORE.heavy>
11

>  <SCORE.norm>
-1.0103

>  <RMSD>
0.554

$$$$
ligand
 OpenBabel11021811493D
libRbt.so/2013.1/901 2013/11/27
 11 12  0  0  0  0  0  0  0  0999 V2000
   12.3015   11.5083    8.7371 N   0  0  0  0  0  0  0  0  0  0  0  0
   11.9074   12.7779    8.9457 C   0  0  0  0  0  0  0  0  0  0  0  0
   12.0230   13.3258   10.2151 N   0  0  0  0  0  0  0  0  0  0  0  0
   11.4027   13.5274    7.9529 N   0  0  0  0  0  0  0  0  0  0  0  0
   11.2652   13.0392    6.7100 C   0  0  0  0  0  0  0  0  0  0  0  0
   11.6642   11.7118    6.4351 C   0  0  0  0  0  0  0  0  0  0  0  0
   12.2013   10.9431    7.5150 C   0  0  0  0  0  0  0  0  0  0  0  0
   12.6106    9.6468    7.3191 N   0  0  0  0  0  0  0  0  0  0  0  0
   11.4158   11.4812    5.1142 N   0  0  0  0  0  0  0  0  0  0  0  0
   10.9028   12.5502    4.5829 C   0  0  0  0  0  0  0  0  0  0  0  0
   10.7914   13.5426    5.5236 N   0  0  0  0  0  0  0  0  0  0  0  0
  1  7  2  0  0  0  0
  1  2  1  0  0  0  0
  2  3  1  0  0  0  0
  2  4  2  0  0  0  0
  4  5  1  0  0  0  0
  5  6  2  0  0  0  0
  5 11  1  0  0  0  0
  6  7  1  0  0  0  0
  6  9  1  0  0  0  0
  7  8  1  0  0  0  0
  9 10  1  0  0  0  0
 10 11  2  0  0  0  0
M  END
>  <CHROM.1>
11.68692975,12.18553158,7.21058323,-0.98044945,1.16404512,-2.18228088

>  <Name>
ligand

>  <RI>
0

>  <Rbt.Current_Directory>
/home/itssahil/PROJECTS/Mol_Feturizer/New_Systems/rnas/4FEO

>  <Rbt.Executable>
rbdock ($Id: //depot/dev/client3/rdock/2013.1/src/exe/rbdock.cxx#4 $)

>  <Rbt.Library>
libRbt.so (2013.1, Build901 2013/11/27)

>  <Rbt.Parameter_File>
/export/apps/rDock/src/rDock_2013.1_src/data/scripts/dock_solv.prm

>  <Rbt.Receptor>
prm/pocket_docking_8.prm

>  <SCORE>
-11.1592

>  <SCORE.INTER>
-11.1592

>  <SCORE.INTER.CONST>
1

>  <SCORE.INTER.POLAR>
0

>  <SCORE.INTER.ROT>
0

>  <SCORE.INTER.SOLV>
19.0812

>  <SCORE.INTER.VDW>
-17.3999

>  <SCORE.INTER.norm>
-1.01447

>  <SCORE.INTRA>
0

>  <SCORE.INTRA.DIHEDRAL>
0

>  <SCORE.INTRA.DIHEDRAL.0>
0

>  <SCORE.INTRA.POLAR>
0

>  <SCORE.INTRA.POLAR.0>
0

>  <SCORE.INTRA.REPUL>
0

>  <SCORE.INTRA.REPUL.0>
0

>  <SCORE.INTRA.SOLV>
0

>  <SCORE.INTRA.SOLV.lig_0>
-48.9252

>  <SCORE.INTRA.VDW>
0

>  <SCORE.INTRA.VDW.0>
0

>  <SCORE.INTRA.norm>
0

>  <SCORE.RESTR>
0

>  <SCORE.RESTR.CAVITY>
0

>  <SCORE.RESTR.norm>
0

>  <SCORE.SYSTEM>
0

>  <SCORE.SYSTEM.CONST>
0

>  <SCORE.SYSTEM.DIHEDRAL>
0

>  <SCORE.SYSTEM.SOLV>
0

>  <SCORE.SYSTEM.norm>
0

>  <SCORE.heavy>
11

>  <SCORE.norm>
-1.01447

>  <RMSD>
0.554

$$$$
ligand
 OpenBabel11021811493D
libRbt.so/2013.1/901 2013/11/27
 11 12  0  0  0  0  0  0  0  0999 V2000
   12.3055   11.5022    8.7384 N   0  0  0  0  0  0  0  0  0  0  0  0
   11.9179   12.7729    8.9518 C   0  0  0  0  0  0  0  0  0  0  0  0
   12.0377   13.3158   10.2230 N   0  0  0  0  0  0  0  0  0  0  0  0
   11.4158   13.5284    7.9623 N   0  0  0  0  0  0  0  0  0  0  0  0
   11.2745   13.0454    6.7178 C   0  0  0  0  0  0  0  0  0  0  0  0
   11.6667   11.7170    6.4378 C   0  0  0  0  0  0  0  0  0  0  0  0
   12.2011   10.9419    7.5143 C   0  0  0  0  0  0  0  0  0  0  0  0
   12.6038    9.6442    7.3134 N   0  0  0  0  0  0  0  0  0  0  0  0
   11.4156   11.4923    5.1163 N   0  0  0  0  0  0  0  0  0  0  0  0
   10.9073   12.5656    4.5894 C   0  0  0  0  0  0  0  0  0  0  0  0
   10.8019   13.5553    5.5338 N   0  0  0  0  0  0  0  0  0  0  0  0
  1  7  2  0  0  0  0
  1  2  1  0  0  0  0
  2  3  1  0  0  0  0
  2  4  2  0  0  0  0
  4  5  1  0  0  0  0
  5  6  2  0  0  0  0
  5 11  1  0  0  0  0
  6  7  1  0  0  0  0
  6  9  1  0  0  0  0
  7  8  1  0  0  0  0
  9 10  1  0  0  0  0
 10 11  2  0  0  0  0
M  END
>  <CHROM.1>
11.69257690,12.18784200,7.21489467,-0.97091559,1.16741960,-2.18750701

>  <Name>
ligand

>  <RI>
0

>  <Rbt.Current_Directory>
/home/itssahil/PROJECTS/Mol_Feturizer/New_Systems/rnas/4FEO

>  <Rbt.Executable>
rbdock ($Id: //depot/dev/client3/rdock/2013.1/src/exe/rbdock.cxx#4 $)

>  <Rbt.Library>
libRbt.so (2013.1, Build901 2013/11/27)

>  <Rbt.Parameter_File>
/export/apps/rDock/src/rDock_2013.1_src/data/scripts/dock_solv.prm

>  <Rbt.Receptor>
prm/pocket_docking_8.prm

>  <SCORE>
-11.1719

>  <SCORE.INTER>
-11.1719

>  <SCORE.INTER.CONST>
1

>  <SCORE.INTER.POLAR>
0

>  <SCORE.INTER.ROT>
0

>  <SCORE.INTER.SOLV>
19.0769

>  <SCORE.INTER.VDW>
-17.4069

>  <SCORE.INTER.norm>
-1.01563

>  <SCORE.INTRA>
0

>  <SCORE.INTRA.DIHEDRAL>
0

>  <SCORE.INTRA.DIHEDRAL.0>
0

>  <SCORE.INTRA.POLAR>
0

>  <SCORE.INTRA.POLAR.0>
0

>  <SCORE.INTRA.REPUL>
0

>  <SCORE.INTRA.REPUL.0>
0

>  <SCORE.INTRA.SOLV>
0

>  <SCORE.INTRA.SOLV.lig_0>
-48.9252

>  <SCORE.INTRA.VDW>
0

>  <SCORE.INTRA.VDW.0>
0

>  <SCORE.INTRA.norm>
0

>  <SCORE.RESTR>
0

>  <SCORE.RESTR.CAVITY>
0

>  <SCORE.RESTR.norm>
0

>  <SCORE.SYSTEM>
0

>  <SCORE.SYSTEM.CONST>
0

>  <SCORE.SYSTEM.DIHEDRAL>
0

>  <SCORE.SYSTEM.SOLV>
0

>  <SCORE.SYSTEM.norm>
0

>  <SCORE.heavy>
11

>  <SCORE.norm>
-1.01563

>  <RMSD>
0.554

$$$$
ligand
 OpenBabel11021811493D
libRbt.so/2013.1/901 2013/11/27
 11 12  0  0  0  0  0  0  0  0999 V2000
   12.2602   11.5255    8.7515 N   0  0  0  0  0  0  0  0  0  0  0  0
   11.9048   12.8099    8.9382 C   0  0  0  0  0  0  0  0  0  0  0  0
   12.0238   13.3714   10.2014 N   0  0  0  0  0  0  0  0  0  0  0  0
   11.4358   13.5613    7.9296 N   0  0  0  0  0  0  0  0  0  0  0  0
   11.2967   13.0606    6.6918 C   0  0  0  0  0  0  0  0  0  0  0  0
   11.6558   11.7174    6.4397 C   0  0  0  0  0  0  0  0  0  0  0  0
   12.1556   10.9470    7.5360 C   0  0  0  0  0  0  0  0  0  0  0  0
   12.5250    9.6355    7.3626 N   0  0  0  0  0  0  0  0  0  0  0  0
   11.4150   11.4765    5.1191 N   0  0  0  0  0  0  0  0  0  0  0  0
   10.9428   12.5539    4.5675 C   0  0  0  0  0  0  0  0  0  0  0  0
   10.8528   13.5624    5.4933 N   0  0  0  0  0  0  0  0  0  0  0  0
  1  7  2  0  0  0  0
  1  2  1  0  0  0  0
  2  3  1  0  0  0  0
  2  4  2  0  0  0  0
  4  5  1  0  0  0  0
  5  6  2  0  0  0  0
  5 11  1  0  0  0  0
  6  7  1  0  0  0  0
  6  9  1  0  0  0  0
  7  8  1  0  0  0  0
  9 10  1  0  0  0  0
 10 11  2  0  0  0  0
M  END
>  <CHROM.1>
11.68501959,12.20084899,7.20885030,-0.95510540,1.19683103,-2.21944300

>  <Name>
ligand

>  <RI>
0

>  <Rbt.Current_Directory>
/home/itssahil/PROJECTS/Mol_Feturizer/New_Systems/rnas/4FEO

>  <Rbt.Executable>
rbdock ($Id: //depot/dev/client3/rdock/2013.1/src/exe/rbdock.cxx#4 $)

>  <Rbt.Library>
libRbt.so (2013.1, Build901 2013/11/27)

>  <Rbt.Parameter_File>
/export/apps/rDock/src/rDock_2013.1_src/data/scripts/dock_solv.prm

>  <Rbt.Receptor>
prm/blind_docking_80.prm

>  <SCORE>
-11.1912

>  <SCORE.INTER>
-11.1912

>  <SCORE.INTER.CONST>
1

>  <SCORE.INTER.POLAR>
0

>  <SCORE.INTER.ROT>
0

>  <SCORE.INTER.SOLV>
19.4732

>  <SCORE.INTER.VDW>
-17.5519

>  <SCORE.INTER.norm>
-1.01738

>  <SCORE.INTRA>
0

>  <SCORE.INTRA.DIHEDRAL>
0

>  <SCORE.INTRA.DIHEDRAL.0>
0

>  <SCORE.INTRA.POLAR>
0

>  <SCORE.INTRA.POLAR.0>
0

>  <SCORE.INTRA.REPUL>
0

>  <SCORE.INTRA.REPUL.0>
0

>  <SCORE.INTRA.SOLV>
0

>  <SCORE.INTRA.SOLV.lig_0>
-48.9252

>  <SCORE.INTRA.VDW>
0

>  <SCORE.INTRA.VDW.0>
0

>  <SCORE.INTRA.norm>
0

>  <SCORE.RESTR>
0

>  <SCORE.RESTR.CAVITY>
0

>  <SCORE.RESTR.norm>
0

>  <SCORE.SYSTEM>
0

>  <SCORE.SYSTEM.CONST>
0

>  <SCORE.SYSTEM.DIHEDRAL>
0

>  <SCORE.SYSTEM.SOLV>
0

>  <SCORE.SYSTEM.norm>
0

>  <SCORE.heavy>
11

>  <SCORE.norm>
-1.01738

>  <RMSD>
0.555

$$$$
ligand
 OpenBabel11021811493D
libRbt.so/2013.1/901 2013/11/27
 11 12  0  0  0  0  0  0  0  0999 V2000
   12.2967   11.5633    8.7490 N   0  0  0  0  0  0  0  0  0  0  0  0
   11.9153   12.8368    8.9573 C   0  0  0  0  0  0  0  0  0  0  0  0
   12.0268   13.3805   10.2289 N   0  0  0  0  0  0  0  0  0  0  0  0
   11.4272   13.5942    7.9622 N   0  0  0  0  0  0  0  0  0  0  0  0
   11.2943   13.1104    6.7171 C   0  0  0  0  0  0  0  0  0  0  0  0
   11.6805   11.7792    6.4424 C   0  0  0  0  0  0  0  0  0  0  0  0
   12.2000   11.0021    7.5247 C   0  0  0  0  0  0  0  0  0  0  0  0
   12.5962    9.7016    7.3292 N   0  0  0  0  0  0  0  0  0  0  0  0
   11.4402   11.5544    5.1189 N   0  0  0  0  0  0  0  0  0  0  0  0
   10.9437   12.6303    4.5860 C   0  0  0  0  0  0  0  0  0  0  0  0
   10.8359   13.6218    5.5281 N   0  0  0  0  0  0  0  0  0  0  0  0
  1  7  2  0  0  0  0
  1  2  1  0  0  0  0
  2  3  1  0  0  0  0
  2  4  2  0  0  0  0
  4  5  1  0  0  0  0
  5  6  2  0  0  0  0
  5 11  1  0  0  0  0
  6  7  1  0  0  0  0
  6  9  1  0  0  0  0
  7  8  1  0  0  0  0
  9 10  1  0  0  0  0
 10 11  2  0  0  0  0
M  END
>  <CHROM.1>
11.70228040,12.25087271,7.21908011,-0.98089655,1.17798484,-2.17957707

>  <Name>
ligand

>  <RI>
0

>  <Rbt.Current_Directory>
/home/itssahil/PROJECTS/Mol_Feturizer/New_Systems/rnas/4FEO

>  <Rbt.Executable>
rbdock ($Id: //depot/dev/client3/rdock/2013.1/src/exe/rbdock.cxx#4 $)

>  <Rbt.Library>
libRbt.so (2013.1, Build901 2013/11/27)

>  <Rbt.Parameter_File>
/export/apps/rDock/src/rDock_2013.1_src/data/scripts/dock_solv.prm

>  <Rbt.Receptor>
prm/pocket_docking_3.prm

>  <SCORE>
-11.1627

>  <SCORE.INTER>
-11.1627

>  <SCORE.INTER.CONST>
1

>  <SCORE.INTER.POLAR>
0

>  <SCORE.INTER.ROT>
0

>  <SCORE.INTER.SOLV>
19.228

>  <SCORE.INTER.VDW>
-17.4511

>  <SCORE.INTER.norm>
-1.01479

>  <SCORE.INTRA>
0

>  <SCORE.INTRA.DIHEDRAL>
0

>  <SCORE.INTRA.DIHEDRAL.0>
0

>  <SCORE.INTRA.POLAR>
0

>  <SCORE.INTRA.POLAR.0>
0

>  <SCORE.INTRA.REPUL>
0

>  <SCORE.INTRA.REPUL.0>
0

>  <SCORE.INTRA.SOLV>
0

>  <SCORE.INTRA.SOLV.lig_0>
-48.9252

>  <SCORE.INTRA.VDW>
0

>  <SCORE.INTRA.VDW.0>
0

>  <SCORE.INTRA.norm>
0

>  <SCORE.RESTR>
0

>  <SCORE.RESTR.CAVITY>
0

>  <SCORE.RESTR.norm>
0

>  <SCORE.SYSTEM>
0

>  <SCORE.SYSTEM.CONST>
0

>  <SCORE.SYSTEM.DIHEDRAL>
0

>  <SCORE.SYSTEM.SOLV>
0

>  <SCORE.SYSTEM.norm>
0

>  <SCORE.heavy>
11

>  <SCORE.norm>
-1.01479

>  <RMSD>
0.555

$$$$
ligand
 OpenBabel11021811493D
libRbt.so/2013.1/901 2013/11/27
 11 12  0  0  0  0  0  0  0  0999 V2000
   12.2976   11.4940    8.7394 N   0  0  0  0  0  0  0  0  0  0  0  0
   11.9152   12.7668    8.9501 C   0  0  0  0  0  0  0  0  0  0  0  0
   12.0330   13.3105   10.2211 N   0  0  0  0  0  0  0  0  0  0  0  0
   11.4204   13.5236    7.9579 N   0  0  0  0  0  0  0  0  0  0  0  0
   11.2813   13.0399    6.7135 C   0  0  0  0  0  0  0  0  0  0  0  0
   11.6681   11.7093    6.4363 C   0  0  0  0  0  0  0  0  0  0  0  0
   12.1949   10.9328    7.5156 C   0  0  0  0  0  0  0  0  0  0  0  0
   12.5921    9.6331    7.3176 N   0  0  0  0  0  0  0  0  0  0  0  0
   11.4208   11.4844    5.1142 N   0  0  0  0  0  0  0  0  0  0  0  0
   10.9196   12.5595    4.5843 C   0  0  0  0  0  0  0  0  0  0  0  0
   10.8154   13.5508    5.5271 N   0  0  0  0  0  0  0  0  0  0  0  0
  1  7  2  0  0  0  0
  1  2  1  0  0  0  0
  2  3  1  0  0  0  0
  2  4  2  0  0  0  0
  4  5  1  0  0  0  0
  5  6  2  0  0  0  0
  5 11  1  0  0  0  0
  6  7  1  0  0  0  0
  6  9  1  0  0  0  0
  7  8  1  0  0  0  0
  9 10  1  0  0  0  0
 10 11  2  0  0  0  0
M  END
>  <CHROM.1>
11.69346091,12.18090695,7.21300008,-0.97143083,1.17343886,-2.18812683

>  <Name>
ligand

>  <RI>
0

>  <Rbt.Current_Directory>
/home/itssahil/PROJECTS/Mol_Feturizer/New_Systems/rnas/4FEO

>  <Rbt.Executable>
rbdock ($Id: //depot/dev/client3/rdock/2013.1/src/exe/rbdock.cxx#4 $)

>  <Rbt.Library>
libRbt.so (2013.1, Build901 2013/11/27)

>  <Rbt.Parameter_File>
/export/apps/rDock/src/rDock_2013.1_src/data/scripts/dock_solv.prm

>  <Rbt.Receptor>
prm/pocket_docking_5.prm

>  <SCORE>
-11.2054

>  <SCORE.INTER>
-11.2054

>  <SCORE.INTER.CONST>
1

>  <SCORE.INTER.POLAR>
0

>  <SCORE.INTER.ROT>
0

>  <SCORE.INTER.SOLV>
19.125

>  <SCORE.INTER.VDW>
-17.4453

>  <SCORE.INTER.norm>
-1.01868

>  <SCORE.INTRA>
0

>  <SCORE.INTRA.DIHEDRAL>
0

>  <SCORE.INTRA.DIHEDRAL.0>
0

>  <SCORE.INTRA.POLAR>
0

>  <SCORE.INTRA.POLAR.0>
0

>  <SCORE.INTRA.REPUL>
0

>  <SCORE.INTRA.REPUL.0>
0

>  <SCORE.INTRA.SOLV>
0

>  <SCORE.INTRA.SOLV.lig_0>
-48.9252

>  <SCORE.INTRA.VDW>
0

>  <SCORE.INTRA.VDW.0>
0

>  <SCORE.INTRA.norm>
0

>  <SCORE.RESTR>
0

>  <SCORE.RESTR.CAVITY>
0

>  <SCORE.RESTR.norm>
0

>  <SCORE.SYSTEM>
0

>  <SCORE.SYSTEM.CONST>
0

>  <SCORE.SYSTEM.DIHEDRAL>
0

>  <SCORE.SYSTEM.SOLV>
0

>  <SCORE.SYSTEM.norm>
0

>  <SCORE.heavy>
11

>  <SCORE.norm>
-1.01868

>  <RMSD>
0.555

$$$$
ligand
 OpenBabel11021811493D
libRbt.so/2013.1/901 2013/11/27
 11 12  0  0  0  0  0  0  0  0999 V2000
   12.2652   11.5095    8.7484 N   0  0  0  0  0  0  0  0  0  0  0  0
   11.9136   12.7930    8.9473 C   0  0  0  0  0  0  0  0  0  0  0  0
   12.0425   13.3447   10.2138 N   0  0  0  0  0  0  0  0  0  0  0  0
   11.4389   13.5530    7.9477 N   0  0  0  0  0  0  0  0  0  0  0  0
   11.2901   13.0619    6.7073 C   0  0  0  0  0  0  0  0  0  0  0  0
   11.6448   11.7200    6.4424 C   0  0  0  0  0  0  0  0  0  0  0  0
   12.1509   10.9404    7.5293 C   0  0  0  0  0  0  0  0  0  0  0  0
   12.5166    9.6296    7.3433 N   0  0  0  0  0  0  0  0  0  0  0  0
   11.3942   11.4897    5.1217 N   0  0  0  0  0  0  0  0  0  0  0  0
   10.9202   12.5721    4.5817 C   0  0  0  0  0  0  0  0  0  0  0  0
   10.8387   13.5737    5.5157 N   0  0  0  0  0  0  0  0  0  0  0  0
  1  7  2  0  0  0  0
  1  2  1  0  0  0  0
  2  3  1  0  0  0  0
  2  4  2  0  0  0  0
  4  5  1  0  0  0  0
  5  6  2  0  0  0  0
  5 11  1  0  0  0  0
  6  7  1  0  0  0  0
  6  9  1  0  0  0  0
  7  8  1  0  0  0  0
  9 10  1  0  0  0  0
 10 11  2  0  0  0  0
M  END
>  <CHROM.1>
11.68038947,12.19759349,7.21495647,-0.93669412,1.19400889,-2.22897352

>  <Name>
ligand

>  <RI>
0

>  <Rbt.Current_Directory>
/home/itssahil/PROJECTS/Mol_Feturizer/New_Systems/rnas/4FEO

>  <Rbt.Executable>
rbdock ($Id: //depot/dev/client3/rdock/2013.1/src/exe/rbdock.cxx#4 $)

>  <Rbt.Library>
libRbt.so (2013.1, Build901 2013/11/27)

>  <Rbt.Parameter_File>
/export/apps/rDock/src/rDock_2013.1_src/data/scripts/dock_solv.prm

>  <Rbt.Receptor>
prm/pocket_docking_4.prm

>  <SCORE>
-11.1953

>  <SCORE.INTER>
-11.1953

>  <SCORE.INTER.CONST>
1

>  <SCORE.INTER.POLAR>
0

>  <SCORE.INTER.ROT>
0

>  <SCORE.INTER.SOLV>
19.4357

>  <SCORE.INTER.VDW>
-17.5421

>  <SCORE.INTER.norm>
-1.01776

>  <SCORE.INTRA>
0

>  <SCORE.INTRA.DIHEDRAL>
0

>  <SCORE.INTRA.DIHEDRAL.0>
0

>  <SCORE.INTRA.POLAR>
0

>  <SCORE.INTRA.POLAR.0>
0

>  <SCORE.INTRA.REPUL>
0

>  <SCORE.INTRA.REPUL.0>
0

>  <SCORE.INTRA.SOLV>
0

>  <SCORE.INTRA.SOLV.lig_0>
-48.9252

>  <SCORE.INTRA.VDW>
0

>  <SCORE.INTRA.VDW.0>
0

>  <SCORE.INTRA.norm>
0

>  <SCORE.RESTR>
0

>  <SCORE.RESTR.CAVITY>
0

>  <SCORE.RESTR.norm>
0

>  <SCORE.SYSTEM>
0

>  <SCORE.SYSTEM.CONST>
0

>  <SCORE.SYSTEM.DIHEDRAL>
0

>  <SCORE.SYSTEM.SOLV>
0

>  <SCORE.SYSTEM.norm>
0

>  <SCORE.heavy>
11

>  <SCORE.norm>
-1.01776

>  <RMSD>
0.556

$$$$
ligand
 OpenBabel11021811493D
libRbt.so/2013.1/901 2013/11/27
 11 12  0  0  0  0  0  0  0  0999 V2000
   12.3041   11.5142    8.7398 N   0  0  0  0  0  0  0  0  0  0  0  0
   11.9277   12.7882    8.9541 C   0  0  0  0  0  0  0  0  0  0  0  0
   12.0543   13.3298   10.2252 N   0  0  0  0  0  0  0  0  0  0  0  0
   11.4305   13.5481    7.9655 N   0  0  0  0  0  0  0  0  0  0  0  0
   11.2830   13.0664    6.7212 C   0  0  0  0  0  0  0  0  0  0  0  0
   11.6632   11.7348    6.4404 C   0  0  0  0  0  0  0  0  0  0  0  0
   12.1928   10.9550    7.5159 C   0  0  0  0  0  0  0  0  0  0  0  0
   12.5840    9.6539    7.3142 N   0  0  0  0  0  0  0  0  0  0  0  0
   11.4080   11.5125    5.1193 N   0  0  0  0  0  0  0  0  0  0  0  0
   10.9081   12.5902    4.5934 C   0  0  0  0  0  0  0  0  0  0  0  0
   10.8127   13.5806    5.5380 N   0  0  0  0  0  0  0  0  0  0  0  0
  1  7  2  0  0  0  0
  1  2  1  0  0  0  0
  2  3  1  0  0  0  0
  2  4  2  0  0  0  0
  4  5  1  0  0  0  0
  5  6  2  0  0  0  0
  5 11  1  0  0  0  0
  6  7  1  0  0  0  0
  6  9  1  0  0  0  0
  7  8  1  0  0  0  0
  9 10  1  0  0  0  0
 10 11  2  0  0  0  0
M  END
>  <CHROM.1>
11.69448533,12.20529025,7.21747307,-0.95451871,1.17341629,-2.20247687

>  <Name>
ligand

>  <RI>
0

>  <Rbt.Current_Directory>
/home/itssahil/PROJECTS/Mol_Feturizer/New_Systems/rnas/4FEO

>  <Rbt.Executable>
rbdock ($Id: //depot/dev/client3/rdock/2013.1/src/exe/rbdock.cxx#4 $)

>  <Rbt.Library>
libRbt.so (2013.1, Build901 2013/11/27)

>  <Rbt.Parameter_File>
/export/apps/rDock/src/rDock_2013.1_src/data/scripts/dock_solv.prm

>  <Rbt.Receptor>
prm/pocket_docking_3.prm

>  <SCORE>
-11.171

>  <SCORE.INTER>
-11.171

>  <SCORE.INTER.CONST>
1

>  <SCORE.INTER.POLAR>
0

>  <SCORE.INTER.ROT>
0

>  <SCORE.INTER.SOLV>
19.1495

>  <SCORE.INTER.VDW>
-17.4305

>  <SCORE.INTER.norm>
-1.01555

>  <SCORE.INTRA>
0

>  <SCORE.INTRA.DIHEDRAL>
0

>  <SCORE.INTRA.DIHEDRAL.0>
0

>  <SCORE.INTRA.POLAR>
0

>  <SCORE.INTRA.POLAR.0>
0

>  <SCORE.INTRA.REPUL>
0

>  <SCORE.INTRA.REPUL.0>
0

>  <SCORE.INTRA.SOLV>
0

>  <SCORE.INTRA.SOLV.lig_0>
-48.9252

>  <SCORE.INTRA.VDW>
0

>  <SCORE.INTRA.VDW.0>
0

>  <SCORE.INTRA.norm>
0

>  <SCORE.RESTR>
0

>  <SCORE.RESTR.CAVITY>
0

>  <SCORE.RESTR.norm>
0

>  <SCORE.SYSTEM>
0

>  <SCORE.SYSTEM.CONST>
0

>  <SCORE.SYSTEM.DIHEDRAL>
0

>  <SCORE.SYSTEM.SOLV>
0

>  <SCORE.SYSTEM.norm>
0

>  <SCORE.heavy>
11

>  <SCORE.norm>
-1.01555

>  <RMSD>
0.557

$$$$
ligand
 OpenBabel11021811493D
libRbt.so/2013.1/901 2013/11/27
 11 12  0  0  0  0  0  0  0  0999 V2000
   12.3117   11.5020    8.7350 N   0  0  0  0  0  0  0  0  0  0  0  0
   11.9211   12.7722    8.9465 C   0  0  0  0  0  0  0  0  0  0  0  0
   12.0416   13.3180   10.2164 N   0  0  0  0  0  0  0  0  0  0  0  0
   11.4155   13.5244    7.9562 N   0  0  0  0  0  0  0  0  0  0  0  0
   11.2735   13.0384    6.7130 C   0  0  0  0  0  0  0  0  0  0  0  0
   11.6686   11.7104    6.4351 C   0  0  0  0  0  0  0  0  0  0  0  0
   12.2067   10.9389    7.5123 C   0  0  0  0  0  0  0  0  0  0  0  0
   12.6124    9.6418    7.3135 N   0  0  0  0  0  0  0  0  0  0  0  0
   11.4159   11.4824    5.1145 N   0  0  0  0  0  0  0  0  0  0  0  0
   10.9041   12.5533    4.5862 C   0  0  0  0  0  0  0  0  0  0  0  0
   10.7976   13.5447    5.5286 N   0  0  0  0  0  0  0  0  0  0  0  0
  1  7  2  0  0  0  0
  1  2  1  0  0  0  0
  2  3  1  0  0  0  0
  2  4  2  0  0  0  0
  4  5  1  0  0  0  0
  5  6  2  0  0  0  0
  5 11  1  0  0  0  0
  6  7  1  0  0  0  0
  6  9  1  0  0  0  0
  7  8  1  0  0  0  0
  9 10  1  0  0  0  0
 10 11  2  0  0  0  0
M  END
>  <CHROM.1>
11.69453059,12.18294664,7.21116243,-0.97129911,1.16441885,-2.18922539

>  <Name>
ligand

>  <RI>
0

>  <Rbt.Current_Directory>
/home/itssahil/PROJECTS/Mol_Feturizer/New_Systems/rnas/4FEO

>  <Rbt.Executable>
rbdock ($Id: //depot/dev/client3/rdock/2013.1/src/exe/rbdock.cxx#4 $)

>  <Rbt.Library>
libRbt.so (2013.1, Build901 2013/11/27)

>  <Rbt.Parameter_File>
/export/apps/rDock/src/rDock_2013.1_src/data/scripts/dock_solv.prm

>  <Rbt.Receptor>
prm/pocket_docking_4.prm

>  <SCORE>
-11.163

>  <SCORE.INTER>
-11.163

>  <SCORE.INTER.CONST>
1

>  <SCORE.INTER.POLAR>
0

>  <SCORE.INTER.ROT>
0

>  <SCORE.INTER.SOLV>
19.0423

>  <SCORE.INTER.VDW>
-17.3894

>  <SCORE.INTER.norm>
-1.01482

>  <SCORE.INTRA>
0

>  <SCORE.INTRA.DIHEDRAL>
0

>  <SCORE.INTRA.DIHEDRAL.0>
0

>  <SCORE.INTRA.POLAR>
0

>  <SCORE.INTRA.POLAR.0>
0

>  <SCORE.INTRA.REPUL>
0

>  <SCORE.INTRA.REPUL.0>
0

>  <SCORE.INTRA.SOLV>
0

>  <SCORE.INTRA.SOLV.lig_0>
-48.9252

>  <SCORE.INTRA.VDW>
0

>  <SCORE.INTRA.VDW.0>
0

>  <SCORE.INTRA.norm>
0

>  <SCORE.RESTR>
0

>  <SCORE.RESTR.CAVITY>
0

>  <SCORE.RESTR.norm>
0

>  <SCORE.SYSTEM>
0

>  <SCORE.SYSTEM.CONST>
0

>  <SCORE.SYSTEM.DIHEDRAL>
0

>  <SCORE.SYSTEM.SOLV>
0

>  <SCORE.SYSTEM.norm>
0

>  <SCORE.heavy>
11

>  <SCORE.norm>
-1.01482

>  <RMSD>
0.557

$$$$
ligand
 OpenBabel11021811493D
libRbt.so/2013.1/901 2013/11/27
 11 12  0  0  0  0  0  0  0  0999 V2000
   12.2595   11.5146    8.7492 N   0  0  0  0  0  0  0  0  0  0  0  0
   11.9097   12.7991    8.9446 C   0  0  0  0  0  0  0  0  0  0  0  0
   12.0363   13.3531   10.2104 N   0  0  0  0  0  0  0  0  0  0  0  0
   11.4390   13.5579    7.9423 N   0  0  0  0  0  0  0  0  0  0  0  0
   11.2925   13.0646    6.7024 C   0  0  0  0  0  0  0  0  0  0  0  0
   11.6456   11.7216    6.4412 C   0  0  0  0  0  0  0  0  0  0  0  0
   12.1474   10.9432    7.5309 C   0  0  0  0  0  0  0  0  0  0  0  0
   12.5113    9.6314    7.3485 N   0  0  0  0  0  0  0  0  0  0  0  0
   11.3980   11.4890    5.1204 N   0  0  0  0  0  0  0  0  0  0  0  0
   10.9273   12.5711    4.5769 C   0  0  0  0  0  0  0  0  0  0  0  0
   10.8451   13.5748    5.5087 N   0  0  0  0  0  0  0  0  0  0  0  0
  1  7  2  0  0  0  0
  1  2  1  0  0  0  0
  2  3  1  0  0  0  0
  2  4  2  0  0  0  0
  4  5  1  0  0  0  0
  5  6  2  0  0  0  0
  5 11  1  0  0  0  0
  6  7  1  0  0  0  0
  6  9  1  0  0  0  0
  7  8  1  0  0  0  0
  9 10  1  0  0  0  0
 10 11  2  0  0  0  0
M  END
>  <CHROM.1>
11.67998003,12.20060672,7.21288431,-0.93936772,1.19700729,-2.22849931

>  <Name>
ligand

>  <RI>
0

>  <Rbt.Current_Directory>
/home/itssahil/PROJECTS/Mol_Feturizer/New_Systems/rnas/4FEO

>  <Rbt.Executable>
rbdock ($Id: //depot/dev/client3/rdock/2013.1/src/exe/rbdock.cxx#4 $)

>  <Rbt.Library>
libRbt.so (2013.1, Build901 2013/11/27)

>  <Rbt.Parameter_File>
/export/apps/rDock/src/rDock_2013.1_src/data/scripts/dock_solv.prm

>  <Rbt.Receptor>
prm/pocket_docking_6.prm

>  <SCORE>
-11.1953

>  <SCORE.INTER>
-11.1953

>  <SCORE.INTER.CONST>
1

>  <SCORE.INTER.POLAR>
0

>  <SCORE.INTER.ROT>
0

>  <SCORE.INTER.SOLV>
19.4764

>  <SCORE.INTER.VDW>
-17.5557

>  <SCORE.INTER.norm>
-1.01776

>  <SCORE.INTRA>
0

>  <SCORE.INTRA.DIHEDRAL>
0

>  <SCORE.INTRA.DIHEDRAL.0>
0

>  <SCORE.INTRA.POLAR>
0

>  <SCORE.INTRA.POLAR.0>
0

>  <SCORE.INTRA.REPUL>
0

>  <SCORE.INTRA.REPUL.0>
0

>  <SCORE.INTRA.SOLV>
0

>  <SCORE.INTRA.SOLV.lig_0>
-48.9252

>  <SCORE.INTRA.VDW>
0

>  <SCORE.INTRA.VDW.0>
0

>  <SCORE.INTRA.norm>
0

>  <SCORE.RESTR>
0

>  <SCORE.RESTR.CAVITY>
0

>  <SCORE.RESTR.norm>
0

>  <SCORE.SYSTEM>
0

>  <SCORE.SYSTEM.CONST>
0

>  <SCORE.SYSTEM.DIHEDRAL>
0

>  <SCORE.SYSTEM.SOLV>
0

>  <SCORE.SYSTEM.norm>
0

>  <SCORE.heavy>
11

>  <SCORE.norm>
-1.01776

>  <RMSD>
0.557

$$$$
ligand
 OpenBabel11021811493D
libRbt.so/2013.1/901 2013/11/27
 11 12  0  0  0  0  0  0  0  0999 V2000
   12.3039   11.4987    8.7358 N   0  0  0  0  0  0  0  0  0  0  0  0
   11.9192   12.7702    8.9500 C   0  0  0  0  0  0  0  0  0  0  0  0
   12.0412   13.3123   10.2214 N   0  0  0  0  0  0  0  0  0  0  0  0
   11.4182   13.5273    7.9612 N   0  0  0  0  0  0  0  0  0  0  0  0
   11.2749   13.0450    6.7166 C   0  0  0  0  0  0  0  0  0  0  0  0
   11.6639   11.7159    6.4358 C   0  0  0  0  0  0  0  0  0  0  0  0
   12.1973   10.9391    7.5115 C   0  0  0  0  0  0  0  0  0  0  0  0
   12.5969    9.6407    7.3098 N   0  0  0  0  0  0  0  0  0  0  0  0
   11.4114   11.4924    5.1143 N   0  0  0  0  0  0  0  0  0  0  0  0
   10.9051   12.5670    4.5883 C   0  0  0  0  0  0  0  0  0  0  0  0
   10.8026   13.5566    5.5331 N   0  0  0  0  0  0  0  0  0  0  0  0
  1  7  2  0  0  0  0
  1  2  1  0  0  0  0
  2  3  1  0  0  0  0
  2  4  2  0  0  0  0
  4  5  1  0  0  0  0
  5  6  2  0  0  0  0
  5 11  1  0  0  0  0
  6  7  1  0  0  0  0
  6  9  1  0  0  0  0
  7  8  1  0  0  0  0
  9 10  1  0  0  0  0
 10 11  2  0  0  0  0
M  END
>  <CHROM.1>
11.69139962,12.18637583,7.21302852,-0.96609703,1.16885758,-2.19151409

>  <Name>
ligand

>  <RI>
0

>  <Rbt.Current_Directory>
/home/itssahil/PROJECTS/Mol_Feturizer/New_Systems/rnas/4FEO

>  <Rbt.Executable>
rbdock ($Id: //depot/dev/client3/rdock/2013.1/src/exe/rbdock.cxx#4 $)

>  <Rbt.Library>
libRbt.so (2013.1, Build901 2013/11/27)

>  <Rbt.Parameter_File>
/export/apps/rDock/src/rDock_2013.1_src/data/scripts/dock_solv.prm

>  <Rbt.Receptor>
prm/pocket_docking_6.prm

>  <SCORE>
-11.205

>  <SCORE.INTER>
-11.205

>  <SCORE.INTER.CONST>
1

>  <SCORE.INTER.POLAR>
0

>  <SCORE.INTER.ROT>
0

>  <SCORE.INTER.SOLV>
19.0924

>  <SCORE.INTER.VDW>
-17.4341

>  <SCORE.INTER.norm>
-1.01864

>  <SCORE.INTRA>
0

>  <SCORE.INTRA.DIHEDRAL>
0

>  <SCORE.INTRA.DIHEDRAL.0>
0

>  <SCORE.INTRA.POLAR>
0

>  <SCORE.INTRA.POLAR.0>
0

>  <SCORE.INTRA.REPUL>
0

>  <SCORE.INTRA.REPUL.0>
0

>  <SCORE.INTRA.SOLV>
0

>  <SCORE.INTRA.SOLV.lig_0>
-48.9252

>  <SCORE.INTRA.VDW>
0

>  <SCORE.INTRA.VDW.0>
0

>  <SCORE.INTRA.norm>
0

>  <SCORE.RESTR>
0

>  <SCORE.RESTR.CAVITY>
0

>  <SCORE.RESTR.norm>
0

>  <SCORE.SYSTEM>
0

>  <SCORE.SYSTEM.CONST>
0

>  <SCORE.SYSTEM.DIHEDRAL>
0

>  <SCORE.SYSTEM.SOLV>
0

>  <SCORE.SYSTEM.norm>
0

>  <SCORE.heavy>
11

>  <SCORE.norm>
-1.01864

>  <RMSD>
0.557

$$$$
ligand
 OpenBabel11021811493D
libRbt.so/2013.1/901 2013/11/27
 11 12  0  0  0  0  0  0  0  0999 V2000
   12.3237   11.5615    8.7391 N   0  0  0  0  0  0  0  0  0  0  0  0
   11.9285   12.8301    8.9515 C   0  0  0  0  0  0  0  0  0  0  0  0
   12.0459   13.3749   10.2222 N   0  0  0  0  0  0  0  0  0  0  0  0
   11.4213   13.5816    7.9616 N   0  0  0  0  0  0  0  0  0  0  0  0
   11.2821   13.0964    6.7177 C   0  0  0  0  0  0  0  0  0  0  0  0
   11.6821   11.7702    6.4387 C   0  0  0  0  0  0  0  0  0  0  0  0
   12.2219   10.9994    7.5156 C   0  0  0  0  0  0  0  0  0  0  0  0
   12.6323    9.7040    7.3158 N   0  0  0  0  0  0  0  0  0  0  0  0
   11.4316   11.5427    5.1176 N   0  0  0  0  0  0  0  0  0  0  0  0
   10.9164   12.6124    4.5900 C   0  0  0  0  0  0  0  0  0  0  0  0
   10.8056   13.6024    5.5335 N   0  0  0  0  0  0  0  0  0  0  0  0
  1  7  2  0  0  0  0
  1  2  1  0  0  0  0
  2  3  1  0  0  0  0
  2  4  2  0  0  0  0
  4  5  1  0  0  0  0
  5  6  2  0  0  0  0
  5 11  1  0  0  0  0
  6  7  1  0  0  0  0
  6  9  1  0  0  0  0
  7  8  1  0  0  0  0
  9 10  1  0  0  0  0
 10 11  2  0  0  0  0
M  END
>  <CHROM.1>
11.70566666,12.24195900,7.21535750,-0.97840265,1.16210467,-2.18159743

>  <Name>
ligand

>  <RI>
0

>  <Rbt.Current_Directory>
/home/itssahil/PROJECTS/Mol_Feturizer/New_Systems/rnas/4FEO

>  <Rbt.Executable>
rbdock ($Id: //depot/dev/client3/rdock/2013.1/src/exe/rbdock.cxx#4 $)

>  <Rbt.Library>
libRbt.so (2013.1, Build901 2013/11/27)

>  <Rbt.Parameter_File>
/export/apps/rDock/src/rDock_2013.1_src/data/scripts/dock_solv.prm

>  <Rbt.Receptor>
prm/pocket_docking_3.prm

>  <SCORE>
-11.1894

>  <SCORE.INTER>
-11.1894

>  <SCORE.INTER.CONST>
1

>  <SCORE.INTER.POLAR>
0

>  <SCORE.INTER.ROT>
0

>  <SCORE.INTER.SOLV>
19.0778

>  <SCORE.INTER.VDW>
-17.4188

>  <SCORE.INTER.norm>
-1.01722

>  <SCORE.INTRA>
0

>  <SCORE.INTRA.DIHEDRAL>
0

>  <SCORE.INTRA.DIHEDRAL.0>
0

>  <SCORE.INTRA.POLAR>
0

>  <SCORE.INTRA.POLAR.0>
0

>  <SCORE.INTRA.REPUL>
0

>  <SCORE.INTRA.REPUL.0>
0

>  <SCORE.INTRA.SOLV>
0

>  <SCORE.INTRA.SOLV.lig_0>
-48.9252

>  <SCORE.INTRA.VDW>
0

>  <SCORE.INTRA.VDW.0>
0

>  <SCORE.INTRA.norm>
0

>  <SCORE.RESTR>
0

>  <SCORE.RESTR.CAVITY>
0

>  <SCORE.RESTR.norm>
0

>  <SCORE.SYSTEM>
0

>  <SCORE.SYSTEM.CONST>
0

>  <SCORE.SYSTEM.DIHEDRAL>
0

>  <SCORE.SYSTEM.SOLV>
0

>  <SCORE.SYSTEM.norm>
0

>  <SCORE.heavy>
11

>  <SCORE.norm>
-1.01722

>  <RMSD>
0.558

$$$$
ligand
 OpenBabel11021811493D
libRbt.so/2013.1/901 2013/11/27
 11 12  0  0  0  0  0  0  0  0999 V2000
   12.3039   11.5008    8.7310 N   0  0  0  0  0  0  0  0  0  0  0  0
   11.9110   12.7690    8.9502 C   0  0  0  0  0  0  0  0  0  0  0  0
   12.0294   13.3068   10.2237 N   0  0  0  0  0  0  0  0  0  0  0  0
   11.4050   13.5267    7.9644 N   0  0  0  0  0  0  0  0  0  0  0  0
   11.2648   13.0484    6.7179 C   0  0  0  0  0  0  0  0  0  0  0  0
   11.6624   11.7229    6.4319 C   0  0  0  0  0  0  0  0  0  0  0  0
   12.2009   10.9454    7.5046 C   0  0  0  0  0  0  0  0  0  0  0  0
   12.6089    9.6503    7.2978 N   0  0  0  0  0  0  0  0  0  0  0  0
   11.4113   11.5029    5.1096 N   0  0  0  0  0  0  0  0  0  0  0  0
   10.8981   12.5763    4.5878 C   0  0  0  0  0  0  0  0  0  0  0  0
   10.7892   13.5614    5.5364 N   0  0  0  0  0  0  0  0  0  0  0  0
  1  7  2  0  0  0  0
  1  2  1  0  0  0  0
  2  3  1  0  0  0  0
  2  4  2  0  0  0  0
  4  5  1  0  0  0  0
  5  6  2  0  0  0  0
  5 11  1  0  0  0  0
  6  7  1  0  0  0  0
  6  9  1  0  0  0  0
  7  8  1  0  0  0  0
  9 10  1  0  0  0  0
 10 11  2  0  0  0  0
M  END
>  <CHROM.1>
11.68690127,12.19049408,7.21098964,-0.97559312,1.16354797,-2.17887531

>  <Name>
ligand

>  <RI>
0

>  <Rbt.Current_Directory>
/home/itssahil/PROJECTS/Mol_Feturizer/New_Systems/rnas/4FEO

>  <Rbt.Executable>
rbdock ($Id: //depot/dev/client3/rdock/2013.1/src/exe/rbdock.cxx#4 $)

>  <Rbt.Library>
libRbt.so (2013.1, Build901 2013/11/27)

>  <Rbt.Parameter_File>
/export/apps/rDock/src/rDock_2013.1_src/data/scripts/dock_solv.prm

>  <Rbt.Receptor>
prm/pocket_docking_5.prm

>  <SCORE>
-11.1999

>  <SCORE.INTER>
-11.1999

>  <SCORE.INTER.CONST>
1

>  <SCORE.INTER.POLAR>
0

>  <SCORE.INTER.ROT>
0

>  <SCORE.INTER.SOLV>
19.0583

>  <SCORE.INTER.VDW>
-17.4194

>  <SCORE.INTER.norm>
-1.01817

>  <SCORE.INTRA>
0

>  <SCORE.INTRA.DIHEDRAL>
0

>  <SCORE.INTRA.DIHEDRAL.0>
0

>  <SCORE.INTRA.POLAR>
0

>  <SCORE.INTRA.POLAR.0>
0

>  <SCORE.INTRA.REPUL>
0

>  <SCORE.INTRA.REPUL.0>
0

>  <SCORE.INTRA.SOLV>
0

>  <SCORE.INTRA.SOLV.lig_0>
-48.9252

>  <SCORE.INTRA.VDW>
0

>  <SCORE.INTRA.VDW.0>
0

>  <SCORE.INTRA.norm>
0

>  <SCORE.RESTR>
0

>  <SCORE.RESTR.CAVITY>
0

>  <SCORE.RESTR.norm>
0

>  <SCORE.SYSTEM>
0

>  <SCORE.SYSTEM.CONST>
0

>  <SCORE.SYSTEM.DIHEDRAL>
0

>  <SCORE.SYSTEM.SOLV>
0

>  <SCORE.SYSTEM.norm>
0

>  <SCORE.heavy>
11

>  <SCORE.norm>
-1.01817

>  <RMSD>
0.558

$$$$
ligand
 OpenBabel11021811493D
libRbt.so/2013.1/901 2013/11/27
 11 12  0  0  0  0  0  0  0  0999 V2000
   12.3202   11.5549    8.7385 N   0  0  0  0  0  0  0  0  0  0  0  0
   11.9238   12.8231    8.9518 C   0  0  0  0  0  0  0  0  0  0  0  0
   12.0378   13.3662   10.2234 N   0  0  0  0  0  0  0  0  0  0  0  0
   11.4185   13.5756    7.9617 N   0  0  0  0  0  0  0  0  0  0  0  0
   11.2826   13.0921    6.7168 C   0  0  0  0  0  0  0  0  0  0  0  0
   11.6839   11.7665    6.4370 C   0  0  0  0  0  0  0  0  0  0  0  0
   12.2215   10.9944    7.5141 C   0  0  0  0  0  0  0  0  0  0  0  0
   12.6330    9.6995    7.3134 N   0  0  0  0  0  0  0  0  0  0  0  0
   11.4366   11.5407    5.1149 N   0  0  0  0  0  0  0  0  0  0  0  0
   10.9222   12.6108    4.5876 C   0  0  0  0  0  0  0  0  0  0  0  0
   10.8087   13.5994    5.5321 N   0  0  0  0  0  0  0  0  0  0  0  0
  1  7  2  0  0  0  0
  1  2  1  0  0  0  0
  2  3  1  0  0  0  0
  2  4  2  0  0  0  0
  4  5  1  0  0  0  0
  5  6  2  0  0  0  0
  5 11  1  0  0  0  0
  6  7  1  0  0  0  0
  6  9  1  0  0  0  0
  7  8  1  0  0  0  0
  9 10  1  0  0  0  0
 10 11  2  0  0  0  0
M  END
>  <CHROM.1>
11.70536711,12.23718255,7.21427569,-0.98402554,1.16306479,-2.17507657

>  <Name>
ligand

>  <RI>
0

>  <Rbt.Current_Directory>
/home/itssahil/PROJECTS/Mol_Feturizer/New_Systems/rnas/4FEO

>  <Rbt.Executable>
rbdock ($Id: //depot/dev/client3/rdock/2013.1/src/exe/rbdock.cxx#4 $)

>  <Rbt.Library>
libRbt.so (2013.1, Build901 2013/11/27)

>  <Rbt.Parameter_File>
/export/apps/rDock/src/rDock_2013.1_src/data/scripts/dock_solv.prm

>  <Rbt.Receptor>
prm/pocket_docking_7.prm

>  <SCORE>
-11.1947

>  <SCORE.INTER>
-11.1947

>  <SCORE.INTER.CONST>
1

>  <SCORE.INTER.POLAR>
0

>  <SCORE.INTER.ROT>
0

>  <SCORE.INTER.SOLV>
19.0691

>  <SCORE.INTER.VDW>
-17.4195

>  <SCORE.INTER.norm>
-1.0177

>  <SCORE.INTRA>
0

>  <SCORE.INTRA.DIHEDRAL>
0

>  <SCORE.INTRA.DIHEDRAL.0>
0

>  <SCORE.INTRA.POLAR>
0

>  <SCORE.INTRA.POLAR.0>
0

>  <SCORE.INTRA.REPUL>
0

>  <SCORE.INTRA.REPUL.0>
0

>  <SCORE.INTRA.SOLV>
0

>  <SCORE.INTRA.SOLV.lig_0>
-48.9252

>  <SCORE.INTRA.VDW>
0

>  <SCORE.INTRA.VDW.0>
0

>  <SCORE.INTRA.norm>
0

>  <SCORE.RESTR>
0

>  <SCORE.RESTR.CAVITY>
0

>  <SCORE.RESTR.norm>
0

>  <SCORE.SYSTEM>
0

>  <SCORE.SYSTEM.CONST>
0

>  <SCORE.SYSTEM.DIHEDRAL>
0

>  <SCORE.SYSTEM.SOLV>
0

>  <SCORE.SYSTEM.norm>
0

>  <SCORE.heavy>
11

>  <SCORE.norm>
-1.0177

>  <RMSD>
0.558

$$$$
ligand
 OpenBabel11021811493D
libRbt.so/2013.1/901 2013/11/27
 11 12  0  0  0  0  0  0  0  0999 V2000
   12.2824   11.5010    8.7411 N   0  0  0  0  0  0  0  0  0  0  0  0
   11.9234   12.7806    8.9521 C   0  0  0  0  0  0  0  0  0  0  0  0
   12.0598   13.3244   10.2213 N   0  0  0  0  0  0  0  0  0  0  0  0
   11.4342   13.5439    7.9622 N   0  0  0  0  0  0  0  0  0  0  0  0
   11.2778   13.0604    6.7197 C   0  0  0  0  0  0  0  0  0  0  0  0
   11.6398   11.7230    6.4423 C   0  0  0  0  0  0  0  0  0  0  0  0
   12.1612   10.9395    7.5191 C   0  0  0  0  0  0  0  0  0  0  0  0
   12.5346    9.6328    7.3207 N   0  0  0  0  0  0  0  0  0  0  0  0
   11.3789   11.5000    5.1224 N   0  0  0  0  0  0  0  0  0  0  0  0
   10.8922   12.5826    4.5942 C   0  0  0  0  0  0  0  0  0  0  0  0
   10.8120   13.5771    5.5359 N   0  0  0  0  0  0  0  0  0  0  0  0
  1  7  2  0  0  0  0
  1  2  1  0  0  0  0
  2  3  1  0  0  0  0
  2  4  2  0  0  0  0
  4  5  1  0  0  0  0
  5  6  2  0  0  0  0
  5 11  1  0  0  0  0
  6  7  1  0  0  0  0
  6  9  1  0  0  0  0
  7  8  1  0  0  0  0
  9 10  1  0  0  0  0
 10 11  2  0  0  0  0
M  END
>  <CHROM.1>
11.67884588,12.19541569,7.21785223,-0.92941435,1.18279520,-2.22878503

>  <Name>
ligand

>  <RI>
0

>  <Rbt.Current_Directory>
/home/itssahil/PROJECTS/Mol_Feturizer/New_Systems/rnas/4FEO

>  <Rbt.Executable>
rbdock ($Id: //depot/dev/client3/rdock/2013.1/src/exe/rbdock.cxx#4 $)

>  <Rbt.Library>
libRbt.so (2013.1, Build901 2013/11/27)

>  <Rbt.Parameter_File>
/export/apps/rDock/src/rDock_2013.1_src/data/scripts/dock_solv.prm

>  <Rbt.Receptor>
prm/pocket_docking_8.prm

>  <SCORE>
-11.2213

>  <SCORE.INTER>
-11.2213

>  <SCORE.INTER.CONST>
1

>  <SCORE.INTER.POLAR>
0

>  <SCORE.INTER.ROT>
0

>  <SCORE.INTER.SOLV>
19.3097

>  <SCORE.INTER.VDW>
-17.5174

>  <SCORE.INTER.norm>
-1.02012

>  <SCORE.INTRA>
0

>  <SCORE.INTRA.DIHEDRAL>
0

>  <SCORE.INTRA.DIHEDRAL.0>
0

>  <SCORE.INTRA.POLAR>
0

>  <SCORE.INTRA.POLAR.0>
0

>  <SCORE.INTRA.REPUL>
0

>  <SCORE.INTRA.REPUL.0>
0

>  <SCORE.INTRA.SOLV>
0

>  <SCORE.INTRA.SOLV.lig_0>
-48.9252

>  <SCORE.INTRA.VDW>
0

>  <SCORE.INTRA.VDW.0>
0

>  <SCORE.INTRA.norm>
0

>  <SCORE.RESTR>
0

>  <SCORE.RESTR.CAVITY>
0

>  <SCORE.RESTR.norm>
0

>  <SCORE.SYSTEM>
0

>  <SCORE.SYSTEM.CONST>
0

>  <SCORE.SYSTEM.DIHEDRAL>
0

>  <SCORE.SYSTEM.SOLV>
0

>  <SCORE.SYSTEM.norm>
0

>  <SCORE.heavy>
11

>  <SCORE.norm>
-1.02012

>  <RMSD>
0.558

$$$$
ligand
 OpenBabel11021811493D
libRbt.so/2013.1/901 2013/11/27
 11 12  0  0  0  0  0  0  0  0999 V2000
   12.2410   11.5150    8.7503 N   0  0  0  0  0  0  0  0  0  0  0  0
   11.9006   12.8028    8.9411 C   0  0  0  0  0  0  0  0  0  0  0  0
   12.0247   13.3585   10.2063 N   0  0  0  0  0  0  0  0  0  0  0  0
   11.4417   13.5633    7.9346 N   0  0  0  0  0  0  0  0  0  0  0  0
   11.2982   13.0686    6.6949 C   0  0  0  0  0  0  0  0  0  0  0  0
   11.6417   11.7221    6.4384 C   0  0  0  0  0  0  0  0  0  0  0  0
   12.1310   10.9420    7.5326 C   0  0  0  0  0  0  0  0  0  0  0  0
   12.4851    9.6269    7.3550 N   0  0  0  0  0  0  0  0  0  0  0  0
   11.3996   11.4888    5.1168 N   0  0  0  0  0  0  0  0  0  0  0  0
   10.9407   12.5735    4.5684 C   0  0  0  0  0  0  0  0  0  0  0  0
   10.8616   13.5798    5.4976 N   0  0  0  0  0  0  0  0  0  0  0  0
  1  7  2  0  0  0  0
  1  2  1  0  0  0  0
  2  3  1  0  0  0  0
  2  4  2  0  0  0  0
  4  5  1  0  0  0  0
  5  6  2  0  0  0  0
  5 11  1  0  0  0  0
  6  7  1  0  0  0  0
  6  9  1  0  0  0  0
  7  8  1  0  0  0  0
  9 10  1  0  0  0  0
 10 11  2  0  0  0  0
M  END
>  <CHROM.1>
11.67567683,12.20251589,7.20932828,-0.93767724,1.20689476,-2.23219018

>  <Name>
ligand

>  <RI>
0

>  <Rbt.Current_Directory>
/home/itssahil/PROJECTS/Mol_Feturizer/New_Systems/rnas/4FEO

>  <Rbt.Executable>
rbdock ($Id: //depot/dev/client3/rdock/2013.1/src/exe/rbdock.cxx#4 $)

>  <Rbt.Library>
libRbt.so (2013.1, Build901 2013/11/27)

>  <Rbt.Parameter_File>
/export/apps/rDock/src/rDock_2013.1_src/data/scripts/dock_solv.prm

>  <Rbt.Receptor>
prm/blind_docking_40.prm

>  <SCORE>
-11.191

>  <SCORE.INTER>
-11.191

>  <SCORE.INTER.CONST>
1

>  <SCORE.INTER.POLAR>
0

>  <SCORE.INTER.ROT>
0

>  <SCORE.INTER.SOLV>
19.5952

>  <SCORE.INTER.VDW>
-17.5924

>  <SCORE.INTER.norm>
-1.01736

>  <SCORE.INTRA>
0

>  <SCORE.INTRA.DIHEDRAL>
0

>  <SCORE.INTRA.DIHEDRAL.0>
0

>  <SCORE.INTRA.POLAR>
0

>  <SCORE.INTRA.POLAR.0>
0

>  <SCORE.INTRA.REPUL>
0

>  <SCORE.INTRA.REPUL.0>
0

>  <SCORE.INTRA.SOLV>
0

>  <SCORE.INTRA.SOLV.lig_0>
-48.9252

>  <SCORE.INTRA.VDW>
0

>  <SCORE.INTRA.VDW.0>
0

>  <SCORE.INTRA.norm>
0

>  <SCORE.RESTR>
0

>  <SCORE.RESTR.CAVITY>
0

>  <SCORE.RESTR.norm>
0

>  <SCORE.SYSTEM>
0

>  <SCORE.SYSTEM.CONST>
0

>  <SCORE.SYSTEM.DIHEDRAL>
0

>  <SCORE.SYSTEM.SOLV>
0

>  <SCORE.SYSTEM.norm>
0

>  <SCORE.heavy>
11

>  <SCORE.norm>
-1.01736

>  <RMSD>
0.559

$$$$
ligand
 OpenBabel11021811493D
libRbt.so/2013.1/901 2013/11/27
 11 12  0  0  0  0  0  0  0  0999 V2000
   12.2742   11.4992    8.7461 N   0  0  0  0  0  0  0  0  0  0  0  0
   11.9237   12.7828    8.9473 C   0  0  0  0  0  0  0  0  0  0  0  0
   12.0525   13.3319   10.2150 N   0  0  0  0  0  0  0  0  0  0  0  0
   11.4502   13.5451    7.9490 N   0  0  0  0  0  0  0  0  0  0  0  0
   11.3015   13.0565    6.7075 C   0  0  0  0  0  0  0  0  0  0  0  0
   11.6552   11.7148    6.4402 C   0  0  0  0  0  0  0  0  0  0  0  0
   12.1599   10.9326    7.5259 C   0  0  0  0  0  0  0  0  0  0  0  0
   12.5245    9.6219    7.3375 N   0  0  0  0  0  0  0  0  0  0  0  0
   11.4050   11.4872    5.1190 N   0  0  0  0  0  0  0  0  0  0  0  0
   10.9322   12.5711    4.5808 C   0  0  0  0  0  0  0  0  0  0  0  0
   10.8512   13.5710    5.5167 N   0  0  0  0  0  0  0  0  0  0  0  0
  1  7  2  0  0  0  0
  1  2  1  0  0  0  0
  2  3  1  0  0  0  0
  2  4  2  0  0  0  0
  4  5  1  0  0  0  0
  5  6  2  0  0  0  0
  5 11  1  0  0  0  0
  6  7  1  0  0  0  0
  6  9  1  0  0  0  0
  7  8  1  0  0  0  0
  9 10  1  0  0  0  0
 10 11  2  0  0  0  0
M  END
>  <CHROM.1>
11.69079635,12.19084513,7.21373013,-0.93614142,1.19506045,-2.22757424

>  <Name>
ligand

>  <RI>
0

>  <Rbt.Current_Directory>
/home/itssahil/PROJECTS/Mol_Feturizer/New_Systems/rnas/4FEO

>  <Rbt.Executable>
rbdock ($Id: //depot/dev/client3/rdock/2013.1/src/exe/rbdock.cxx#4 $)

>  <Rbt.Library>
libRbt.so (2013.1, Build901 2013/11/27)

>  <Rbt.Parameter_File>
/export/apps/rDock/src/rDock_2013.1_src/data/scripts/dock_solv.prm

>  <Rbt.Receptor>
prm/pocket_docking_5.prm

>  <SCORE>
-11.1964

>  <SCORE.INTER>
-11.1964

>  <SCORE.INTER.CONST>
1

>  <SCORE.INTER.POLAR>
0

>  <SCORE.INTER.ROT>
0

>  <SCORE.INTER.SOLV>
19.3841

>  <SCORE.INTER.VDW>
-17.5257

>  <SCORE.INTER.norm>
-1.01786

>  <SCORE.INTRA>
0

>  <SCORE.INTRA.DIHEDRAL>
0

>  <SCORE.INTRA.DIHEDRAL.0>
0

>  <SCORE.INTRA.POLAR>
0

>  <SCORE.INTRA.POLAR.0>
0

>  <SCORE.INTRA.REPUL>
0

>  <SCORE.INTRA.REPUL.0>
0

>  <SCORE.INTRA.SOLV>
0

>  <SCORE.INTRA.SOLV.lig_0>
-48.9252

>  <SCORE.INTRA.VDW>
0

>  <SCORE.INTRA.VDW.0>
0

>  <SCORE.INTRA.norm>
0

>  <SCORE.RESTR>
0

>  <SCORE.RESTR.CAVITY>
0

>  <SCORE.RESTR.norm>
0

>  <SCORE.SYSTEM>
0

>  <SCORE.SYSTEM.CONST>
0

>  <SCORE.SYSTEM.DIHEDRAL>
0

>  <SCORE.SYSTEM.SOLV>
0

>  <SCORE.SYSTEM.norm>
0

>  <SCORE.heavy>
11

>  <SCORE.norm>
-1.01786

>  <RMSD>
0.559

$$$$
ligand
 OpenBabel11021811493D
libRbt.so/2013.1/901 2013/11/27
 11 12  0  0  0  0  0  0  0  0999 V2000
   12.2885   11.5081    8.7413 N   0  0  0  0  0  0  0  0  0  0  0  0
   11.9275   12.7881    8.9465 C   0  0  0  0  0  0  0  0  0  0  0  0
   12.0608   13.3372   10.2137 N   0  0  0  0  0  0  0  0  0  0  0  0
   11.4392   13.5468    7.9526 N   0  0  0  0  0  0  0  0  0  0  0  0
   11.2856   13.0581    6.7118 C   0  0  0  0  0  0  0  0  0  0  0  0
   11.6498   11.7200    6.4405 C   0  0  0  0  0  0  0  0  0  0  0  0
   12.1702   10.9416    7.5214 C   0  0  0  0  0  0  0  0  0  0  0  0
   12.5457    9.6345    7.3289 N   0  0  0  0  0  0  0  0  0  0  0  0
   11.3917   11.4914    5.1210 N   0  0  0  0  0  0  0  0  0  0  0  0
   10.9046   12.5712    4.5875 C   0  0  0  0  0  0  0  0  0  0  0  0
   10.8214   13.5694    5.5250 N   0  0  0  0  0  0  0  0  0  0  0  0
  1  7  2  0  0  0  0
  1  2  1  0  0  0  0
  2  3  1  0  0  0  0
  2  4  2  0  0  0  0
  4  5  1  0  0  0  0
  5  6  2  0  0  0  0
  5 11  1  0  0  0  0
  6  7  1  0  0  0  0
  6  9  1  0  0  0  0
  7  8  1  0  0  0  0
  9 10  1  0  0  0  0
 10 11  2  0  0  0  0
M  END
>  <CHROM.1>
11.68687408,12.19563278,7.21416740,-0.93532599,1.18292348,-2.22734189

>  <Name>
ligand

>  <RI>
0

>  <Rbt.Current_Directory>
/home/itssahil/PROJECTS/Mol_Feturizer/New_Systems/rnas/4FEO

>  <Rbt.Executable>
rbdock ($Id: //depot/dev/client3/rdock/2013.1/src/exe/rbdock.cxx#4 $)

>  <Rbt.Library>
libRbt.so (2013.1, Build901 2013/11/27)

>  <Rbt.Parameter_File>
/export/apps/rDock/src/rDock_2013.1_src/data/scripts/dock_solv.prm

>  <Rbt.Receptor>
prm/pocket_docking_8.prm

>  <SCORE>
-11.1919

>  <SCORE.INTER>
-11.1919

>  <SCORE.INTER.CONST>
1

>  <SCORE.INTER.POLAR>
0

>  <SCORE.INTER.ROT>
0

>  <SCORE.INTER.SOLV>
19.2996

>  <SCORE.INTER.VDW>
-17.4945

>  <SCORE.INTER.norm>
-1.01745

>  <SCORE.INTRA>
0

>  <SCORE.INTRA.DIHEDRAL>
0

>  <SCORE.INTRA.DIHEDRAL.0>
0

>  <SCORE.INTRA.POLAR>
0

>  <SCORE.INTRA.POLAR.0>
0

>  <SCORE.INTRA.REPUL>
0

>  <SCORE.INTRA.REPUL.0>
0

>  <SCORE.INTRA.SOLV>
0

>  <SCORE.INTRA.SOLV.lig_0>
-48.9252

>  <SCORE.INTRA.VDW>
0

>  <SCORE.INTRA.VDW.0>
0

>  <SCORE.INTRA.norm>
0

>  <SCORE.RESTR>
0

>  <SCORE.RESTR.CAVITY>
0

>  <SCORE.RESTR.norm>
0

>  <SCORE.SYSTEM>
0

>  <SCORE.SYSTEM.CONST>
0

>  <SCORE.SYSTEM.DIHEDRAL>
0

>  <SCORE.SYSTEM.SOLV>
0

>  <SCORE.SYSTEM.norm>
0

>  <SCORE.heavy>
11

>  <SCORE.norm>
-1.01745

>  <RMSD>
0.559

$$$$
ligand
 OpenBabel11021811493D
libRbt.so/2013.1/901 2013/11/27
 11 12  0  0  0  0  0  0  0  0999 V2000
   12.2961   11.4531    8.7324 N   0  0  0  0  0  0  0  0  0  0  0  0
   11.9166   12.7231    8.9641 C   0  0  0  0  0  0  0  0  0  0  0  0
   12.0387   13.2465   10.2432 N   0  0  0  0  0  0  0  0  0  0  0  0
   11.4205   13.4963    7.9853 N   0  0  0  0  0  0  0  0  0  0  0  0
   11.2772   13.0325    6.7337 C   0  0  0  0  0  0  0  0  0  0  0  0
   11.6610   11.7059    6.4346 C   0  0  0  0  0  0  0  0  0  0  0  0
   12.1892   10.9115    7.5001 C   0  0  0  0  0  0  0  0  0  0  0  0
   12.5836    9.6143    7.2806 N   0  0  0  0  0  0  0  0  0  0  0  0
   11.4097   11.5022    5.1098 N   0  0  0  0  0  0  0  0  0  0  0  0
   10.9090   12.5865    4.5982 C   0  0  0  0  0  0  0  0  0  0  0  0
   10.8092   13.5629    5.5569 N   0  0  0  0  0  0  0  0  0  0  0  0
  1  7  2  0  0  0  0
  1  2  1  0  0  0  0
  2  3  1  0  0  0  0
  2  4  2  0  0  0  0
  4  5  1  0  0  0  0
  5  6  2  0  0  0  0
  5 11  1  0  0  0  0
  6  7  1  0  0  0  0
  6  9  1  0  0  0  0
  7  8  1  0  0  0  0
  9 10  1  0  0  0  0
 10 11  2  0  0  0  0
M  END
>  <CHROM.1>
11.68917789,12.16506425,7.21857444,-0.96320328,1.17334982,-2.17993607

>  <Name>
ligand

>  <RI>
0

>  <Rbt.Current_Directory>
/home/itssahil/PROJECTS/Mol_Feturizer/New_Systems/rnas/4FEO

>  <Rbt.Executable>
rbdock ($Id: //depot/dev/client3/rdock/2013.1/src/exe/rbdock.cxx#4 $)

>  <Rbt.Library>
libRbt.so (2013.1, Build901 2013/11/27)

>  <Rbt.Parameter_File>
/export/apps/rDock/src/rDock_2013.1_src/data/scripts/dock_solv.prm

>  <Rbt.Receptor>
prm/pocket_docking_3.prm

>  <SCORE>
-11.1405

>  <SCORE.INTER>
-11.1405

>  <SCORE.INTER.CONST>
1

>  <SCORE.INTER.POLAR>
0

>  <SCORE.INTER.ROT>
0

>  <SCORE.INTER.SOLV>
19.0502

>  <SCORE.INTER.VDW>
-17.3771

>  <SCORE.INTER.norm>
-1.01277

>  <SCORE.INTRA>
0

>  <SCORE.INTRA.DIHEDRAL>
0

>  <SCORE.INTRA.DIHEDRAL.0>
0

>  <SCORE.INTRA.POLAR>
0

>  <SCORE.INTRA.POLAR.0>
0

>  <SCORE.INTRA.REPUL>
0

>  <SCORE.INTRA.REPUL.0>
0

>  <SCORE.INTRA.SOLV>
0

>  <SCORE.INTRA.SOLV.lig_0>
-48.9252

>  <SCORE.INTRA.VDW>
0

>  <SCORE.INTRA.VDW.0>
0

>  <SCORE.INTRA.norm>
0

>  <SCORE.RESTR>
0

>  <SCORE.RESTR.CAVITY>
0

>  <SCORE.RESTR.norm>
0

>  <SCORE.SYSTEM>
0

>  <SCORE.SYSTEM.CONST>
0

>  <SCORE.SYSTEM.DIHEDRAL>
0

>  <SCORE.SYSTEM.SOLV>
0

>  <SCORE.SYSTEM.norm>
0

>  <SCORE.heavy>
11

>  <SCORE.norm>
-1.01277

>  <RMSD>
0.560

$$$$
ligand
 OpenBabel11021811493D
libRbt.so/2013.1/901 2013/11/27
 11 12  0  0  0  0  0  0  0  0999 V2000
   12.3355   11.4215    8.7342 N   0  0  0  0  0  0  0  0  0  0  0  0
   11.9551   12.6876    8.9855 C   0  0  0  0  0  0  0  0  0  0  0  0
   12.0932   13.1969   10.2687 N   0  0  0  0  0  0  0  0  0  0  0  0
   11.4430   13.4701    8.0225 N   0  0  0  0  0  0  0  0  0  0  0  0
   11.2840   13.0199    6.7678 C   0  0  0  0  0  0  0  0  0  0  0  0
   11.6679   11.6980    6.4485 C   0  0  0  0  0  0  0  0  0  0  0  0
   12.2133   10.8935    7.4975 C   0  0  0  0  0  0  0  0  0  0  0  0
   12.6088    9.6002    7.2579 N   0  0  0  0  0  0  0  0  0  0  0  0
   11.3990   11.5085    5.1250 N   0  0  0  0  0  0  0  0  0  0  0  0
   10.8878   12.5967    4.6327 C   0  0  0  0  0  0  0  0  0  0  0  0
   10.7980   13.5619    5.6036 N   0  0  0  0  0  0  0  0  0  0  0  0
  1  7  2  0  0  0  0
  1  2  1  0  0  0  0
  2  3  1  0  0  0  0
  2  4  2  0  0  0  0
  4  5  1  0  0  0  0
  5  6  2  0  0  0  0
  5 11  1  0  0  0  0
  6  7  1  0  0  0  0
  6  9  1  0  0  0  0
  7  8  1  0  0  0  0
  9 10  1  0  0  0  0
 10 11  2  0  0  0  0
M  END
>  <CHROM.1>
11.70541919,12.14844126,7.23709947,-0.93928083,1.16269851,-2.19066428

>  <Name>
ligand

>  <RI>
0

>  <Rbt.Current_Directory>
/home/itssahil/PROJECTS/Mol_Feturizer/New_Systems/rnas/4FEO

>  <Rbt.Executable>
rbdock ($Id: //depot/dev/client3/rdock/2013.1/src/exe/rbdock.cxx#4 $)

>  <Rbt.Library>
libRbt.so (2013.1, Build901 2013/11/27)

>  <Rbt.Parameter_File>
/export/apps/rDock/src/rDock_2013.1_src/data/scripts/dock_solv.prm

>  <Rbt.Receptor>
prm/pocket_docking_8.prm

>  <SCORE>
-11.1476

>  <SCORE.INTER>
-11.1476

>  <SCORE.INTER.CONST>
1

>  <SCORE.INTER.POLAR>
0

>  <SCORE.INTER.ROT>
0

>  <SCORE.INTER.SOLV>
18.8852

>  <SCORE.INTER.VDW>
-17.3268

>  <SCORE.INTER.norm>
-1.01342

>  <SCORE.INTRA>
0

>  <SCORE.INTRA.DIHEDRAL>
0

>  <SCORE.INTRA.DIHEDRAL.0>
0

>  <SCORE.INTRA.POLAR>
0

>  <SCORE.INTRA.POLAR.0>
0

>  <SCORE.INTRA.REPUL>
0

>  <SCORE.INTRA.REPUL.0>
0

>  <SCORE.INTRA.SOLV>
0

>  <SCORE.INTRA.SOLV.lig_0>
-48.9252

>  <SCORE.INTRA.VDW>
0

>  <SCORE.INTRA.VDW.0>
0

>  <SCORE.INTRA.norm>
0

>  <SCORE.RESTR>
0

>  <SCORE.RESTR.CAVITY>
0

>  <SCORE.RESTR.norm>
0

>  <SCORE.SYSTEM>
0

>  <SCORE.SYSTEM.CONST>
0

>  <SCORE.SYSTEM.DIHEDRAL>
0

>  <SCORE.SYSTEM.SOLV>
0

>  <SCORE.SYSTEM.norm>
0

>  <SCORE.heavy>
11

>  <SCORE.norm>
-1.01342

>  <RMSD>
0.560

$$$$
ligand
 OpenBabel11021811493D
libRbt.so/2013.1/901 2013/11/27
 11 12  0  0  0  0  0  0  0  0999 V2000
   12.3497   11.4339    8.7330 N   0  0  0  0  0  0  0  0  0  0  0  0
   11.9653   12.6989    8.9834 C   0  0  0  0  0  0  0  0  0  0  0  0
   12.1051   13.2107   10.2654 N   0  0  0  0  0  0  0  0  0  0  0  0
   11.4475   13.4779    8.0206 N   0  0  0  0  0  0  0  0  0  0  0  0
   11.2866   13.0251    6.7671 C   0  0  0  0  0  0  0  0  0  0  0  0
   11.6745   11.7041    6.4488 C   0  0  0  0  0  0  0  0  0  0  0  0
   12.2260   10.9034    7.4975 C   0  0  0  0  0  0  0  0  0  0  0  0
   12.6256    9.6112    7.2589 N   0  0  0  0  0  0  0  0  0  0  0  0
   11.4026   11.5115    5.1263 N   0  0  0  0  0  0  0  0  0  0  0  0
   10.8858   12.5970    4.6338 C   0  0  0  0  0  0  0  0  0  0  0  0
   10.7952   13.5634    5.6034 N   0  0  0  0  0  0  0  0  0  0  0  0
  1  7  2  0  0  0  0
  1  2  1  0  0  0  0
  2  3  1  0  0  0  0
  2  4  2  0  0  0  0
  4  5  1  0  0  0  0
  5  6  2  0  0  0  0
  5 11  1  0  0  0  0
  6  7  1  0  0  0  0
  6  9  1  0  0  0  0
  7  8  1  0  0  0  0
  9 10  1  0  0  0  0
 10 11  2  0  0  0  0
M  END
>  <CHROM.1>
11.71260472,12.15598308,7.23656369,-0.93895231,1.15796771,-2.19255940

>  <Name>
ligand

>  <RI>
0

>  <Rbt.Current_Directory>
/home/itssahil/PROJECTS/Mol_Feturizer/New_Systems/rnas/4FEO

>  <Rbt.Executable>
rbdock ($Id: //depot/dev/client3/rdock/2013.1/src/exe/rbdock.cxx#4 $)

>  <Rbt.Library>
libRbt.so (2013.1, Build901 2013/11/27)

>  <Rbt.Parameter_File>
/export/apps/rDock/src/rDock_2013.1_src/data/scripts/dock_solv.prm

>  <Rbt.Receptor>
prm/blind_docking_40.prm

>  <SCORE>
-11.1457

>  <SCORE.INTER>
-11.1457

>  <SCORE.INTER.CONST>
1

>  <SCORE.INTER.POLAR>
0

>  <SCORE.INTER.ROT>
0

>  <SCORE.INTER.SOLV>
18.844

>  <SCORE.INTER.VDW>
-17.3118

>  <SCORE.INTER.norm>
-1.01325

>  <SCORE.INTRA>
0

>  <SCORE.INTRA.DIHEDRAL>
0

>  <SCORE.INTRA.DIHEDRAL.0>
0

>  <SCORE.INTRA.POLAR>
0

>  <SCORE.INTRA.POLAR.0>
0

>  <SCORE.INTRA.REPUL>
0

>  <SCORE.INTRA.REPUL.0>
0

>  <SCORE.INTRA.SOLV>
0

>  <SCORE.INTRA.SOLV.lig_0>
-48.9252

>  <SCORE.INTRA.VDW>
0

>  <SCORE.INTRA.VDW.0>
0

>  <SCORE.INTRA.norm>
0

>  <SCORE.RESTR>
0

>  <SCORE.RESTR.CAVITY>
0

>  <SCORE.RESTR.norm>
0

>  <SCORE.SYSTEM>
0

>  <SCORE.SYSTEM.CONST>
0

>  <SCORE.SYSTEM.DIHEDRAL>
0

>  <SCORE.SYSTEM.SOLV>
0

>  <SCORE.SYSTEM.norm>
0

>  <SCORE.heavy>
11

>  <SCORE.norm>
-1.01325

>  <RMSD>
0.561

$$$$
ligand
 OpenBabel11021811493D
libRbt.so/2013.1/901 2013/11/27
 11 12  0  0  0  0  0  0  0  0999 V2000
   12.2722   11.5005    8.7438 N   0  0  0  0  0  0  0  0  0  0  0  0
   11.9231   12.7842    8.9462 C   0  0  0  0  0  0  0  0  0  0  0  0
   12.0531   13.3322   10.2142 N   0  0  0  0  0  0  0  0  0  0  0  0
   11.4499   13.5477    7.9487 N   0  0  0  0  0  0  0  0  0  0  0  0
   11.3001   13.0603    6.7069 C   0  0  0  0  0  0  0  0  0  0  0  0
   11.6523   11.7185    6.4384 C   0  0  0  0  0  0  0  0  0  0  0  0
   12.1568   10.9349    7.5232 C   0  0  0  0  0  0  0  0  0  0  0  0
   12.5200    9.6240    7.3336 N   0  0  0  0  0  0  0  0  0  0  0  0
   11.4012   11.4922    5.1172 N   0  0  0  0  0  0  0  0  0  0  0  0
   10.9292   12.5769    4.5800 C   0  0  0  0  0  0  0  0  0  0  0  0
   10.8497   13.5761    5.5168 N   0  0  0  0  0  0  0  0  0  0  0  0
  1  7  2  0  0  0  0
  1  2  1  0  0  0  0
  2  3  1  0  0  0  0
  2  4  2  0  0  0  0
  4  5  1  0  0  0  0
  5  6  2  0  0  0  0
  5 11  1  0  0  0  0
  6  7  1  0  0  0  0
  6  9  1  0  0  0  0
  7  8  1  0  0  0  0
  9 10  1  0  0  0  0
 10 11  2  0  0  0  0
M  END
>  <CHROM.1>
11.68875258,12.19384064,7.21229121,-0.93343244,1.19551593,-2.22930279

>  <Name>
ligand

>  <RI>
0

>  <Rbt.Current_Directory>
/home/itssahil/PROJECTS/Mol_Feturizer/New_Systems/rnas/4FEO

>  <Rbt.Executable>
rbdock ($Id: //depot/dev/client3/rdock/2013.1/src/exe/rbdock.cxx#4 $)

>  <Rbt.Library>
libRbt.so (2013.1, Build901 2013/11/27)

>  <Rbt.Parameter_File>
/export/apps/rDock/src/rDock_2013.1_src/data/scripts/dock_solv.prm

>  <Rbt.Receptor>
prm/blind_docking_40.prm

>  <SCORE>
-11.1965

>  <SCORE.INTER>
-11.1965

>  <SCORE.INTER.CONST>
1

>  <SCORE.INTER.POLAR>
0

>  <SCORE.INTER.ROT>
0

>  <SCORE.INTER.SOLV>
19.3989

>  <SCORE.INTER.VDW>
-17.5306

>  <SCORE.INTER.norm>
-1.01787

>  <SCORE.INTRA>
0

>  <SCORE.INTRA.DIHEDRAL>
0

>  <SCORE.INTRA.DIHEDRAL.0>
0

>  <SCORE.INTRA.POLAR>
0

>  <SCORE.INTRA.POLAR.0>
0

>  <SCORE.INTRA.REPUL>
0

>  <SCORE.INTRA.REPUL.0>
0

>  <SCORE.INTRA.SOLV>
0

>  <SCORE.INTRA.SOLV.lig_0>
-48.9252

>  <SCORE.INTRA.VDW>
0

>  <SCORE.INTRA.VDW.0>
0

>  <SCORE.INTRA.norm>
0

>  <SCORE.RESTR>
0

>  <SCORE.RESTR.CAVITY>
0

>  <SCORE.RESTR.norm>
0

>  <SCORE.SYSTEM>
0

>  <SCORE.SYSTEM.CONST>
0

>  <SCORE.SYSTEM.DIHEDRAL>
0

>  <SCORE.SYSTEM.SOLV>
0

>  <SCORE.SYSTEM.norm>
0

>  <SCORE.heavy>
11

>  <SCORE.norm>
-1.01787

>  <RMSD>
0.561

$$$$
ligand
 OpenBabel11021811493D
libRbt.so/2013.1/901 2013/11/27
 11 12  0  0  0  0  0  0  0  0999 V2000
   12.2889   11.5117    8.7356 N   0  0  0  0  0  0  0  0  0  0  0  0
   11.9201   12.7884    8.9469 C   0  0  0  0  0  0  0  0  0  0  0  0
   12.0507   13.3325   10.2165 N   0  0  0  0  0  0  0  0  0  0  0  0
   11.4266   13.5487    7.9567 N   0  0  0  0  0  0  0  0  0  0  0  0
   11.2754   13.0647    6.7138 C   0  0  0  0  0  0  0  0  0  0  0  0
   11.6478   11.7302    6.4360 C   0  0  0  0  0  0  0  0  0  0  0  0
   12.1736   10.9500    7.5131 C   0  0  0  0  0  0  0  0  0  0  0  0
   12.5570    9.6462    7.3144 N   0  0  0  0  0  0  0  0  0  0  0  0
   11.3904   11.5060    5.1157 N   0  0  0  0  0  0  0  0  0  0  0  0
   10.8963   12.5853    4.5874 C   0  0  0  0  0  0  0  0  0  0  0  0
   10.8073   13.5786    5.5296 N   0  0  0  0  0  0  0  0  0  0  0  0
  1  7  2  0  0  0  0
  1  2  1  0  0  0  0
  2  3  1  0  0  0  0
  2  4  2  0  0  0  0
  4  5  1  0  0  0  0
  5  6  2  0  0  0  0
  5 11  1  0  0  0  0
  6  7  1  0  0  0  0
  6  9  1  0  0  0  0
  7  8  1  0  0  0  0
  9 10  1  0  0  0  0
 10 11  2  0  0  0  0
M  END
>  <CHROM.1>
11.68226219,12.20246939,7.21192117,-0.94415961,1.17765949,-2.21455517

>  <Name>
ligand

>  <RI>
0

>  <Rbt.Current_Directory>
/home/itssahil/PROJECTS/Mol_Feturizer/New_Systems/rnas/4FEO

>  <Rbt.Executable>
rbdock ($Id: //depot/dev/client3/rdock/2013.1/src/exe/rbdock.cxx#4 $)

>  <Rbt.Library>
libRbt.so (2013.1, Build901 2013/11/27)

>  <Rbt.Parameter_File>
/export/apps/rDock/src/rDock_2013.1_src/data/scripts/dock_solv.prm

>  <Rbt.Receptor>
prm/pocket_docking_8.prm

>  <SCORE>
-11.1928

>  <SCORE.INTER>
-11.1928

>  <SCORE.INTER.CONST>
1

>  <SCORE.INTER.POLAR>
0

>  <SCORE.INTER.ROT>
0

>  <SCORE.INTER.SOLV>
19.2518

>  <SCORE.INTER.VDW>
-17.4792

>  <SCORE.INTER.norm>
-1.01753

>  <SCORE.INTRA>
0

>  <SCORE.INTRA.DIHEDRAL>
0

>  <SCORE.INTRA.DIHEDRAL.0>
0

>  <SCORE.INTRA.POLAR>
0

>  <SCORE.INTRA.POLAR.0>
0

>  <SCORE.INTRA.REPUL>
0

>  <SCORE.INTRA.REPUL.0>
0

>  <SCORE.INTRA.SOLV>
0

>  <SCORE.INTRA.SOLV.lig_0>
-48.9252

>  <SCORE.INTRA.VDW>
0

>  <SCORE.INTRA.VDW.0>
0

>  <SCORE.INTRA.norm>
0

>  <SCORE.RESTR>
0

>  <SCORE.RESTR.CAVITY>
0

>  <SCORE.RESTR.norm>
0

>  <SCORE.SYSTEM>
0

>  <SCORE.SYSTEM.CONST>
0

>  <SCORE.SYSTEM.DIHEDRAL>
0

>  <SCORE.SYSTEM.SOLV>
0

>  <SCORE.SYSTEM.norm>
0

>  <SCORE.heavy>
11

>  <SCORE.norm>
-1.01753

>  <RMSD>
0.561

$$$$
ligand
 OpenBabel11021811493D
libRbt.so/2013.1/901 2013/11/27
 11 12  0  0  0  0  0  0  0  0999 V2000
   12.2744   11.5045    8.7445 N   0  0  0  0  0  0  0  0  0  0  0  0
   11.9257   12.7888    8.9436 C   0  0  0  0  0  0  0  0  0  0  0  0
   12.0552   13.3398   10.2103 N   0  0  0  0  0  0  0  0  0  0  0  0
   11.4532   13.5501    7.9440 N   0  0  0  0  0  0  0  0  0  0  0  0
   11.3039   13.0597    6.7033 C   0  0  0  0  0  0  0  0  0  0  0  0
   11.6557   11.7171    6.4383 C   0  0  0  0  0  0  0  0  0  0  0  0
   12.1594   10.9359    7.5252 C   0  0  0  0  0  0  0  0  0  0  0  0
   12.5222    9.6244    7.3390 N   0  0  0  0  0  0  0  0  0  0  0  0
   11.4053   11.4876    5.1174 N   0  0  0  0  0  0  0  0  0  0  0  0
   10.9340   12.5712    4.5774 C   0  0  0  0  0  0  0  0  0  0  0  0
   10.8543   13.5728    5.5117 N   0  0  0  0  0  0  0  0  0  0  0  0
  1  7  2  0  0  0  0
  1  2  1  0  0  0  0
  2  3  1  0  0  0  0
  2  4  2  0  0  0  0
  4  5  1  0  0  0  0
  5  6  2  0  0  0  0
  5 11  1  0  0  0  0
  6  7  1  0  0  0  0
  6  9  1  0  0  0  0
  7  8  1  0  0  0  0
  9 10  1  0  0  0  0
 10 11  2  0  0  0  0
M  END
>  <CHROM.1>
11.69200146,12.19432028,7.21098838,-0.93392362,1.19614723,-2.23128880

>  <Name>
ligand

>  <RI>
0

>  <Rbt.Current_Directory>
/home/itssahil/PROJECTS/Mol_Feturizer/New_Systems/rnas/4FEO

>  <Rbt.Executable>
rbdock ($Id: //depot/dev/client3/rdock/2013.1/src/exe/rbdock.cxx#4 $)

>  <Rbt.Library>
libRbt.so (2013.1, Build901 2013/11/27)

>  <Rbt.Parameter_File>
/export/apps/rDock/src/rDock_2013.1_src/data/scripts/dock_solv.prm

>  <Rbt.Receptor>
prm/blind_docking_100.prm

>  <SCORE>
-11.1928

>  <SCORE.INTER>
-11.1928

>  <SCORE.INTER.CONST>
1

>  <SCORE.INTER.POLAR>
0

>  <SCORE.INTER.ROT>
0

>  <SCORE.INTER.SOLV>
19.4061

>  <SCORE.INTER.VDW>
-17.5306

>  <SCORE.INTER.norm>
-1.01753

>  <SCORE.INTRA>
0

>  <SCORE.INTRA.DIHEDRAL>
0

>  <SCORE.INTRA.DIHEDRAL.0>
0

>  <SCORE.INTRA.POLAR>
0

>  <SCORE.INTRA.POLAR.0>
0

>  <SCORE.INTRA.REPUL>
0

>  <SCORE.INTRA.REPUL.0>
0

>  <SCORE.INTRA.SOLV>
0

>  <SCORE.INTRA.SOLV.lig_0>
-48.9252

>  <SCORE.INTRA.VDW>
0

>  <SCORE.INTRA.VDW.0>
0

>  <SCORE.INTRA.norm>
0

>  <SCORE.RESTR>
0

>  <SCORE.RESTR.CAVITY>
0

>  <SCORE.RESTR.norm>
0

>  <SCORE.SYSTEM>
0

>  <SCORE.SYSTEM.CONST>
0

>  <SCORE.SYSTEM.DIHEDRAL>
0

>  <SCORE.SYSTEM.SOLV>
0

>  <SCORE.SYSTEM.norm>
0

>  <SCORE.heavy>
11

>  <SCORE.norm>
-1.01753

>  <RMSD>
0.562

$$$$
ligand
 OpenBabel11021811493D
libRbt.so/2013.1/901 2013/11/27
 11 12  0  0  0  0  0  0  0  0999 V2000
   12.3184   11.4934    8.7301 N   0  0  0  0  0  0  0  0  0  0  0  0
   11.9375   12.7649    8.9511 C   0  0  0  0  0  0  0  0  0  0  0  0
   12.0729   13.3040   10.2224 N   0  0  0  0  0  0  0  0  0  0  0  0
   11.4275   13.5248    7.9690 N   0  0  0  0  0  0  0  0  0  0  0  0
   11.2710   13.0455    6.7249 C   0  0  0  0  0  0  0  0  0  0  0  0
   11.6555   11.7166    6.4372 C   0  0  0  0  0  0  0  0  0  0  0  0
   12.1988   10.9367    7.5058 C   0  0  0  0  0  0  0  0  0  0  0  0
   12.5946    9.6382    7.2972 N   0  0  0  0  0  0  0  0  0  0  0  0
   11.3894   11.4963    5.1179 N   0  0  0  0  0  0  0  0  0  0  0  0
   10.8792   12.5728    4.5993 C   0  0  0  0  0  0  0  0  0  0  0  0
   10.7875   13.5603    5.5473 N   0  0  0  0  0  0  0  0  0  0  0  0
  1  7  2  0  0  0  0
  1  2  1  0  0  0  0
  2  3  1  0  0  0  0
  2  4  2  0  0  0  0
  4  5  1  0  0  0  0
  5  6  2  0  0  0  0
  5 11  1  0  0  0  0
  6  7  1  0  0  0  0
  6  9  1  0  0  0  0
  7  8  1  0  0  0  0
  9 10  1  0  0  0  0
 10 11  2  0  0  0  0
M  END
>  <CHROM.1>
11.69142708,12.18524315,7.21517249,-0.94350962,1.16393888,-2.21005559

>  <Name>
ligand

>  <RI>
0

>  <Rbt.Current_Directory>
/home/itssahil/PROJECTS/Mol_Feturizer/New_Systems/rnas/4FEO

>  <Rbt.Executable>
rbdock ($Id: //depot/dev/client3/rdock/2013.1/src/exe/rbdock.cxx#4 $)

>  <Rbt.Library>
libRbt.so (2013.1, Build901 2013/11/27)

>  <Rbt.Parameter_File>
/export/apps/rDock/src/rDock_2013.1_src/data/scripts/dock_solv.prm

>  <Rbt.Receptor>
prm/pocket_docking_4.prm

>  <SCORE>
-11.1694

>  <SCORE.INTER>
-11.1694

>  <SCORE.INTER.CONST>
1

>  <SCORE.INTER.POLAR>
0

>  <SCORE.INTER.ROT>
0

>  <SCORE.INTER.SOLV>
19.0393

>  <SCORE.INTER.VDW>
-17.3927

>  <SCORE.INTER.norm>
-1.0154

>  <SCORE.INTRA>
0

>  <SCORE.INTRA.DIHEDRAL>
0

>  <SCORE.INTRA.DIHEDRAL.0>
0

>  <SCORE.INTRA.POLAR>
0

>  <SCORE.INTRA.POLAR.0>
0

>  <SCORE.INTRA.REPUL>
0

>  <SCORE.INTRA.REPUL.0>
0

>  <SCORE.INTRA.SOLV>
0

>  <SCORE.INTRA.SOLV.lig_0>
-48.9252

>  <SCORE.INTRA.VDW>
0

>  <SCORE.INTRA.VDW.0>
0

>  <SCORE.INTRA.norm>
0

>  <SCORE.RESTR>
0

>  <SCORE.RESTR.CAVITY>
0

>  <SCORE.RESTR.norm>
0

>  <SCORE.SYSTEM>
0

>  <SCORE.SYSTEM.CONST>
0

>  <SCORE.SYSTEM.DIHEDRAL>
0

>  <SCORE.SYSTEM.SOLV>
0

>  <SCORE.SYSTEM.norm>
0

>  <SCORE.heavy>
11

>  <SCORE.norm>
-1.0154

>  <RMSD>
0.562

$$$$
ligand
 OpenBabel11021811493D
libRbt.so/2013.1/901 2013/11/27
 11 12  0  0  0  0  0  0  0  0999 V2000
   12.2926   11.5363    8.7309 N   0  0  0  0  0  0  0  0  0  0  0  0
   11.9065   12.8086    8.9380 C   0  0  0  0  0  0  0  0  0  0  0  0
   12.0257   13.3572   10.2068 N   0  0  0  0  0  0  0  0  0  0  0  0
   11.4065   13.5602    7.9445 N   0  0  0  0  0  0  0  0  0  0  0  0
   11.2658   13.0715    6.7021 C   0  0  0  0  0  0  0  0  0  0  0  0
   11.6564   11.7413    6.4287 C   0  0  0  0  0  0  0  0  0  0  0  0
   12.1887   10.9705    7.5094 C   0  0  0  0  0  0  0  0  0  0  0  0
   12.5897    9.6713    7.3150 N   0  0  0  0  0  0  0  0  0  0  0  0
   11.4064   11.5108    5.1080 N   0  0  0  0  0  0  0  0  0  0  0  0
   10.9001   12.5823    4.5756 C   0  0  0  0  0  0  0  0  0  0  0  0
   10.7951   13.5765    5.5152 N   0  0  0  0  0  0  0  0  0  0  0  0
  1  7  2  0  0  0  0
  1  2  1  0  0  0  0
  2  3  1  0  0  0  0
  2  4  2  0  0  0  0
  4  5  1  0  0  0  0
  5  6  2  0  0  0  0
  5 11  1  0  0  0  0
  6  7  1  0  0  0  0
  6  9  1  0  0  0  0
  7  8  1  0  0  0  0
  9 10  1  0  0  0  0
 10 11  2  0  0  0  0
M  END
>  <CHROM.1>
11.68215014,12.21572782,7.20364650,-0.97100368,1.16915382,-2.19209648

>  <Name>
ligand

>  <RI>
0

>  <Rbt.Current_Directory>
/home/itssahil/PROJECTS/Mol_Feturizer/New_Systems/rnas/4FEO

>  <Rbt.Executable>
rbdock ($Id: //depot/dev/client3/rdock/2013.1/src/exe/rbdock.cxx#4 $)

>  <Rbt.Library>
libRbt.so (2013.1, Build901 2013/11/27)

>  <Rbt.Parameter_File>
/export/apps/rDock/src/rDock_2013.1_src/data/scripts/dock_solv.prm

>  <Rbt.Receptor>
prm/pocket_docking_5.prm

>  <SCORE>
-11.1961

>  <SCORE.INTER>
-11.1961

>  <SCORE.INTER.CONST>
1

>  <SCORE.INTER.POLAR>
0

>  <SCORE.INTER.ROT>
0

>  <SCORE.INTER.SOLV>
19.2011

>  <SCORE.INTER.VDW>
-17.4645

>  <SCORE.INTER.norm>
-1.01783

>  <SCORE.INTRA>
0

>  <SCORE.INTRA.DIHEDRAL>
0

>  <SCORE.INTRA.DIHEDRAL.0>
0

>  <SCORE.INTRA.POLAR>
0

>  <SCORE.INTRA.POLAR.0>
0

>  <SCORE.INTRA.REPUL>
0

>  <SCORE.INTRA.REPUL.0>
0

>  <SCORE.INTRA.SOLV>
0

>  <SCORE.INTRA.SOLV.lig_0>
-48.9252

>  <SCORE.INTRA.VDW>
0

>  <SCORE.INTRA.VDW.0>
0

>  <SCORE.INTRA.norm>
0

>  <SCORE.RESTR>
0

>  <SCORE.RESTR.CAVITY>
0

>  <SCORE.RESTR.norm>
0

>  <SCORE.SYSTEM>
0

>  <SCORE.SYSTEM.CONST>
0

>  <SCORE.SYSTEM.DIHEDRAL>
0

>  <SCORE.SYSTEM.SOLV>
0

>  <SCORE.SYSTEM.norm>
0

>  <SCORE.heavy>
11

>  <SCORE.norm>
-1.01783

>  <RMSD>
0.562

$$$$
ligand
 OpenBabel11021811493D
libRbt.so/2013.1/901 2013/11/27
 11 12  0  0  0  0  0  0  0  0999 V2000
   12.3108   11.4926    8.7307 N   0  0  0  0  0  0  0  0  0  0  0  0
   11.9307   12.7651    8.9470 C   0  0  0  0  0  0  0  0  0  0  0  0
   12.0592   13.3063   10.2181 N   0  0  0  0  0  0  0  0  0  0  0  0
   11.4280   13.5240    7.9605 N   0  0  0  0  0  0  0  0  0  0  0  0
   11.2784   13.0427    6.7162 C   0  0  0  0  0  0  0  0  0  0  0  0
   11.6624   11.7126    6.4334 C   0  0  0  0  0  0  0  0  0  0  0  0
   12.1978   10.9338    7.5067 C   0  0  0  0  0  0  0  0  0  0  0  0
   12.5928    9.6343    7.3029 N   0  0  0  0  0  0  0  0  0  0  0  0
   11.4041   11.4903    5.1128 N   0  0  0  0  0  0  0  0  0  0  0  0
   10.8989   12.5667    4.5892 C   0  0  0  0  0  0  0  0  0  0  0  0
   10.8030   13.5561    5.5348 N   0  0  0  0  0  0  0  0  0  0  0  0
  1  7  2  0  0  0  0
  1  2  1  0  0  0  0
  2  3  1  0  0  0  0
  2  4  2  0  0  0  0
  4  5  1  0  0  0  0
  5  6  2  0  0  0  0
  5 11  1  0  0  0  0
  6  7  1  0  0  0  0
  6  9  1  0  0  0  0
  7  8  1  0  0  0  0
  9 10  1  0  0  0  0
 10 11  2  0  0  0  0
M  END
>  <CHROM.1>
11.69435504,12.18266058,7.21069241,-0.95361444,1.16891914,-2.20260003

>  <Name>
ligand

>  <RI>
0

>  <Rbt.Current_Directory>
/home/itssahil/PROJECTS/Mol_Feturizer/New_Systems/rnas/4FEO

>  <Rbt.Executable>
rbdock ($Id: //depot/dev/client3/rdock/2013.1/src/exe/rbdock.cxx#4 $)

>  <Rbt.Library>
libRbt.so (2013.1, Build901 2013/11/27)

>  <Rbt.Parameter_File>
/export/apps/rDock/src/rDock_2013.1_src/data/scripts/dock_solv.prm

>  <Rbt.Receptor>
prm/pocket_docking_7.prm

>  <SCORE>
-11.2123

>  <SCORE.INTER>
-11.2123

>  <SCORE.INTER.CONST>
1

>  <SCORE.INTER.POLAR>
0

>  <SCORE.INTER.ROT>
0

>  <SCORE.INTER.SOLV>
19.074

>  <SCORE.INTER.VDW>
-17.4329

>  <SCORE.INTER.norm>
-1.0193

>  <SCORE.INTRA>
0

>  <SCORE.INTRA.DIHEDRAL>
0

>  <SCORE.INTRA.DIHEDRAL.0>
0

>  <SCORE.INTRA.POLAR>
0

>  <SCORE.INTRA.POLAR.0>
0

>  <SCORE.INTRA.REPUL>
0

>  <SCORE.INTRA.REPUL.0>
0

>  <SCORE.INTRA.SOLV>
0

>  <SCORE.INTRA.SOLV.lig_0>
-48.9252

>  <SCORE.INTRA.VDW>
0

>  <SCORE.INTRA.VDW.0>
0

>  <SCORE.INTRA.norm>
0

>  <SCORE.RESTR>
0

>  <SCORE.RESTR.CAVITY>
0

>  <SCORE.RESTR.norm>
0

>  <SCORE.SYSTEM>
0

>  <SCORE.SYSTEM.CONST>
0

>  <SCORE.SYSTEM.DIHEDRAL>
0

>  <SCORE.SYSTEM.SOLV>
0

>  <SCORE.SYSTEM.norm>
0

>  <SCORE.heavy>
11

>  <SCORE.norm>
-1.0193

>  <RMSD>
0.562

$$$$
ligand
 OpenBabel11021811493D
libRbt.so/2013.1/901 2013/11/27
 11 12  0  0  0  0  0  0  0  0999 V2000
   12.3051   11.5080    8.7317 N   0  0  0  0  0  0  0  0  0  0  0  0
   11.9229   12.7804    8.9456 C   0  0  0  0  0  0  0  0  0  0  0  0
   12.0466   13.3228   10.2166 N   0  0  0  0  0  0  0  0  0  0  0  0
   11.4226   13.5379    7.9567 N   0  0  0  0  0  0  0  0  0  0  0  0
   11.2777   13.0553    6.7124 C   0  0  0  0  0  0  0  0  0  0  0  0
   11.6640   11.7253    6.4320 C   0  0  0  0  0  0  0  0  0  0  0  0
   12.1967   10.9481    7.5078 C   0  0  0  0  0  0  0  0  0  0  0  0
   12.5938    9.6487    7.3065 N   0  0  0  0  0  0  0  0  0  0  0  0
   11.4103   11.5016    5.1108 N   0  0  0  0  0  0  0  0  0  0  0  0
   10.9057   12.5769    4.5846 C   0  0  0  0  0  0  0  0  0  0  0  0
   10.8056   13.5671    5.5290 N   0  0  0  0  0  0  0  0  0  0  0  0
  1  7  2  0  0  0  0
  1  2  1  0  0  0  0
  2  3  1  0  0  0  0
  2  4  2  0  0  0  0
  4  5  1  0  0  0  0
  5  6  2  0  0  0  0
  5 11  1  0  0  0  0
  6  7  1  0  0  0  0
  6  9  1  0  0  0  0
  7  8  1  0  0  0  0
  9 10  1  0  0  0  0
 10 11  2  0  0  0  0
M  END
>  <CHROM.1>
11.69289504,12.19609483,7.20901118,-0.96200931,1.17000004,-2.19577089

>  <Name>
ligand

>  <RI>
0

>  <Rbt.Current_Directory>
/home/itssahil/PROJECTS/Mol_Feturizer/New_Systems/rnas/4FEO

>  <Rbt.Executable>
rbdock ($Id: //depot/dev/client3/rdock/2013.1/src/exe/rbdock.cxx#4 $)

>  <Rbt.Library>
libRbt.so (2013.1, Build901 2013/11/27)

>  <Rbt.Parameter_File>
/export/apps/rDock/src/rDock_2013.1_src/data/scripts/dock_solv.prm

>  <Rbt.Receptor>
prm/pocket_docking_7.prm

>  <SCORE>
-11.1674

>  <SCORE.INTER>
-11.1674

>  <SCORE.INTER.CONST>
1

>  <SCORE.INTER.POLAR>
0

>  <SCORE.INTER.ROT>
0

>  <SCORE.INTER.SOLV>
19.1125

>  <SCORE.INTER.VDW>
-17.4158

>  <SCORE.INTER.norm>
-1.01522

>  <SCORE.INTRA>
0

>  <SCORE.INTRA.DIHEDRAL>
0

>  <SCORE.INTRA.DIHEDRAL.0>
0

>  <SCORE.INTRA.POLAR>
0

>  <SCORE.INTRA.POLAR.0>
0

>  <SCORE.INTRA.REPUL>
0

>  <SCORE.INTRA.REPUL.0>
0

>  <SCORE.INTRA.SOLV>
0

>  <SCORE.INTRA.SOLV.lig_0>
-48.9252

>  <SCORE.INTRA.VDW>
0

>  <SCORE.INTRA.VDW.0>
0

>  <SCORE.INTRA.norm>
0

>  <SCORE.RESTR>
0

>  <SCORE.RESTR.CAVITY>
0

>  <SCORE.RESTR.norm>
0

>  <SCORE.SYSTEM>
0

>  <SCORE.SYSTEM.CONST>
0

>  <SCORE.SYSTEM.DIHEDRAL>
0

>  <SCORE.SYSTEM.SOLV>
0

>  <SCORE.SYSTEM.norm>
0

>  <SCORE.heavy>
11

>  <SCORE.norm>
-1.01522

>  <RMSD>
0.562

$$$$
ligand
 OpenBabel11021811493D
libRbt.so/2013.1/901 2013/11/27
 11 12  0  0  0  0  0  0  0  0999 V2000
   12.4117   11.3836    8.7378 N   0  0  0  0  0  0  0  0  0  0  0  0
   12.0032   12.6414    8.9864 C   0  0  0  0  0  0  0  0  0  0  0  0
   12.1493   13.1637   10.2635 N   0  0  0  0  0  0  0  0  0  0  0  0
   11.4555   13.4033    8.0265 N   0  0  0  0  0  0  0  0  0  0  0  0
   11.2874   12.9398    6.7779 C   0  0  0  0  0  0  0  0  0  0  0  0
   11.6997   11.6258    6.4616 C   0  0  0  0  0  0  0  0  0  0  0  0
   12.2828   10.8433    7.5071 C   0  0  0  0  0  0  0  0  0  0  0  0
   12.7073    9.5588    7.2701 N   0  0  0  0  0  0  0  0  0  0  0  0
   11.4140   11.4195    5.1441 N   0  0  0  0  0  0  0  0  0  0  0  0
   10.8671   12.4906    4.6527 C   0  0  0  0  0  0  0  0  0  0  0  0
   10.7686   13.4605    5.6181 N   0  0  0  0  0  0  0  0  0  0  0  0
  1  7  2  0  0  0  0
  1  2  1  0  0  0  0
  2  3  1  0  0  0  0
  2  4  2  0  0  0  0
  4  5  1  0  0  0  0
  5  6  2  0  0  0  0
  5 11  1  0  0  0  0
  6  7  1  0  0  0  0
  6  9  1  0  0  0  0
  7  8  1  0  0  0  0
  9 10  1  0  0  0  0
 10 11  2  0  0  0  0
M  END
>  <CHROM.1>
11.73866186,12.08293408,7.24625705,-0.94280388,1.13227669,-2.19474663

>  <Name>
ligand

>  <RI>
0

>  <Rbt.Current_Directory>
/home/itssahil/PROJECTS/Mol_Feturizer/New_Systems/rnas/4FEO

>  <Rbt.Executable>
rbdock ($Id: //depot/dev/client3/rdock/2013.1/src/exe/rbdock.cxx#4 $)

>  <Rbt.Library>
libRbt.so (2013.1, Build901 2013/11/27)

>  <Rbt.Parameter_File>
/export/apps/rDock/src/rDock_2013.1_src/data/scripts/dock_solv.prm

>  <Rbt.Receptor>
prm/pocket_docking_6.prm

>  <SCORE>
-11.09

>  <SCORE.INTER>
-11.09

>  <SCORE.INTER.CONST>
1

>  <SCORE.INTER.POLAR>
0

>  <SCORE.INTER.ROT>
0

>  <SCORE.INTER.SOLV>
18.4338

>  <SCORE.INTER.VDW>
-17.1379

>  <SCORE.INTER.norm>
-1.00818

>  <SCORE.INTRA>
0

>  <SCORE.INTRA.DIHEDRAL>
0

>  <SCORE.INTRA.DIHEDRAL.0>
0

>  <SCORE.INTRA.POLAR>
0

>  <SCORE.INTRA.POLAR.0>
0

>  <SCORE.INTRA.REPUL>
0

>  <SCORE.INTRA.REPUL.0>
0

>  <SCORE.INTRA.SOLV>
0

>  <SCORE.INTRA.SOLV.lig_0>
-48.9252

>  <SCORE.INTRA.VDW>
0

>  <SCORE.INTRA.VDW.0>
0

>  <SCORE.INTRA.norm>
0

>  <SCORE.RESTR>
0

>  <SCORE.RESTR.CAVITY>
0

>  <SCORE.RESTR.norm>
0

>  <SCORE.SYSTEM>
0

>  <SCORE.SYSTEM.CONST>
0

>  <SCORE.SYSTEM.DIHEDRAL>
0

>  <SCORE.SYSTEM.SOLV>
0

>  <SCORE.SYSTEM.norm>
0

>  <SCORE.heavy>
11

>  <SCORE.norm>
-1.00818

>  <RMSD>
0.563

$$$$
ligand
 OpenBabel11021811493D
libRbt.so/2013.1/901 2013/11/27
 11 12  0  0  0  0  0  0  0  0999 V2000
   12.2864   11.5044    8.7426 N   0  0  0  0  0  0  0  0  0  0  0  0
   11.9331   12.7875    8.9416 C   0  0  0  0  0  0  0  0  0  0  0  0
   12.0622   13.3396   10.2079 N   0  0  0  0  0  0  0  0  0  0  0  0
   11.4564   13.5465    7.9423 N   0  0  0  0  0  0  0  0  0  0  0  0
   11.3073   13.0551    6.7020 C   0  0  0  0  0  0  0  0  0  0  0  0
   11.6639   11.7137    6.4371 C   0  0  0  0  0  0  0  0  0  0  0  0
   12.1720   10.9349    7.5237 C   0  0  0  0  0  0  0  0  0  0  0  0
   12.5395    9.6247    7.3376 N   0  0  0  0  0  0  0  0  0  0  0  0
   11.4125   11.4827    5.1167 N   0  0  0  0  0  0  0  0  0  0  0  0
   10.9363   12.5643    4.5769 C   0  0  0  0  0  0  0  0  0  0  0  0
   10.8541   13.5659    5.5108 N   0  0  0  0  0  0  0  0  0  0  0  0
  1  7  2  0  0  0  0
  1  2  1  0  0  0  0
  2  3  1  0  0  0  0
  2  4  2  0  0  0  0
  4  5  1  0  0  0  0
  5  6  2  0  0  0  0
  5 11  1  0  0  0  0
  6  7  1  0  0  0  0
  6  9  1  0  0  0  0
  7  8  1  0  0  0  0
  9 10  1  0  0  0  0
 10 11  2  0  0  0  0
M  END
>  <CHROM.1>
11.69932743,12.19138858,7.20956590,-0.93740195,1.19229223,-2.22848173

>  <Name>
ligand

>  <RI>
0

>  <Rbt.Current_Directory>
/home/itssahil/PROJECTS/Mol_Feturizer/New_Systems/rnas/4FEO

>  <Rbt.Executable>
rbdock ($Id: //depot/dev/client3/rdock/2013.1/src/exe/rbdock.cxx#4 $)

>  <Rbt.Library>
libRbt.so (2013.1, Build901 2013/11/27)

>  <Rbt.Parameter_File>
/export/apps/rDock/src/rDock_2013.1_src/data/scripts/dock_solv.prm

>  <Rbt.Receptor>
prm/pocket_docking_8.prm

>  <SCORE>
-11.1899

>  <SCORE.INTER>
-11.1899

>  <SCORE.INTER.CONST>
1

>  <SCORE.INTER.POLAR>
0

>  <SCORE.INTER.ROT>
0

>  <SCORE.INTER.SOLV>
19.3412

>  <SCORE.INTER.VDW>
-17.507

>  <SCORE.INTER.norm>
-1.01726

>  <SCORE.INTRA>
0

>  <SCORE.INTRA.DIHEDRAL>
0

>  <SCORE.INTRA.DIHEDRAL.0>
0

>  <SCORE.INTRA.POLAR>
0

>  <SCORE.INTRA.POLAR.0>
0

>  <SCORE.INTRA.REPUL>
0

>  <SCORE.INTRA.REPUL.0>
0

>  <SCORE.INTRA.SOLV>
0

>  <SCORE.INTRA.SOLV.lig_0>
-48.9252

>  <SCORE.INTRA.VDW>
0

>  <SCORE.INTRA.VDW.0>
0

>  <SCORE.INTRA.norm>
0

>  <SCORE.RESTR>
0

>  <SCORE.RESTR.CAVITY>
0

>  <SCORE.RESTR.norm>
0

>  <SCORE.SYSTEM>
0

>  <SCORE.SYSTEM.CONST>
0

>  <SCORE.SYSTEM.DIHEDRAL>
0

>  <SCORE.SYSTEM.SOLV>
0

>  <SCORE.SYSTEM.norm>
0

>  <SCORE.heavy>
11

>  <SCORE.norm>
-1.01726

>  <RMSD>
0.563

$$$$
ligand
 OpenBabel11021811493D
libRbt.so/2013.1/901 2013/11/27
 11 12  0  0  0  0  0  0  0  0999 V2000
   12.3053   11.5148    8.7297 N   0  0  0  0  0  0  0  0  0  0  0  0
   11.9209   12.7866    8.9429 C   0  0  0  0  0  0  0  0  0  0  0  0
   12.0436   13.3298   10.2136 N   0  0  0  0  0  0  0  0  0  0  0  0
   11.4193   13.5427    7.9536 N   0  0  0  0  0  0  0  0  0  0  0  0
   11.2753   13.0592    6.7096 C   0  0  0  0  0  0  0  0  0  0  0  0
   11.6640   11.7298    6.4298 C   0  0  0  0  0  0  0  0  0  0  0  0
   12.1980   10.9540    7.5060 C   0  0  0  0  0  0  0  0  0  0  0  0
   12.5974    9.6553    7.3054 N   0  0  0  0  0  0  0  0  0  0  0  0
   11.4107   11.5050    5.1087 N   0  0  0  0  0  0  0  0  0  0  0  0
   10.9042   12.5792    4.5819 C   0  0  0  0  0  0  0  0  0  0  0  0
   10.8023   13.5696    5.5258 N   0  0  0  0  0  0  0  0  0  0  0  0
  1  7  2  0  0  0  0
  1  2  1  0  0  0  0
  2  3  1  0  0  0  0
  2  4  2  0  0  0  0
  4  5  1  0  0  0  0
  5  6  2  0  0  0  0
  5 11  1  0  0  0  0
  6  7  1  0  0  0  0
  6  9  1  0  0  0  0
  7  8  1  0  0  0  0
  9 10  1  0  0  0  0
 10 11  2  0  0  0  0
M  END
>  <CHROM.1>
11.69198573,12.20101189,7.20658925,-0.96478281,1.16858622,-2.19371089

>  <Name>
ligand

>  <RI>
0

>  <Rbt.Current_Directory>
/home/itssahil/PROJECTS/Mol_Feturizer/New_Systems/rnas/4FEO

>  <Rbt.Executable>
rbdock ($Id: //depot/dev/client3/rdock/2013.1/src/exe/rbdock.cxx#4 $)

>  <Rbt.Library>
libRbt.so (2013.1, Build901 2013/11/27)

>  <Rbt.Parameter_File>
/export/apps/rDock/src/rDock_2013.1_src/data/scripts/dock_solv.prm

>  <Rbt.Receptor>
prm/pocket_docking_8.prm

>  <SCORE>
-11.1653

>  <SCORE.INTER>
-11.1653

>  <SCORE.INTER.CONST>
1

>  <SCORE.INTER.POLAR>
0

>  <SCORE.INTER.ROT>
0

>  <SCORE.INTER.SOLV>
19.1164

>  <SCORE.INTER.VDW>
-17.4157

>  <SCORE.INTER.norm>
-1.01503

>  <SCORE.INTRA>
0

>  <SCORE.INTRA.DIHEDRAL>
0

>  <SCORE.INTRA.DIHEDRAL.0>
0

>  <SCORE.INTRA.POLAR>
0

>  <SCORE.INTRA.POLAR.0>
0

>  <SCORE.INTRA.REPUL>
0

>  <SCORE.INTRA.REPUL.0>
0

>  <SCORE.INTRA.SOLV>
0

>  <SCORE.INTRA.SOLV.lig_0>
-48.9252

>  <SCORE.INTRA.VDW>
0

>  <SCORE.INTRA.VDW.0>
0

>  <SCORE.INTRA.norm>
0

>  <SCORE.RESTR>
0

>  <SCORE.RESTR.CAVITY>
0

>  <SCORE.RESTR.norm>
0

>  <SCORE.SYSTEM>
0

>  <SCORE.SYSTEM.CONST>
0

>  <SCORE.SYSTEM.DIHEDRAL>
0

>  <SCORE.SYSTEM.SOLV>
0

>  <SCORE.SYSTEM.norm>
0

>  <SCORE.heavy>
11

>  <SCORE.norm>
-1.01503

>  <RMSD>
0.563

$$$$
ligand
 OpenBabel11021811493D
libRbt.so/2013.1/901 2013/11/27
 11 12  0  0  0  0  0  0  0  0999 V2000
   12.3025   11.5230    8.7286 N   0  0  0  0  0  0  0  0  0  0  0  0
   11.9166   12.7935    8.9467 C   0  0  0  0  0  0  0  0  0  0  0  0
   12.0375   13.3317   10.2198 N   0  0  0  0  0  0  0  0  0  0  0  0
   11.4153   13.5532    7.9600 N   0  0  0  0  0  0  0  0  0  0  0  0
   11.2730   13.0747    6.7138 C   0  0  0  0  0  0  0  0  0  0  0  0
   11.6633   11.7468    6.4290 C   0  0  0  0  0  0  0  0  0  0  0  0
   12.1970   10.9671    7.5026 C   0  0  0  0  0  0  0  0  0  0  0  0
   12.5978    9.6696    7.2971 N   0  0  0  0  0  0  0  0  0  0  0  0
   11.4116   11.5271    5.1068 N   0  0  0  0  0  0  0  0  0  0  0  0
   10.9046   12.6030    4.5839 C   0  0  0  0  0  0  0  0  0  0  0  0
   10.8008   13.5894    5.5317 N   0  0  0  0  0  0  0  0  0  0  0  0
  1  7  2  0  0  0  0
  1  2  1  0  0  0  0
  2  3  1  0  0  0  0
  2  4  2  0  0  0  0
  4  5  1  0  0  0  0
  5  6  2  0  0  0  0
  5 11  1  0  0  0  0
  6  7  1  0  0  0  0
  6  9  1  0  0  0  0
  7  8  1  0  0  0  0
  9 10  1  0  0  0  0
 10 11  2  0  0  0  0
M  END
>  <CHROM.1>
11.69005535,12.21484395,7.20775852,-0.96835000,1.16838840,-2.18633454

>  <Name>
ligand

>  <RI>
0

>  <Rbt.Current_Directory>
/home/itssahil/PROJECTS/Mol_Feturizer/New_Systems/rnas/4FEO

>  <Rbt.Executable>
rbdock ($Id: //depot/dev/client3/rdock/2013.1/src/exe/rbdock.cxx#4 $)

>  <Rbt.Library>
libRbt.so (2013.1, Build901 2013/11/27)

>  <Rbt.Parameter_File>
/export/apps/rDock/src/rDock_2013.1_src/data/scripts/dock_solv.prm

>  <Rbt.Receptor>
prm/pocket_docking_3.prm

>  <SCORE>
-11.1616

>  <SCORE.INTER>
-11.1616

>  <SCORE.INTER.CONST>
1

>  <SCORE.INTER.POLAR>
0

>  <SCORE.INTER.ROT>
0

>  <SCORE.INTER.SOLV>
19.1335

>  <SCORE.INTER.VDW>
-17.4189

>  <SCORE.INTER.norm>
-1.01469

>  <SCORE.INTRA>
0

>  <SCORE.INTRA.DIHEDRAL>
0

>  <SCORE.INTRA.DIHEDRAL.0>
0

>  <SCORE.INTRA.POLAR>
0

>  <SCORE.INTRA.POLAR.0>
0

>  <SCORE.INTRA.REPUL>
0

>  <SCORE.INTRA.REPUL.0>
0

>  <SCORE.INTRA.SOLV>
0

>  <SCORE.INTRA.SOLV.lig_0>
-48.9252

>  <SCORE.INTRA.VDW>
0

>  <SCORE.INTRA.VDW.0>
0

>  <SCORE.INTRA.norm>
0

>  <SCORE.RESTR>
0

>  <SCORE.RESTR.CAVITY>
0

>  <SCORE.RESTR.norm>
0

>  <SCORE.SYSTEM>
0

>  <SCORE.SYSTEM.CONST>
0

>  <SCORE.SYSTEM.DIHEDRAL>
0

>  <SCORE.SYSTEM.SOLV>
0

>  <SCORE.SYSTEM.norm>
0

>  <SCORE.heavy>
11

>  <SCORE.norm>
-1.01469

>  <RMSD>
0.564

$$$$
ligand
 OpenBabel11021811493D
libRbt.so/2013.1/901 2013/11/27
 11 12  0  0  0  0  0  0  0  0999 V2000
   12.2940   11.5252    8.7287 N   0  0  0  0  0  0  0  0  0  0  0  0
   11.9147   12.7987    8.9409 C   0  0  0  0  0  0  0  0  0  0  0  0
   12.0389   13.3423   10.2114 N   0  0  0  0  0  0  0  0  0  0  0  0
   11.4167   13.5563    7.9509 N   0  0  0  0  0  0  0  0  0  0  0  0
   11.2714   13.0727    6.7071 C   0  0  0  0  0  0  0  0  0  0  0  0
   11.6548   11.7415    6.4284 C   0  0  0  0  0  0  0  0  0  0  0  0
   12.1851   10.9642    7.5054 C   0  0  0  0  0  0  0  0  0  0  0  0
   12.5792    9.6637    7.3057 N   0  0  0  0  0  0  0  0  0  0  0  0
   11.4013   11.5169    5.1073 N   0  0  0  0  0  0  0  0  0  0  0  0
   10.8996   12.5928    4.5796 C   0  0  0  0  0  0  0  0  0  0  0  0
   10.8012   13.5843    5.5228 N   0  0  0  0  0  0  0  0  0  0  0  0
  1  7  2  0  0  0  0
  1  2  1  0  0  0  0
  2  3  1  0  0  0  0
  2  4  2  0  0  0  0
  4  5  1  0  0  0  0
  5  6  2  0  0  0  0
  5 11  1  0  0  0  0
  6  7  1  0  0  0  0
  6  9  1  0  0  0  0
  7  8  1  0  0  0  0
  9 10  1  0  0  0  0
 10 11  2  0  0  0  0
M  END
>  <CHROM.1>
11.68432683,12.21307042,7.20487457,-0.95974134,1.17223199,-2.19896695

>  <Name>
ligand

>  <RI>
0

>  <Rbt.Current_Directory>
/home/itssahil/PROJECTS/Mol_Feturizer/New_Systems/rnas/4FEO

>  <Rbt.Executable>
rbdock ($Id: //depot/dev/client3/rdock/2013.1/src/exe/rbdock.cxx#4 $)

>  <Rbt.Library>
libRbt.so (2013.1, Build901 2013/11/27)

>  <Rbt.Parameter_File>
/export/apps/rDock/src/rDock_2013.1_src/data/scripts/dock_solv.prm

>  <Rbt.Receptor>
prm/pocket_docking_6.prm

>  <SCORE>
-11.1959

>  <SCORE.INTER>
-11.1959

>  <SCORE.INTER.CONST>
1

>  <SCORE.INTER.POLAR>
0

>  <SCORE.INTER.ROT>
0

>  <SCORE.INTER.SOLV>
19.2023

>  <SCORE.INTER.VDW>
-17.4647

>  <SCORE.INTER.norm>
-1.01781

>  <SCORE.INTRA>
0

>  <SCORE.INTRA.DIHEDRAL>
0

>  <SCORE.INTRA.DIHEDRAL.0>
0

>  <SCORE.INTRA.POLAR>
0

>  <SCORE.INTRA.POLAR.0>
0

>  <SCORE.INTRA.REPUL>
0

>  <SCORE.INTRA.REPUL.0>
0

>  <SCORE.INTRA.SOLV>
0

>  <SCORE.INTRA.SOLV.lig_0>
-48.9252

>  <SCORE.INTRA.VDW>
0

>  <SCORE.INTRA.VDW.0>
0

>  <SCORE.INTRA.norm>
0

>  <SCORE.RESTR>
0

>  <SCORE.RESTR.CAVITY>
0

>  <SCORE.RESTR.norm>
0

>  <SCORE.SYSTEM>
0

>  <SCORE.SYSTEM.CONST>
0

>  <SCORE.SYSTEM.DIHEDRAL>
0

>  <SCORE.SYSTEM.SOLV>
0

>  <SCORE.SYSTEM.norm>
0

>  <SCORE.heavy>
11

>  <SCORE.norm>
-1.01781

>  <RMSD>
0.565

$$$$
ligand
 OpenBabel11021811493D
libRbt.so/2013.1/901 2013/11/27
 11 12  0  0  0  0  0  0  0  0999 V2000
   12.3063   11.4632    8.7289 N   0  0  0  0  0  0  0  0  0  0  0  0
   11.9291   12.7347    8.9563 C   0  0  0  0  0  0  0  0  0  0  0  0
   12.0554   13.2632   10.2330 N   0  0  0  0  0  0  0  0  0  0  0  0
   11.4313   13.5045    7.9757 N   0  0  0  0  0  0  0  0  0  0  0  0
   11.2840   13.0356    6.7265 C   0  0  0  0  0  0  0  0  0  0  0  0
   11.6652   11.7072    6.4319 C   0  0  0  0  0  0  0  0  0  0  0  0
   12.1953   10.9166    7.4992 C   0  0  0  0  0  0  0  0  0  0  0  0
   12.5873    9.6180    7.2840 N   0  0  0  0  0  0  0  0  0  0  0  0
   11.4100   11.4984    5.1086 N   0  0  0  0  0  0  0  0  0  0  0  0
   10.9093   12.5812    4.5939 C   0  0  0  0  0  0  0  0  0  0  0  0
   10.8134   13.5617    5.5487 N   0  0  0  0  0  0  0  0  0  0  0  0
  1  7  2  0  0  0  0
  1  2  1  0  0  0  0
  2  3  1  0  0  0  0
  2  4  2  0  0  0  0
  4  5  1  0  0  0  0
  5  6  2  0  0  0  0
  5 11  1  0  0  0  0
  6  7  1  0  0  0  0
  6  9  1  0  0  0  0
  7  8  1  0  0  0  0
  9 10  1  0  0  0  0
 10 11  2  0  0  0  0
M  END
>  <CHROM.1>
11.69613432,12.16963851,7.21381222,-0.95542268,1.17285881,-2.19128004

>  <Name>
ligand

>  <RI>
0

>  <Rbt.Current_Directory>
/home/itssahil/PROJECTS/Mol_Feturizer/New_Systems/rnas/4FEO

>  <Rbt.Executable>
rbdock ($Id: //depot/dev/client3/rdock/2013.1/src/exe/rbdock.cxx#4 $)

>  <Rbt.Library>
libRbt.so (2013.1, Build901 2013/11/27)

>  <Rbt.Parameter_File>
/export/apps/rDock/src/rDock_2013.1_src/data/scripts/dock_solv.prm

>  <Rbt.Receptor>
prm/pocket_docking_7.prm

>  <SCORE>
-11.1441

>  <SCORE.INTER>
-11.1441

>  <SCORE.INTER.CONST>
1

>  <SCORE.INTER.POLAR>
0

>  <SCORE.INTER.ROT>
0

>  <SCORE.INTER.SOLV>
19.0426

>  <SCORE.INTER.VDW>
-17.3769

>  <SCORE.INTER.norm>
-1.0131

>  <SCORE.INTRA>
0

>  <SCORE.INTRA.DIHEDRAL>
0

>  <SCORE.INTRA.DIHEDRAL.0>
0

>  <SCORE.INTRA.POLAR>
0

>  <SCORE.INTRA.POLAR.0>
0

>  <SCORE.INTRA.REPUL>
0

>  <SCORE.INTRA.REPUL.0>
0

>  <SCORE.INTRA.SOLV>
0

>  <SCORE.INTRA.SOLV.lig_0>
-48.9252

>  <SCORE.INTRA.VDW>
0

>  <SCORE.INTRA.VDW.0>
0

>  <SCORE.INTRA.norm>
0

>  <SCORE.RESTR>
0

>  <SCORE.RESTR.CAVITY>
0

>  <SCORE.RESTR.norm>
0

>  <SCORE.SYSTEM>
0

>  <SCORE.SYSTEM.CONST>
0

>  <SCORE.SYSTEM.DIHEDRAL>
0

>  <SCORE.SYSTEM.SOLV>
0

>  <SCORE.SYSTEM.norm>
0

>  <SCORE.heavy>
11

>  <SCORE.norm>
-1.0131

>  <RMSD>
0.565

$$$$
ligand
 OpenBabel11021811493D
libRbt.so/2013.1/901 2013/11/27
 11 12  0  0  0  0  0  0  0  0999 V2000
   12.3145   11.5034    8.7267 N   0  0  0  0  0  0  0  0  0  0  0  0
   11.9290   12.7743    8.9432 C   0  0  0  0  0  0  0  0  0  0  0  0
   12.0528   13.3149   10.2150 N   0  0  0  0  0  0  0  0  0  0  0  0
   11.4253   13.5321    7.9563 N   0  0  0  0  0  0  0  0  0  0  0  0
   11.2801   13.0512    6.7114 C   0  0  0  0  0  0  0  0  0  0  0  0
   11.6699   11.7228    6.4282 C   0  0  0  0  0  0  0  0  0  0  0  0
   12.2061   10.9452    7.5020 C   0  0  0  0  0  0  0  0  0  0  0  0
   12.6066    9.6474    7.2980 N   0  0  0  0  0  0  0  0  0  0  0  0
   11.4150   11.5006    5.1070 N   0  0  0  0  0  0  0  0  0  0  0  0
   10.9067   12.5754    4.5832 C   0  0  0  0  0  0  0  0  0  0  0  0
   10.8051   13.5637    5.5294 N   0  0  0  0  0  0  0  0  0  0  0  0
  1  7  2  0  0  0  0
  1  2  1  0  0  0  0
  2  3  1  0  0  0  0
  2  4  2  0  0  0  0
  4  5  1  0  0  0  0
  5  6  2  0  0  0  0
  5 11  1  0  0  0  0
  6  7  1  0  0  0  0
  6  9  1  0  0  0  0
  7  8  1  0  0  0  0
  9 10  1  0  0  0  0
 10 11  2  0  0  0  0
M  END
>  <CHROM.1>
11.69840078,12.19235070,7.20595520,-0.96354703,1.16695806,-2.19265746

>  <Name>
ligand

>  <RI>
0

>  <Rbt.Current_Directory>
/home/itssahil/PROJECTS/Mol_Feturizer/New_Systems/rnas/4FEO

>  <Rbt.Executable>
rbdock ($Id: //depot/dev/client3/rdock/2013.1/src/exe/rbdock.cxx#4 $)

>  <Rbt.Library>
libRbt.so (2013.1, Build901 2013/11/27)

>  <Rbt.Parameter_File>
/export/apps/rDock/src/rDock_2013.1_src/data/scripts/dock_solv.prm

>  <Rbt.Receptor>
prm/blind_docking_40.prm

>  <SCORE>
-11.1666

>  <SCORE.INTER>
-11.1666

>  <SCORE.INTER.CONST>
1

>  <SCORE.INTER.POLAR>
0

>  <SCORE.INTER.ROT>
0

>  <SCORE.INTER.SOLV>
19.0534

>  <SCORE.INTER.VDW>
-17.3955

>  <SCORE.INTER.norm>
-1.01514

>  <SCORE.INTRA>
0

>  <SCORE.INTRA.DIHEDRAL>
0

>  <SCORE.INTRA.DIHEDRAL.0>
0

>  <SCORE.INTRA.POLAR>
0

>  <SCORE.INTRA.POLAR.0>
0

>  <SCORE.INTRA.REPUL>
0

>  <SCORE.INTRA.REPUL.0>
0

>  <SCORE.INTRA.SOLV>
0

>  <SCORE.INTRA.SOLV.lig_0>
-48.9252

>  <SCORE.INTRA.VDW>
0

>  <SCORE.INTRA.VDW.0>
0

>  <SCORE.INTRA.norm>
0

>  <SCORE.RESTR>
0

>  <SCORE.RESTR.CAVITY>
0

>  <SCORE.RESTR.norm>
0

>  <SCORE.SYSTEM>
0

>  <SCORE.SYSTEM.CONST>
0

>  <SCORE.SYSTEM.DIHEDRAL>
0

>  <SCORE.SYSTEM.SOLV>
0

>  <SCORE.SYSTEM.norm>
0

>  <SCORE.heavy>
11

>  <SCORE.norm>
-1.01514

>  <RMSD>
0.566

$$$$
ligand
 OpenBabel11021811493D
libRbt.so/2013.1/901 2013/11/27
 11 12  0  0  0  0  0  0  0  0999 V2000
   12.2998   11.5335    8.7282 N   0  0  0  0  0  0  0  0  0  0  0  0
   11.9170   12.8065    8.9374 C   0  0  0  0  0  0  0  0  0  0  0  0
   12.0405   13.3536   10.2064 N   0  0  0  0  0  0  0  0  0  0  0  0
   11.4164   13.5602    7.9457 N   0  0  0  0  0  0  0  0  0  0  0  0
   11.2717   13.0730    6.7032 C   0  0  0  0  0  0  0  0  0  0  0  0
   11.6586   11.7421    6.4277 C   0  0  0  0  0  0  0  0  0  0  0  0
   12.1916   10.9691    7.5063 C   0  0  0  0  0  0  0  0  0  0  0  0
   12.5893    9.6692    7.3098 N   0  0  0  0  0  0  0  0  0  0  0  0
   11.4049   11.5135    5.1074 N   0  0  0  0  0  0  0  0  0  0  0  0
   10.8999   12.5866    4.5772 C   0  0  0  0  0  0  0  0  0  0  0  0
   10.7993   13.5802    5.5179 N   0  0  0  0  0  0  0  0  0  0  0  0
  1  7  2  0  0  0  0
  1  2  1  0  0  0  0
  2  3  1  0  0  0  0
  2  4  2  0  0  0  0
  4  5  1  0  0  0  0
  5  6  2  0  0  0  0
  5 11  1  0  0  0  0
  6  7  1  0  0  0  0
  6  9  1  0  0  0  0
  7  8  1  0  0  0  0
  9 10  1  0  0  0  0
 10 11  2  0  0  0  0
M  END
>  <CHROM.1>
11.68726574,12.21577325,7.20297393,-0.96268733,1.16962553,-2.19880511

>  <Name>
ligand

>  <RI>
0

>  <Rbt.Current_Directory>
/home/itssahil/PROJECTS/Mol_Feturizer/New_Systems/rnas/4FEO

>  <Rbt.Executable>
rbdock ($Id: //depot/dev/client3/rdock/2013.1/src/exe/rbdock.cxx#4 $)

>  <Rbt.Library>
libRbt.so (2013.1, Build901 2013/11/27)

>  <Rbt.Parameter_File>
/export/apps/rDock/src/rDock_2013.1_src/data/scripts/dock_solv.prm

>  <Rbt.Receptor>
prm/pocket_docking_4.prm

>  <SCORE>
-11.1949

>  <SCORE.INTER>
-11.1949

>  <SCORE.INTER.CONST>
1

>  <SCORE.INTER.POLAR>
0

>  <SCORE.INTER.ROT>
0

>  <SCORE.INTER.SOLV>
19.1851

>  <SCORE.INTER.VDW>
-17.4583

>  <SCORE.INTER.norm>
-1.01772

>  <SCORE.INTRA>
0

>  <SCORE.INTRA.DIHEDRAL>
0

>  <SCORE.INTRA.DIHEDRAL.0>
0

>  <SCORE.INTRA.POLAR>
0

>  <SCORE.INTRA.POLAR.0>
0

>  <SCORE.INTRA.REPUL>
0

>  <SCORE.INTRA.REPUL.0>
0

>  <SCORE.INTRA.SOLV>
0

>  <SCORE.INTRA.SOLV.lig_0>
-48.9252

>  <SCORE.INTRA.VDW>
0

>  <SCORE.INTRA.VDW.0>
0

>  <SCORE.INTRA.norm>
0

>  <SCORE.RESTR>
0

>  <SCORE.RESTR.CAVITY>
0

>  <SCORE.RESTR.norm>
0

>  <SCORE.SYSTEM>
0

>  <SCORE.SYSTEM.CONST>
0

>  <SCORE.SYSTEM.DIHEDRAL>
0

>  <SCORE.SYSTEM.SOLV>
0

>  <SCORE.SYSTEM.norm>
0

>  <SCORE.heavy>
11

>  <SCORE.norm>
-1.01772

>  <RMSD>
0.566

$$$$
ligand
 OpenBabel11021811493D
libRbt.so/2013.1/901 2013/11/27
 11 12  0  0  0  0  0  0  0  0999 V2000
   12.2914   11.5298    8.7326 N   0  0  0  0  0  0  0  0  0  0  0  0
   11.9146   12.8057    8.9343 C   0  0  0  0  0  0  0  0  0  0  0  0
   12.0307   13.3565   10.2025 N   0  0  0  0  0  0  0  0  0  0  0  0
   11.4268   13.5589    7.9360 N   0  0  0  0  0  0  0  0  0  0  0  0
   11.2895   13.0684    6.6940 C   0  0  0  0  0  0  0  0  0  0  0  0
   11.6708   11.7343    6.4262 C   0  0  0  0  0  0  0  0  0  0  0  0
   12.1901   10.9618    7.5119 C   0  0  0  0  0  0  0  0  0  0  0  0
   12.5816    9.6589    7.3230 N   0  0  0  0  0  0  0  0  0  0  0  0
   11.4268   11.5026    5.1046 N   0  0  0  0  0  0  0  0  0  0  0  0
   10.9326   12.5770    4.5665 C   0  0  0  0  0  0  0  0  0  0  0  0
   10.8302   13.5744    5.5031 N   0  0  0  0  0  0  0  0  0  0  0  0
  1  7  2  0  0  0  0
  1  2  1  0  0  0  0
  2  3  1  0  0  0  0
  2  4  2  0  0  0  0
  4  5  1  0  0  0  0
  5  6  2  0  0  0  0
  5 11  1  0  0  0  0
  6  7  1  0  0  0  0
  6  9  1  0  0  0  0
  7  8  1  0  0  0  0
  9 10  1  0  0  0  0
 10 11  2  0  0  0  0
M  END
>  <CHROM.1>
11.69579032,12.21043518,7.20007412,-0.97120902,1.17937090,-2.19434800

>  <Name>
ligand

>  <RI>
0

>  <Rbt.Current_Directory>
/home/itssahil/PROJECTS/Mol_Feturizer/New_Systems/rnas/4FEO

>  <Rbt.Executable>
rbdock ($Id: //depot/dev/client3/rdock/2013.1/src/exe/rbdock.cxx#4 $)

>  <Rbt.Library>
libRbt.so (2013.1, Build901 2013/11/27)

>  <Rbt.Parameter_File>
/export/apps/rDock/src/rDock_2013.1_src/data/scripts/dock_solv.prm

>  <Rbt.Receptor>
prm/pocket_docking_7.prm

>  <SCORE>
-11.1705

>  <SCORE.INTER>
-11.1705

>  <SCORE.INTER.CONST>
1

>  <SCORE.INTER.POLAR>
0

>  <SCORE.INTER.ROT>
0

>  <SCORE.INTER.SOLV>
19.2355

>  <SCORE.INTER.VDW>
-17.4588

>  <SCORE.INTER.norm>
-1.0155

>  <SCORE.INTRA>
0

>  <SCORE.INTRA.DIHEDRAL>
0

>  <SCORE.INTRA.DIHEDRAL.0>
0

>  <SCORE.INTRA.POLAR>
0

>  <SCORE.INTRA.POLAR.0>
0

>  <SCORE.INTRA.REPUL>
0

>  <SCORE.INTRA.REPUL.0>
0

>  <SCORE.INTRA.SOLV>
0

>  <SCORE.INTRA.SOLV.lig_0>
-48.9252

>  <SCORE.INTRA.VDW>
0

>  <SCORE.INTRA.VDW.0>
0

>  <SCORE.INTRA.norm>
0

>  <SCORE.RESTR>
0

>  <SCORE.RESTR.CAVITY>
0

>  <SCORE.RESTR.norm>
0

>  <SCORE.SYSTEM>
0

>  <SCORE.SYSTEM.CONST>
0

>  <SCORE.SYSTEM.DIHEDRAL>
0

>  <SCORE.SYSTEM.SOLV>
0

>  <SCORE.SYSTEM.norm>
0

>  <SCORE.heavy>
11

>  <SCORE.norm>
-1.0155

>  <RMSD>
0.566

$$$$
ligand
 OpenBabel11021811493D
libRbt.so/2013.1/901 2013/11/27
 11 12  0  0  0  0  0  0  0  0999 V2000
   12.3006   11.5137    8.7285 N   0  0  0  0  0  0  0  0  0  0  0  0
   11.9259   12.7881    8.9434 C   0  0  0  0  0  0  0  0  0  0  0  0
   12.0548   13.3294   10.2145 N   0  0  0  0  0  0  0  0  0  0  0  0
   11.4281   13.5488    7.9557 N   0  0  0  0  0  0  0  0  0  0  0  0
   11.2784   13.0675    6.7115 C   0  0  0  0  0  0  0  0  0  0  0  0
   11.6569   11.7355    6.4299 C   0  0  0  0  0  0  0  0  0  0  0  0
   12.1871   10.9549    7.5046 C   0  0  0  0  0  0  0  0  0  0  0  0
   12.5766    9.6534    7.3021 N   0  0  0  0  0  0  0  0  0  0  0  0
   11.3997   11.5136    5.1091 N   0  0  0  0  0  0  0  0  0  0  0  0
   10.9002   12.5920    4.5841 C   0  0  0  0  0  0  0  0  0  0  0  0
   10.8072   13.5823    5.5290 N   0  0  0  0  0  0  0  0  0  0  0  0
  1  7  2  0  0  0  0
  1  2  1  0  0  0  0
  2  3  1  0  0  0  0
  2  4  2  0  0  0  0
  4  5  1  0  0  0  0
  5  6  2  0  0  0  0
  5 11  1  0  0  0  0
  6  7  1  0  0  0  0
  6  9  1  0  0  0  0
  7  8  1  0  0  0  0
  9 10  1  0  0  0  0
 10 11  2  0  0  0  0
M  END
>  <CHROM.1>
11.68969469,12.20578869,7.20706980,-0.95008979,1.17348265,-2.20638689

>  <Name>
ligand

>  <RI>
0

>  <Rbt.Current_Directory>
/home/itssahil/PROJECTS/Mol_Feturizer/New_Systems/rnas/4FEO

>  <Rbt.Executable>
rbdock ($Id: //depot/dev/client3/rdock/2013.1/src/exe/rbdock.cxx#4 $)

>  <Rbt.Library>
libRbt.so (2013.1, Build901 2013/11/27)

>  <Rbt.Parameter_File>
/export/apps/rDock/src/rDock_2013.1_src/data/scripts/dock_solv.prm

>  <Rbt.Receptor>
prm/pocket_docking_7.prm

>  <SCORE>
-11.1983

>  <SCORE.INTER>
-11.1983

>  <SCORE.INTER.CONST>
1

>  <SCORE.INTER.POLAR>
0

>  <SCORE.INTER.ROT>
0

>  <SCORE.INTER.SOLV>
19.1738

>  <SCORE.INTER.VDW>
-17.4568

>  <SCORE.INTER.norm>
-1.01802

>  <SCORE.INTRA>
0

>  <SCORE.INTRA.DIHEDRAL>
0

>  <SCORE.INTRA.DIHEDRAL.0>
0

>  <SCORE.INTRA.POLAR>
0

>  <SCORE.INTRA.POLAR.0>
0

>  <SCORE.INTRA.REPUL>
0

>  <SCORE.INTRA.REPUL.0>
0

>  <SCORE.INTRA.SOLV>
0

>  <SCORE.INTRA.SOLV.lig_0>
-48.9252

>  <SCORE.INTRA.VDW>
0

>  <SCORE.INTRA.VDW.0>
0

>  <SCORE.INTRA.norm>
0

>  <SCORE.RESTR>
0

>  <SCORE.RESTR.CAVITY>
0

>  <SCORE.RESTR.norm>
0

>  <SCORE.SYSTEM>
0

>  <SCORE.SYSTEM.CONST>
0

>  <SCORE.SYSTEM.DIHEDRAL>
0

>  <SCORE.SYSTEM.SOLV>
0

>  <SCORE.SYSTEM.norm>
0

>  <SCORE.heavy>
11

>  <SCORE.norm>
-1.01802

>  <RMSD>
0.566

$$$$
ligand
 OpenBabel11021811493D
libRbt.so/2013.1/901 2013/11/27
 11 12  0  0  0  0  0  0  0  0999 V2000
   12.2817   11.5236    8.7318 N   0  0  0  0  0  0  0  0  0  0  0  0
   11.9110   12.8007    8.9371 C   0  0  0  0  0  0  0  0  0  0  0  0
   12.0298   13.3474   10.2068 N   0  0  0  0  0  0  0  0  0  0  0  0
   11.4268   13.5591    7.9409 N   0  0  0  0  0  0  0  0  0  0  0  0
   11.2872   13.0726    6.6975 C   0  0  0  0  0  0  0  0  0  0  0  0
   11.6620   11.7375    6.4260 C   0  0  0  0  0  0  0  0  0  0  0  0
   12.1776   10.9595    7.5095 C   0  0  0  0  0  0  0  0  0  0  0  0
   12.5628    9.6552    7.3170 N   0  0  0  0  0  0  0  0  0  0  0  0
   11.4168   11.5107    5.1037 N   0  0  0  0  0  0  0  0  0  0  0  0
   10.9279   12.5889    4.5687 C   0  0  0  0  0  0  0  0  0  0  0  0
   10.8302   13.5842    5.5080 N   0  0  0  0  0  0  0  0  0  0  0  0
  1  7  2  0  0  0  0
  1  2  1  0  0  0  0
  2  3  1  0  0  0  0
  2  4  2  0  0  0  0
  4  5  1  0  0  0  0
  5  6  2  0  0  0  0
  5 11  1  0  0  0  0
  6  7  1  0  0  0  0
  6  9  1  0  0  0  0
  7  8  1  0  0  0  0
  9 10  1  0  0  0  0
 10 11  2  0  0  0  0
M  END
>  <CHROM.1>
11.68930883,12.21134586,7.20119876,-0.96368669,1.18327180,-2.19852003

>  <Name>
ligand

>  <RI>
0

>  <Rbt.Current_Directory>
/home/itssahil/PROJECTS/Mol_Feturizer/New_Systems/rnas/4FEO

>  <Rbt.Executable>
rbdock ($Id: //depot/dev/client3/rdock/2013.1/src/exe/rbdock.cxx#4 $)

>  <Rbt.Library>
libRbt.so (2013.1, Build901 2013/11/27)

>  <Rbt.Parameter_File>
/export/apps/rDock/src/rDock_2013.1_src/data/scripts/dock_solv.prm

>  <Rbt.Receptor>
prm/pocket_docking_3.prm

>  <SCORE>
-11.1691

>  <SCORE.INTER>
-11.1691

>  <SCORE.INTER.CONST>
1

>  <SCORE.INTER.POLAR>
0

>  <SCORE.INTER.ROT>
0

>  <SCORE.INTER.SOLV>
19.2909

>  <SCORE.INTER.VDW>
-17.4763

>  <SCORE.INTER.norm>
-1.01537

>  <SCORE.INTRA>
0

>  <SCORE.INTRA.DIHEDRAL>
0

>  <SCORE.INTRA.DIHEDRAL.0>
0

>  <SCORE.INTRA.POLAR>
0

>  <SCORE.INTRA.POLAR.0>
0

>  <SCORE.INTRA.REPUL>
0

>  <SCORE.INTRA.REPUL.0>
0

>  <SCORE.INTRA.SOLV>
0

>  <SCORE.INTRA.SOLV.lig_0>
-48.9252

>  <SCORE.INTRA.VDW>
0

>  <SCORE.INTRA.VDW.0>
0

>  <SCORE.INTRA.norm>
0

>  <SCORE.RESTR>
0

>  <SCORE.RESTR.CAVITY>
0

>  <SCORE.RESTR.norm>
0

>  <SCORE.SYSTEM>
0

>  <SCORE.SYSTEM.CONST>
0

>  <SCORE.SYSTEM.DIHEDRAL>
0

>  <SCORE.SYSTEM.SOLV>
0

>  <SCORE.SYSTEM.norm>
0

>  <SCORE.heavy>
11

>  <SCORE.norm>
-1.01537

>  <RMSD>
0.567

$$$$
ligand
 OpenBabel11021811493D
libRbt.so/2013.1/901 2013/11/27
 11 12  0  0  0  0  0  0  0  0999 V2000
   12.2897   11.5293    8.7315 N   0  0  0  0  0  0  0  0  0  0  0  0
   11.9143   12.8056    8.9339 C   0  0  0  0  0  0  0  0  0  0  0  0
   12.0309   13.3554   10.2024 N   0  0  0  0  0  0  0  0  0  0  0  0
   11.4274   13.5599    7.9360 N   0  0  0  0  0  0  0  0  0  0  0  0
   11.2897   13.0702    6.6937 C   0  0  0  0  0  0  0  0  0  0  0  0
   11.6694   11.7359    6.4251 C   0  0  0  0  0  0  0  0  0  0  0  0
   12.1878   10.9621    7.5104 C   0  0  0  0  0  0  0  0  0  0  0  0
   12.5779    9.6589    7.3208 N   0  0  0  0  0  0  0  0  0  0  0  0
   11.4253   11.5053    5.1033 N   0  0  0  0  0  0  0  0  0  0  0  0
   10.9324   12.5805    4.5659 C   0  0  0  0  0  0  0  0  0  0  0  0
   10.8310   13.5774    5.5030 N   0  0  0  0  0  0  0  0  0  0  0  0
  1  7  2  0  0  0  0
  1  2  1  0  0  0  0
  2  3  1  0  0  0  0
  2  4  2  0  0  0  0
  4  5  1  0  0  0  0
  5  6  2  0  0  0  0
  5 11  1  0  0  0  0
  6  7  1  0  0  0  0
  6  9  1  0  0  0  0
  7  8  1  0  0  0  0
  9 10  1  0  0  0  0
 10 11  2  0  0  0  0
M  END
>  <CHROM.1>
11.69494105,12.21152015,7.19928427,-0.96961086,1.18034093,-2.19524463

>  <Name>
ligand

>  <RI>
0

>  <Rbt.Current_Directory>
/home/itssahil/PROJECTS/Mol_Feturizer/New_Systems/rnas/4FEO

>  <Rbt.Executable>
rbdock ($Id: //depot/dev/client3/rdock/2013.1/src/exe/rbdock.cxx#4 $)

>  <Rbt.Library>
libRbt.so (2013.1, Build901 2013/11/27)

>  <Rbt.Parameter_File>
/export/apps/rDock/src/rDock_2013.1_src/data/scripts/dock_solv.prm

>  <Rbt.Receptor>
prm/pocket_docking_3.prm

>  <SCORE>
-11.1703

>  <SCORE.INTER>
-11.1703

>  <SCORE.INTER.CONST>
1

>  <SCORE.INTER.POLAR>
0

>  <SCORE.INTER.ROT>
0

>  <SCORE.INTER.SOLV>
19.2476

>  <SCORE.INTER.VDW>
-17.4627

>  <SCORE.INTER.norm>
-1.01548

>  <SCORE.INTRA>
0

>  <SCORE.INTRA.DIHEDRAL>
0

>  <SCORE.INTRA.DIHEDRAL.0>
0

>  <SCORE.INTRA.POLAR>
0

>  <SCORE.INTRA.POLAR.0>
0

>  <SCORE.INTRA.REPUL>
0

>  <SCORE.INTRA.REPUL.0>
0

>  <SCORE.INTRA.SOLV>
0

>  <SCORE.INTRA.SOLV.lig_0>
-48.9252

>  <SCORE.INTRA.VDW>
0

>  <SCORE.INTRA.VDW.0>
0

>  <SCORE.INTRA.norm>
0

>  <SCORE.RESTR>
0

>  <SCORE.RESTR.CAVITY>
0

>  <SCORE.RESTR.norm>
0

>  <SCORE.SYSTEM>
0

>  <SCORE.SYSTEM.CONST>
0

>  <SCORE.SYSTEM.DIHEDRAL>
0

>  <SCORE.SYSTEM.SOLV>
0

>  <SCORE.SYSTEM.norm>
0

>  <SCORE.heavy>
11

>  <SCORE.norm>
-1.01548

>  <RMSD>
0.567

$$$$
ligand
 OpenBabel11021811493D
libRbt.so/2013.1/901 2013/11/27
 11 12  0  0  0  0  0  0  0  0999 V2000
   12.2915   11.5218    8.7307 N   0  0  0  0  0  0  0  0  0  0  0  0
   11.9172   12.7977    8.9369 C   0  0  0  0  0  0  0  0  0  0  0  0
   12.0359   13.3443   10.2067 N   0  0  0  0  0  0  0  0  0  0  0  0
   11.4295   13.5550    7.9416 N   0  0  0  0  0  0  0  0  0  0  0  0
   11.2899   13.0686    6.6982 C   0  0  0  0  0  0  0  0  0  0  0  0
   11.6684   11.7347    6.4257 C   0  0  0  0  0  0  0  0  0  0  0  0
   12.1877   10.9578    7.5083 C   0  0  0  0  0  0  0  0  0  0  0  0
   12.5767    9.6549    7.3149 N   0  0  0  0  0  0  0  0  0  0  0  0
   11.4224   11.5077    5.1036 N   0  0  0  0  0  0  0  0  0  0  0  0
   10.9295   12.5846    4.5696 C   0  0  0  0  0  0  0  0  0  0  0  0
   10.8300   13.5792    5.5094 N   0  0  0  0  0  0  0  0  0  0  0  0
  1  7  2  0  0  0  0
  1  2  1  0  0  0  0
  2  3  1  0  0  0  0
  2  4  2  0  0  0  0
  4  5  1  0  0  0  0
  5  6  2  0  0  0  0
  5 11  1  0  0  0  0
  6  7  1  0  0  0  0
  6  9  1  0  0  0  0
  7  8  1  0  0  0  0
  9 10  1  0  0  0  0
 10 11  2  0  0  0  0
M  END
>  <CHROM.1>
11.69524057,12.20834808,7.20105783,-0.96585776,1.18010477,-2.19612419

>  <Name>
ligand

>  <RI>
0

>  <Rbt.Current_Directory>
/home/itssahil/PROJECTS/Mol_Feturizer/New_Systems/rnas/4FEO

>  <Rbt.Executable>
rbdock ($Id: //depot/dev/client3/rdock/2013.1/src/exe/rbdock.cxx#4 $)

>  <Rbt.Library>
libRbt.so (2013.1, Build901 2013/11/27)

>  <Rbt.Parameter_File>
/export/apps/rDock/src/rDock_2013.1_src/data/scripts/dock_solv.prm

>  <Rbt.Receptor>
prm/pocket_docking_5.prm

>  <SCORE>
-11.1712

>  <SCORE.INTER>
-11.1712

>  <SCORE.INTER.CONST>
1

>  <SCORE.INTER.POLAR>
0

>  <SCORE.INTER.ROT>
0

>  <SCORE.INTER.SOLV>
19.2297

>  <SCORE.INTER.VDW>
-17.4574

>  <SCORE.INTER.norm>
-1.01556

>  <SCORE.INTRA>
0

>  <SCORE.INTRA.DIHEDRAL>
0

>  <SCORE.INTRA.DIHEDRAL.0>
0

>  <SCORE.INTRA.POLAR>
0

>  <SCORE.INTRA.POLAR.0>
0

>  <SCORE.INTRA.REPUL>
0

>  <SCORE.INTRA.REPUL.0>
0

>  <SCORE.INTRA.SOLV>
0

>  <SCORE.INTRA.SOLV.lig_0>
-48.9252

>  <SCORE.INTRA.VDW>
0

>  <SCORE.INTRA.VDW.0>
0

>  <SCORE.INTRA.norm>
0

>  <SCORE.RESTR>
0

>  <SCORE.RESTR.CAVITY>
0

>  <SCORE.RESTR.norm>
0

>  <SCORE.SYSTEM>
0

>  <SCORE.SYSTEM.CONST>
0

>  <SCORE.SYSTEM.DIHEDRAL>
0

>  <SCORE.SYSTEM.SOLV>
0

>  <SCORE.SYSTEM.norm>
0

>  <SCORE.heavy>
11

>  <SCORE.norm>
-1.01556

>  <RMSD>
0.567

$$$$
ligand
 OpenBabel11021811493D
libRbt.so/2013.1/901 2013/11/27
 11 12  0  0  0  0  0  0  0  0999 V2000
   12.2989   11.5495    8.7293 N   0  0  0  0  0  0  0  0  0  0  0  0
   11.9123   12.8230    8.9284 C   0  0  0  0  0  0  0  0  0  0  0  0
   12.0269   13.3780   10.1948 N   0  0  0  0  0  0  0  0  0  0  0  0
   11.4164   13.5696    7.9291 N   0  0  0  0  0  0  0  0  0  0  0  0
   11.2803   13.0746    6.6887 C   0  0  0  0  0  0  0  0  0  0  0  0
   11.6716   11.7429    6.4236 C   0  0  0  0  0  0  0  0  0  0  0  0
   12.1995   10.9775    7.5102 C   0  0  0  0  0  0  0  0  0  0  0  0
   12.6009    9.6772    7.3240 N   0  0  0  0  0  0  0  0  0  0  0  0
   11.4265   11.5057    5.1032 N   0  0  0  0  0  0  0  0  0  0  0  0
   10.9226   12.5746    4.5634 C   0  0  0  0  0  0  0  0  0  0  0  0
   10.8143   13.5737    5.4975 N   0  0  0  0  0  0  0  0  0  0  0  0
  1  7  2  0  0  0  0
  1  2  1  0  0  0  0
  2  3  1  0  0  0  0
  2  4  2  0  0  0  0
  4  5  1  0  0  0  0
  5  6  2  0  0  0  0
  5 11  1  0  0  0  0
  6  7  1  0  0  0  0
  6  9  1  0  0  0  0
  7  8  1  0  0  0  0
  9 10  1  0  0  0  0
 10 11  2  0  0  0  0
M  END
>  <CHROM.1>
11.69449640,12.22127739,7.19620291,-0.97858953,1.17160393,-2.19022725

>  <Name>
ligand

>  <RI>
0

>  <Rbt.Current_Directory>
/home/itssahil/PROJECTS/Mol_Feturizer/New_Systems/rnas/4FEO

>  <Rbt.Executable>
rbdock ($Id: //depot/dev/client3/rdock/2013.1/src/exe/rbdock.cxx#4 $)

>  <Rbt.Library>
libRbt.so (2013.1, Build901 2013/11/27)

>  <Rbt.Parameter_File>
/export/apps/rDock/src/rDock_2013.1_src/data/scripts/dock_solv.prm

>  <Rbt.Receptor>
prm/pocket_docking_5.prm

>  <SCORE>
-11.2012

>  <SCORE.INTER>
-11.2012

>  <SCORE.INTER.CONST>
1

>  <SCORE.INTER.POLAR>
0

>  <SCORE.INTER.ROT>
0

>  <SCORE.INTER.SOLV>
19.2032

>  <SCORE.INTER.VDW>
-17.4685

>  <SCORE.INTER.norm>
-1.01829

>  <SCORE.INTRA>
0

>  <SCORE.INTRA.DIHEDRAL>
0

>  <SCORE.INTRA.DIHEDRAL.0>
0

>  <SCORE.INTRA.POLAR>
0

>  <SCORE.INTRA.POLAR.0>
0

>  <SCORE.INTRA.REPUL>
0

>  <SCORE.INTRA.REPUL.0>
0

>  <SCORE.INTRA.SOLV>
0

>  <SCORE.INTRA.SOLV.lig_0>
-48.9252

>  <SCORE.INTRA.VDW>
0

>  <SCORE.INTRA.VDW.0>
0

>  <SCORE.INTRA.norm>
0

>  <SCORE.RESTR>
0

>  <SCORE.RESTR.CAVITY>
0

>  <SCORE.RESTR.norm>
0

>  <SCORE.SYSTEM>
0

>  <SCORE.SYSTEM.CONST>
0

>  <SCORE.SYSTEM.DIHEDRAL>
0

>  <SCORE.SYSTEM.SOLV>
0

>  <SCORE.SYSTEM.norm>
0

>  <SCORE.heavy>
11

>  <SCORE.norm>
-1.01829

>  <RMSD>
0.567

$$$$
ligand
 OpenBabel11021811493D
libRbt.so/2013.1/901 2013/11/27
 11 12  0  0  0  0  0  0  0  0999 V2000
   12.2998   11.5151    8.7276 N   0  0  0  0  0  0  0  0  0  0  0  0
   11.9249   12.7894    8.9430 C   0  0  0  0  0  0  0  0  0  0  0  0
   12.0534   13.3301   10.2143 N   0  0  0  0  0  0  0  0  0  0  0  0
   11.4272   13.5504    7.9555 N   0  0  0  0  0  0  0  0  0  0  0  0
   11.2777   13.0696    6.7111 C   0  0  0  0  0  0  0  0  0  0  0  0
   11.6565   11.7378    6.4290 C   0  0  0  0  0  0  0  0  0  0  0  0
   12.1866   10.9568    7.5034 C   0  0  0  0  0  0  0  0  0  0  0  0
   12.5763    9.6555    7.3005 N   0  0  0  0  0  0  0  0  0  0  0  0
   11.3995   11.5165    5.1081 N   0  0  0  0  0  0  0  0  0  0  0  0
   10.8999   12.5949    4.5834 C   0  0  0  0  0  0  0  0  0  0  0  0
   10.8066   13.5849    5.5288 N   0  0  0  0  0  0  0  0  0  0  0  0
  1  7  2  0  0  0  0
  1  2  1  0  0  0  0
  2  3  1  0  0  0  0
  2  4  2  0  0  0  0
  4  5  1  0  0  0  0
  5  6  2  0  0  0  0
  5 11  1  0  0  0  0
  6  7  1  0  0  0  0
  6  9  1  0  0  0  0
  7  8  1  0  0  0  0
  9 10  1  0  0  0  0
 10 11  2  0  0  0  0
M  END
>  <CHROM.1>
11.68905369,12.20774394,7.20637240,-0.95067525,1.17347486,-2.20541063

>  <Name>
ligand

>  <RI>
0

>  <Rbt.Current_Directory>
/home/itssahil/PROJECTS/Mol_Feturizer/New_Systems/rnas/4FEO

>  <Rbt.Executable>
rbdock ($Id: //depot/dev/client3/rdock/2013.1/src/exe/rbdock.cxx#4 $)

>  <Rbt.Library>
libRbt.so (2013.1, Build901 2013/11/27)

>  <Rbt.Parameter_File>
/export/apps/rDock/src/rDock_2013.1_src/data/scripts/dock_solv.prm

>  <Rbt.Receptor>
prm/pocket_docking_6.prm

>  <SCORE>
-11.1973

>  <SCORE.INTER>
-11.1973

>  <SCORE.INTER.CONST>
1

>  <SCORE.INTER.POLAR>
0

>  <SCORE.INTER.ROT>
0

>  <SCORE.INTER.SOLV>
19.1781

>  <SCORE.INTER.VDW>
-17.4576

>  <SCORE.INTER.norm>
-1.01794

>  <SCORE.INTRA>
0

>  <SCORE.INTRA.DIHEDRAL>
0

>  <SCORE.INTRA.DIHEDRAL.0>
0

>  <SCORE.INTRA.POLAR>
0

>  <SCORE.INTRA.POLAR.0>
0

>  <SCORE.INTRA.REPUL>
0

>  <SCORE.INTRA.REPUL.0>
0

>  <SCORE.INTRA.SOLV>
0

>  <SCORE.INTRA.SOLV.lig_0>
-48.9252

>  <SCORE.INTRA.VDW>
0

>  <SCORE.INTRA.VDW.0>
0

>  <SCORE.INTRA.norm>
0

>  <SCORE.RESTR>
0

>  <SCORE.RESTR.CAVITY>
0

>  <SCORE.RESTR.norm>
0

>  <SCORE.SYSTEM>
0

>  <SCORE.SYSTEM.CONST>
0

>  <SCORE.SYSTEM.DIHEDRAL>
0

>  <SCORE.SYSTEM.SOLV>
0

>  <SCORE.SYSTEM.norm>
0

>  <SCORE.heavy>
11

>  <SCORE.norm>
-1.01794

>  <RMSD>
0.567

$$$$
ligand
 OpenBabel11021811493D
libRbt.so/2013.1/901 2013/11/27
 11 12  0  0  0  0  0  0  0  0999 V2000
   12.2882   11.5382    8.7306 N   0  0  0  0  0  0  0  0  0  0  0  0
   11.9105   12.8142    8.9304 C   0  0  0  0  0  0  0  0  0  0  0  0
   12.0245   13.3664   10.1981 N   0  0  0  0  0  0  0  0  0  0  0  0
   11.4238   13.5661    7.9305 N   0  0  0  0  0  0  0  0  0  0  0  0
   11.2886   13.0741    6.6888 C   0  0  0  0  0  0  0  0  0  0  0  0
   11.6709   11.7400    6.4230 C   0  0  0  0  0  0  0  0  0  0  0  0
   12.1890   10.9689    7.5103 C   0  0  0  0  0  0  0  0  0  0  0  0
   12.5814    9.6660    7.3234 N   0  0  0  0  0  0  0  0  0  0  0  0
   11.4290   11.5068    5.1013 N   0  0  0  0  0  0  0  0  0  0  0  0
   10.9350   12.5803    4.5614 C   0  0  0  0  0  0  0  0  0  0  0  0
   10.8307   13.5787    5.4967 N   0  0  0  0  0  0  0  0  0  0  0  0
  1  7  2  0  0  0  0
  1  2  1  0  0  0  0
  2  3  1  0  0  0  0
  2  4  2  0  0  0  0
  4  5  1  0  0  0  0
  5  6  2  0  0  0  0
  5 11  1  0  0  0  0
  6  7  1  0  0  0  0
  6  9  1  0  0  0  0
  7  8  1  0  0  0  0
  9 10  1  0  0  0  0
 10 11  2  0  0  0  0
M  END
>  <CHROM.1>
11.69452370,12.21696080,7.19643903,-0.97507987,1.17983155,-2.19183430

>  <Name>
ligand

>  <RI>
0

>  <Rbt.Current_Directory>
/home/itssahil/PROJECTS/Mol_Feturizer/New_Systems/rnas/4FEO

>  <Rbt.Executable>
rbdock ($Id: //depot/dev/client3/rdock/2013.1/src/exe/rbdock.cxx#4 $)

>  <Rbt.Library>
libRbt.so (2013.1, Build901 2013/11/27)

>  <Rbt.Parameter_File>
/export/apps/rDock/src/rDock_2013.1_src/data/scripts/dock_solv.prm

>  <Rbt.Receptor>
prm/blind_docking_40.prm

>  <SCORE>
-11.17

>  <SCORE.INTER>
-11.17

>  <SCORE.INTER.CONST>
1

>  <SCORE.INTER.POLAR>
0

>  <SCORE.INTER.ROT>
0

>  <SCORE.INTER.SOLV>
19.2572

>  <SCORE.INTER.VDW>
-17.4657

>  <SCORE.INTER.norm>
-1.01545

>  <SCORE.INTRA>
0

>  <SCORE.INTRA.DIHEDRAL>
0

>  <SCORE.INTRA.DIHEDRAL.0>
0

>  <SCORE.INTRA.POLAR>
0

>  <SCORE.INTRA.POLAR.0>
0

>  <SCORE.INTRA.REPUL>
0

>  <SCORE.INTRA.REPUL.0>
0

>  <SCORE.INTRA.SOLV>
0

>  <SCORE.INTRA.SOLV.lig_0>
-48.9252

>  <SCORE.INTRA.VDW>
0

>  <SCORE.INTRA.VDW.0>
0

>  <SCORE.INTRA.norm>
0

>  <SCORE.RESTR>
0

>  <SCORE.RESTR.CAVITY>
0

>  <SCORE.RESTR.norm>
0

>  <SCORE.SYSTEM>
0

>  <SCORE.SYSTEM.CONST>
0

>  <SCORE.SYSTEM.DIHEDRAL>
0

>  <SCORE.SYSTEM.SOLV>
0

>  <SCORE.SYSTEM.norm>
0

>  <SCORE.heavy>
11

>  <SCORE.norm>
-1.01545

>  <RMSD>
0.568

$$$$
ligand
 OpenBabel11021811493D
libRbt.so/2013.1/901 2013/11/27
 11 12  0  0  0  0  0  0  0  0999 V2000
   12.2891   11.5318    8.7299 N   0  0  0  0  0  0  0  0  0  0  0  0
   11.9137   12.8076    8.9354 C   0  0  0  0  0  0  0  0  0  0  0  0
   12.0335   13.3554   10.2045 N   0  0  0  0  0  0  0  0  0  0  0  0
   11.4238   13.5633    7.9401 N   0  0  0  0  0  0  0  0  0  0  0  0
   11.2829   13.0756    6.6973 C   0  0  0  0  0  0  0  0  0  0  0  0
   11.6626   11.7419    6.4256 C   0  0  0  0  0  0  0  0  0  0  0  0
   12.1843   10.9666    7.5082 C   0  0  0  0  0  0  0  0  0  0  0  0
   12.5744    9.6639    7.3154 N   0  0  0  0  0  0  0  0  0  0  0  0
   11.4150   11.5134    5.1041 N   0  0  0  0  0  0  0  0  0  0  0  0
   10.9201   12.5892    4.5697 C   0  0  0  0  0  0  0  0  0  0  0  0
   10.8208   13.5846    5.5087 N   0  0  0  0  0  0  0  0  0  0  0  0
  1  7  2  0  0  0  0
  1  2  1  0  0  0  0
  2  3  1  0  0  0  0
  2  4  2  0  0  0  0
  4  5  1  0  0  0  0
  5  6  2  0  0  0  0
  5 11  1  0  0  0  0
  6  7  1  0  0  0  0
  6  9  1  0  0  0  0
  7  8  1  0  0  0  0
  9 10  1  0  0  0  0
 10 11  2  0  0  0  0
M  END
>  <CHROM.1>
11.68995079,12.21629634,7.20044184,-0.96459883,1.17838010,-2.19823023

>  <Name>
ligand

>  <RI>
0

>  <Rbt.Current_Directory>
/home/itssahil/PROJECTS/Mol_Feturizer/New_Systems/rnas/4FEO

>  <Rbt.Executable>
rbdock ($Id: //depot/dev/client3/rdock/2013.1/src/exe/rbdock.cxx#4 $)

>  <Rbt.Library>
libRbt.so (2013.1, Build901 2013/11/27)

>  <Rbt.Parameter_File>
/export/apps/rDock/src/rDock_2013.1_src/data/scripts/dock_solv.prm

>  <Rbt.Receptor>
prm/pocket_docking_4.prm

>  <SCORE>
-11.17

>  <SCORE.INTER>
-11.17

>  <SCORE.INTER.CONST>
1

>  <SCORE.INTER.POLAR>
0

>  <SCORE.INTER.ROT>
0

>  <SCORE.INTER.SOLV>
19.251

>  <SCORE.INTER.VDW>
-17.4637

>  <SCORE.INTER.norm>
-1.01546

>  <SCORE.INTRA>
0

>  <SCORE.INTRA.DIHEDRAL>
0

>  <SCORE.INTRA.DIHEDRAL.0>
0

>  <SCORE.INTRA.POLAR>
0

>  <SCORE.INTRA.POLAR.0>
0

>  <SCORE.INTRA.REPUL>
0

>  <SCORE.INTRA.REPUL.0>
0

>  <SCORE.INTRA.SOLV>
0

>  <SCORE.INTRA.SOLV.lig_0>
-48.9252

>  <SCORE.INTRA.VDW>
0

>  <SCORE.INTRA.VDW.0>
0

>  <SCORE.INTRA.norm>
0

>  <SCORE.RESTR>
0

>  <SCORE.RESTR.CAVITY>
0

>  <SCORE.RESTR.norm>
0

>  <SCORE.SYSTEM>
0

>  <SCORE.SYSTEM.CONST>
0

>  <SCORE.SYSTEM.DIHEDRAL>
0

>  <SCORE.SYSTEM.SOLV>
0

>  <SCORE.SYSTEM.norm>
0

>  <SCORE.heavy>
11

>  <SCORE.norm>
-1.01546

>  <RMSD>
0.568

$$$$
ligand
 OpenBabel11021811493D
libRbt.so/2013.1/901 2013/11/27
 11 12  0  0  0  0  0  0  0  0999 V2000
   12.2776   11.5383    8.7308 N   0  0  0  0  0  0  0  0  0  0  0  0
   11.9054   12.8154    8.9338 C   0  0  0  0  0  0  0  0  0  0  0  0
   12.0235   13.3644   10.2025 N   0  0  0  0  0  0  0  0  0  0  0  0
   11.4204   13.5714    7.9362 N   0  0  0  0  0  0  0  0  0  0  0  0
   11.2815   13.0826    6.6937 C   0  0  0  0  0  0  0  0  0  0  0  0
   11.6579   11.7474    6.4245 C   0  0  0  0  0  0  0  0  0  0  0  0
   12.1743   10.9719    7.5095 C   0  0  0  0  0  0  0  0  0  0  0  0
   12.5611    9.6678    7.3193 N   0  0  0  0  0  0  0  0  0  0  0  0
   11.4131   11.5179    5.1027 N   0  0  0  0  0  0  0  0  0  0  0  0
   10.9229   12.5946    4.5657 C   0  0  0  0  0  0  0  0  0  0  0  0
   10.8240   13.5914    5.5032 N   0  0  0  0  0  0  0  0  0  0  0  0
  1  7  2  0  0  0  0
  1  2  1  0  0  0  0
  2  3  1  0  0  0  0
  2  4  2  0  0  0  0
  4  5  1  0  0  0  0
  5  6  2  0  0  0  0
  5 11  1  0  0  0  0
  6  7  1  0  0  0  0
  6  9  1  0  0  0  0
  7  8  1  0  0  0  0
  9 10  1  0  0  0  0
 10 11  2  0  0  0  0
M  END
>  <CHROM.1>
11.68456397,12.22263795,7.19891329,-0.96567927,1.18236535,-2.19845255

>  <Name>
ligand

>  <RI>
0

>  <Rbt.Current_Directory>
/home/itssahil/PROJECTS/Mol_Feturizer/New_Systems/rnas/4FEO

>  <Rbt.Executable>
rbdock ($Id: //depot/dev/client3/rdock/2013.1/src/exe/rbdock.cxx#4 $)

>  <Rbt.Library>
libRbt.so (2013.1, Build901 2013/11/27)

>  <Rbt.Parameter_File>
/export/apps/rDock/src/rDock_2013.1_src/data/scripts/dock_solv.prm

>  <Rbt.Receptor>
prm/pocket_docking_4.prm

>  <SCORE>
-11.1675

>  <SCORE.INTER>
-11.1675

>  <SCORE.INTER.CONST>
1

>  <SCORE.INTER.POLAR>
0

>  <SCORE.INTER.ROT>
0

>  <SCORE.INTER.SOLV>
19.324

>  <SCORE.INTER.VDW>
-17.4863

>  <SCORE.INTER.norm>
-1.01523

>  <SCORE.INTRA>
0

>  <SCORE.INTRA.DIHEDRAL>
0

>  <SCORE.INTRA.DIHEDRAL.0>
0

>  <SCORE.INTRA.POLAR>
0

>  <SCORE.INTRA.POLAR.0>
0

>  <SCORE.INTRA.REPUL>
0

>  <SCORE.INTRA.REPUL.0>
0

>  <SCORE.INTRA.SOLV>
0

>  <SCORE.INTRA.SOLV.lig_0>
-48.9252

>  <SCORE.INTRA.VDW>
0

>  <SCORE.INTRA.VDW.0>
0

>  <SCORE.INTRA.norm>
0

>  <SCORE.RESTR>
0

>  <SCORE.RESTR.CAVITY>
0

>  <SCORE.RESTR.norm>
0

>  <SCORE.SYSTEM>
0

>  <SCORE.SYSTEM.CONST>
0

>  <SCORE.SYSTEM.DIHEDRAL>
0

>  <SCORE.SYSTEM.SOLV>
0

>  <SCORE.SYSTEM.norm>
0

>  <SCORE.heavy>
11

>  <SCORE.norm>
-1.01523

>  <RMSD>
0.568

$$$$
ligand
 OpenBabel11021811493D
libRbt.so/2013.1/901 2013/11/27
 11 12  0  0  0  0  0  0  0  0999 V2000
   12.2958   11.5512    8.7306 N   0  0  0  0  0  0  0  0  0  0  0  0
   11.9128   12.8262    8.9271 C   0  0  0  0  0  0  0  0  0  0  0  0
   12.0276   13.3831   10.1927 N   0  0  0  0  0  0  0  0  0  0  0  0
   11.4203   13.5726    7.9259 N   0  0  0  0  0  0  0  0  0  0  0  0
   11.2842   13.0758    6.6862 C   0  0  0  0  0  0  0  0  0  0  0  0
   11.6718   11.7425    6.4239 C   0  0  0  0  0  0  0  0  0  0  0  0
   12.1960   10.9774    7.5125 C   0  0  0  0  0  0  0  0  0  0  0  0
   12.5937    9.6756    7.3290 N   0  0  0  0  0  0  0  0  0  0  0  0
   11.4276   11.5038    5.1036 N   0  0  0  0  0  0  0  0  0  0  0  0
   10.9275   12.5733    4.5613 C   0  0  0  0  0  0  0  0  0  0  0  0
   10.8211   13.5743    5.4936 N   0  0  0  0  0  0  0  0  0  0  0  0
  1  7  2  0  0  0  0
  1  2  1  0  0  0  0
  2  3  1  0  0  0  0
  2  4  2  0  0  0  0
  4  5  1  0  0  0  0
  5  6  2  0  0  0  0
  5 11  1  0  0  0  0
  6  7  1  0  0  0  0
  6  9  1  0  0  0  0
  7  8  1  0  0  0  0
  9 10  1  0  0  0  0
 10 11  2  0  0  0  0
M  END
>  <CHROM.1>
11.69521559,12.22216615,7.19567895,-0.97650195,1.17476424,-2.19387042

>  <Name>
ligand

>  <RI>
0

>  <Rbt.Current_Directory>
/home/itssahil/PROJECTS/Mol_Feturizer/New_Systems/rnas/4FEO

>  <Rbt.Executable>
rbdock ($Id: //depot/dev/client3/rdock/2013.1/src/exe/rbdock.cxx#4 $)

>  <Rbt.Library>
libRbt.so (2013.1, Build901 2013/11/27)

>  <Rbt.Parameter_File>
/export/apps/rDock/src/rDock_2013.1_src/data/scripts/dock_solv.prm

>  <Rbt.Receptor>
prm/pocket_docking_5.prm

>  <SCORE>
-11.201

>  <SCORE.INTER>
-11.201

>  <SCORE.INTER.CONST>
1

>  <SCORE.INTER.POLAR>
0

>  <SCORE.INTER.ROT>
0

>  <SCORE.INTER.SOLV>
19.2352

>  <SCORE.INTER.VDW>
-17.4791

>  <SCORE.INTER.norm>
-1.01828

>  <SCORE.INTRA>
0

>  <SCORE.INTRA.DIHEDRAL>
0

>  <SCORE.INTRA.DIHEDRAL.0>
0

>  <SCORE.INTRA.POLAR>
0

>  <SCORE.INTRA.POLAR.0>
0

>  <SCORE.INTRA.REPUL>
0

>  <SCORE.INTRA.REPUL.0>
0

>  <SCORE.INTRA.SOLV>
0

>  <SCORE.INTRA.SOLV.lig_0>
-48.9252

>  <SCORE.INTRA.VDW>
0

>  <SCORE.INTRA.VDW.0>
0

>  <SCORE.INTRA.norm>
0

>  <SCORE.RESTR>
0

>  <SCORE.RESTR.CAVITY>
0

>  <SCORE.RESTR.norm>
0

>  <SCORE.SYSTEM>
0

>  <SCORE.SYSTEM.CONST>
0

>  <SCORE.SYSTEM.DIHEDRAL>
0

>  <SCORE.SYSTEM.SOLV>
0

>  <SCORE.SYSTEM.norm>
0

>  <SCORE.heavy>
11

>  <SCORE.norm>
-1.01828

>  <RMSD>
0.568

$$$$
ligand
 OpenBabel11021811493D
libRbt.so/2013.1/901 2013/11/27
 11 12  0  0  0  0  0  0  0  0999 V2000
   12.2862   11.5386    8.7303 N   0  0  0  0  0  0  0  0  0  0  0  0
   11.9076   12.8141    8.9315 C   0  0  0  0  0  0  0  0  0  0  0  0
   12.0217   13.3651   10.1998 N   0  0  0  0  0  0  0  0  0  0  0  0
   11.4200   13.5666    7.9326 N   0  0  0  0  0  0  0  0  0  0  0  0
   11.2847   13.0757    6.6905 C   0  0  0  0  0  0  0  0  0  0  0  0
   11.6679   11.7422    6.4232 C   0  0  0  0  0  0  0  0  0  0  0  0
   12.1870   10.9704    7.5095 C   0  0  0  0  0  0  0  0  0  0  0  0
   12.5803    9.6679    7.3212 N   0  0  0  0  0  0  0  0  0  0  0  0
   11.4256   11.5101    5.1013 N   0  0  0  0  0  0  0  0  0  0  0  0
   10.9307   12.5837    4.5626 C   0  0  0  0  0  0  0  0  0  0  0  0
   10.8260   13.5811    5.4990 N   0  0  0  0  0  0  0  0  0  0  0  0
  1  7  2  0  0  0  0
  1  2  1  0  0  0  0
  2  3  1  0  0  0  0
  2  4  2  0  0  0  0
  4  5  1  0  0  0  0
  5  6  2  0  0  0  0
  5 11  1  0  0  0  0
  6  7  1  0  0  0  0
  6  9  1  0  0  0  0
  7  8  1  0  0  0  0
  9 10  1  0  0  0  0
 10 11  2  0  0  0  0
M  END
>  <CHROM.1>
11.69144849,12.21835703,7.19705252,-0.97539372,1.17899917,-2.19056463

>  <Name>
ligand

>  <RI>
0

>  <Rbt.Current_Directory>
/home/itssahil/PROJECTS/Mol_Feturizer/New_Systems/rnas/4FEO

>  <Rbt.Executable>
rbdock ($Id: //depot/dev/client3/rdock/2013.1/src/exe/rbdock.cxx#4 $)

>  <Rbt.Library>
libRbt.so (2013.1, Build901 2013/11/27)

>  <Rbt.Parameter_File>
/export/apps/rDock/src/rDock_2013.1_src/data/scripts/dock_solv.prm

>  <Rbt.Receptor>
prm/pocket_docking_5.prm

>  <SCORE>
-11.1706

>  <SCORE.INTER>
-11.1706

>  <SCORE.INTER.CONST>
1

>  <SCORE.INTER.POLAR>
0

>  <SCORE.INTER.ROT>
0

>  <SCORE.INTER.SOLV>
19.2603

>  <SCORE.INTER.VDW>
-17.4672

>  <SCORE.INTER.norm>
-1.01551

>  <SCORE.INTRA>
0

>  <SCORE.INTRA.DIHEDRAL>
0

>  <SCORE.INTRA.DIHEDRAL.0>
0

>  <SCORE.INTRA.POLAR>
0

>  <SCORE.INTRA.POLAR.0>
0

>  <SCORE.INTRA.REPUL>
0

>  <SCORE.INTRA.REPUL.0>
0

>  <SCORE.INTRA.SOLV>
0

>  <SCORE.INTRA.SOLV.lig_0>
-48.9252

>  <SCORE.INTRA.VDW>
0

>  <SCORE.INTRA.VDW.0>
0

>  <SCORE.INTRA.norm>
0

>  <SCORE.RESTR>
0

>  <SCORE.RESTR.CAVITY>
0

>  <SCORE.RESTR.norm>
0

>  <SCORE.SYSTEM>
0

>  <SCORE.SYSTEM.CONST>
0

>  <SCORE.SYSTEM.DIHEDRAL>
0

>  <SCORE.SYSTEM.SOLV>
0

>  <SCORE.SYSTEM.norm>
0

>  <SCORE.heavy>
11

>  <SCORE.norm>
-1.01551

>  <RMSD>
0.568

$$$$
ligand
 OpenBabel11021811493D
libRbt.so/2013.1/901 2013/11/27
 11 12  0  0  0  0  0  0  0  0999 V2000
   12.2996   11.5494    8.7257 N   0  0  0  0  0  0  0  0  0  0  0  0
   11.9098   12.8207    8.9319 C   0  0  0  0  0  0  0  0  0  0  0  0
   12.0286   13.3709   10.2001 N   0  0  0  0  0  0  0  0  0  0  0  0
   11.4065   13.5698    7.9382 N   0  0  0  0  0  0  0  0  0  0  0  0
   11.2661   13.0795    6.6964 C   0  0  0  0  0  0  0  0  0  0  0  0
   11.6605   11.7502    6.4239 C   0  0  0  0  0  0  0  0  0  0  0  0
   12.1962   10.9820    7.5048 C   0  0  0  0  0  0  0  0  0  0  0  0
   12.6010    9.6839    7.3112 N   0  0  0  0  0  0  0  0  0  0  0  0
   11.4099   11.5177    5.1037 N   0  0  0  0  0  0  0  0  0  0  0  0
   10.8998   12.5872    4.5708 C   0  0  0  0  0  0  0  0  0  0  0  0
   10.7927   13.5820    5.5095 N   0  0  0  0  0  0  0  0  0  0  0  0
  1  7  2  0  0  0  0
  1  2  1  0  0  0  0
  2  3  1  0  0  0  0
  2  4  2  0  0  0  0
  4  5  1  0  0  0  0
  5  6  2  0  0  0  0
  5 11  1  0  0  0  0
  6  7  1  0  0  0  0
  6  9  1  0  0  0  0
  7  8  1  0  0  0  0
  9 10  1  0  0  0  0
 10 11  2  0  0  0  0
M  END
>  <CHROM.1>
11.68557508,12.22546959,7.19834394,-0.97345032,1.16611264,-2.19080667

>  <Name>
ligand

>  <RI>
0

>  <Rbt.Current_Directory>
/home/itssahil/PROJECTS/Mol_Feturizer/New_Systems/rnas/4FEO

>  <Rbt.Executable>
rbdock ($Id: //depot/dev/client3/rdock/2013.1/src/exe/rbdock.cxx#4 $)

>  <Rbt.Library>
libRbt.so (2013.1, Build901 2013/11/27)

>  <Rbt.Parameter_File>
/export/apps/rDock/src/rDock_2013.1_src/data/scripts/dock_solv.prm

>  <Rbt.Receptor>
prm/pocket_docking_8.prm

>  <SCORE>
-11.2257

>  <SCORE.INTER>
-11.2257

>  <SCORE.INTER.CONST>
1

>  <SCORE.INTER.POLAR>
0

>  <SCORE.INTER.ROT>
0

>  <SCORE.INTER.SOLV>
19.1867

>  <SCORE.INTER.VDW>
-17.4794

>  <SCORE.INTER.norm>
-1.02052

>  <SCORE.INTRA>
0

>  <SCORE.INTRA.DIHEDRAL>
0

>  <SCORE.INTRA.DIHEDRAL.0>
0

>  <SCORE.INTRA.POLAR>
0

>  <SCORE.INTRA.POLAR.0>
0

>  <SCORE.INTRA.REPUL>
0

>  <SCORE.INTRA.REPUL.0>
0

>  <SCORE.INTRA.SOLV>
0

>  <SCORE.INTRA.SOLV.lig_0>
-48.9252

>  <SCORE.INTRA.VDW>
0

>  <SCORE.INTRA.VDW.0>
0

>  <SCORE.INTRA.norm>
0

>  <SCORE.RESTR>
0

>  <SCORE.RESTR.CAVITY>
0

>  <SCORE.RESTR.norm>
0

>  <SCORE.SYSTEM>
0

>  <SCORE.SYSTEM.CONST>
0

>  <SCORE.SYSTEM.DIHEDRAL>
0

>  <SCORE.SYSTEM.SOLV>
0

>  <SCORE.SYSTEM.norm>
0

>  <SCORE.heavy>
11

>  <SCORE.norm>
-1.02052

>  <RMSD>
0.568

$$$$
ligand
 OpenBabel11021811493D
libRbt.so/2013.1/901 2013/11/27
 11 12  0  0  0  0  0  0  0  0999 V2000
   12.3030   11.5488    8.7304 N   0  0  0  0  0  0  0  0  0  0  0  0
   11.9238   12.8245    8.9288 C   0  0  0  0  0  0  0  0  0  0  0  0
   12.0459   13.3811   10.1939 N   0  0  0  0  0  0  0  0  0  0  0  0
   11.4280   13.5720    7.9301 N   0  0  0  0  0  0  0  0  0  0  0  0
   11.2848   13.0757    6.6910 C   0  0  0  0  0  0  0  0  0  0  0  0
   11.6682   11.7416    6.4268 C   0  0  0  0  0  0  0  0  0  0  0  0
   12.1961   10.9752    7.5127 C   0  0  0  0  0  0  0  0  0  0  0  0
   12.5901    9.6726    7.3272 N   0  0  0  0  0  0  0  0  0  0  0  0
   11.4171   11.5035    5.1076 N   0  0  0  0  0  0  0  0  0  0  0  0
   10.9168   12.5741    4.5679 C   0  0  0  0  0  0  0  0  0  0  0  0
   10.8171   13.5752    5.5007 N   0  0  0  0  0  0  0  0  0  0  0  0
  1  7  2  0  0  0  0
  1  2  1  0  0  0  0
  2  3  1  0  0  0  0
  2  4  2  0  0  0  0
  4  5  1  0  0  0  0
  5  6  2  0  0  0  0
  5 11  1  0  0  0  0
  6  7  1  0  0  0  0
  6  9  1  0  0  0  0
  7  8  1  0  0  0  0
  9 10  1  0  0  0  0
 10 11  2  0  0  0  0
M  END
>  <CHROM.1>
11.69648230,12.22109060,7.19843561,-0.96304315,1.17365306,-2.20622703

>  <Name>
ligand

>  <RI>
0

>  <Rbt.Current_Directory>
/home/itssahil/PROJECTS/Mol_Feturizer/New_Systems/rnas/4FEO

>  <Rbt.Executable>
rbdock ($Id: //depot/dev/client3/rdock/2013.1/src/exe/rbdock.cxx#4 $)

>  <Rbt.Library>
libRbt.so (2013.1, Build901 2013/11/27)

>  <Rbt.Parameter_File>
/export/apps/rDock/src/rDock_2013.1_src/data/scripts/dock_solv.prm

>  <Rbt.Receptor>
prm/pocket_docking_8.prm

>  <SCORE>
-11.1952

>  <SCORE.INTER>
-11.1952

>  <SCORE.INTER.CONST>
1

>  <SCORE.INTER.POLAR>
0

>  <SCORE.INTER.ROT>
0

>  <SCORE.INTER.SOLV>
19.2284

>  <SCORE.INTER.VDW>
-17.4729

>  <SCORE.INTER.norm>
-1.01775

>  <SCORE.INTRA>
0

>  <SCORE.INTRA.DIHEDRAL>
0

>  <SCORE.INTRA.DIHEDRAL.0>
0

>  <SCORE.INTRA.POLAR>
0

>  <SCORE.INTRA.POLAR.0>
0

>  <SCORE.INTRA.REPUL>
0

>  <SCORE.INTRA.REPUL.0>
0

>  <SCORE.INTRA.SOLV>
0

>  <SCORE.INTRA.SOLV.lig_0>
-48.9252

>  <SCORE.INTRA.VDW>
0

>  <SCORE.INTRA.VDW.0>
0

>  <SCORE.INTRA.norm>
0

>  <SCORE.RESTR>
0

>  <SCORE.RESTR.CAVITY>
0

>  <SCORE.RESTR.norm>
0

>  <SCORE.SYSTEM>
0

>  <SCORE.SYSTEM.CONST>
0

>  <SCORE.SYSTEM.DIHEDRAL>
0

>  <SCORE.SYSTEM.SOLV>
0

>  <SCORE.SYSTEM.norm>
0

>  <SCORE.heavy>
11

>  <SCORE.norm>
-1.01775

>  <RMSD>
0.568

$$$$
ligand
 OpenBabel11021811493D
libRbt.so/2013.1/901 2013/11/27
 11 12  0  0  0  0  0  0  0  0999 V2000
   12.2941   11.5226    8.7292 N   0  0  0  0  0  0  0  0  0  0  0  0
   11.9221   12.7992    8.9360 C   0  0  0  0  0  0  0  0  0  0  0  0
   12.0435   13.3454   10.2057 N   0  0  0  0  0  0  0  0  0  0  0  0
   11.4341   13.5572    7.9415 N   0  0  0  0  0  0  0  0  0  0  0  0
   11.2919   13.0711    6.6982 C   0  0  0  0  0  0  0  0  0  0  0  0
   11.6679   11.7367    6.4251 C   0  0  0  0  0  0  0  0  0  0  0  0
   12.1876   10.9589    7.5069 C   0  0  0  0  0  0  0  0  0  0  0  0
   12.5742    9.6554    7.3128 N   0  0  0  0  0  0  0  0  0  0  0  0
   11.4196   11.5101    5.1034 N   0  0  0  0  0  0  0  0  0  0  0  0
   10.9276   12.5878    4.5702 C   0  0  0  0  0  0  0  0  0  0  0  0
   10.8310   13.5825    5.5102 N   0  0  0  0  0  0  0  0  0  0  0  0
  1  7  2  0  0  0  0
  1  2  1  0  0  0  0
  2  3  1  0  0  0  0
  2  4  2  0  0  0  0
  4  5  1  0  0  0  0
  5  6  2  0  0  0  0
  5 11  1  0  0  0  0
  6  7  1  0  0  0  0
  6  9  1  0  0  0  0
  7  8  1  0  0  0  0
  9 10  1  0  0  0  0
 10 11  2  0  0  0  0
M  END
>  <CHROM.1>
11.69660265,12.21020798,7.20046304,-0.96029284,1.18050051,-2.20120960

>  <Name>
ligand

>  <RI>
0

>  <Rbt.Current_Directory>
/home/itssahil/PROJECTS/Mol_Feturizer/New_Systems/rnas/4FEO

>  <Rbt.Executable>
rbdock ($Id: //depot/dev/client3/rdock/2013.1/src/exe/rbdock.cxx#4 $)

>  <Rbt.Library>
libRbt.so (2013.1, Build901 2013/11/27)

>  <Rbt.Parameter_File>
/export/apps/rDock/src/rDock_2013.1_src/data/scripts/dock_solv.prm

>  <Rbt.Receptor>
prm/blind_docking_100.prm

>  <SCORE>
-11.1698

>  <SCORE.INTER>
-11.1698

>  <SCORE.INTER.CONST>
1

>  <SCORE.INTER.POLAR>
0

>  <SCORE.INTER.ROT>
0

>  <SCORE.INTER.SOLV>
19.2328

>  <SCORE.INTER.VDW>
-17.4575

>  <SCORE.INTER.norm>
-1.01544

>  <SCORE.INTRA>
0

>  <SCORE.INTRA.DIHEDRAL>
0

>  <SCORE.INTRA.DIHEDRAL.0>
0

>  <SCORE.INTRA.POLAR>
0

>  <SCORE.INTRA.POLAR.0>
0

>  <SCORE.INTRA.REPUL>
0

>  <SCORE.INTRA.REPUL.0>
0

>  <SCORE.INTRA.SOLV>
0

>  <SCORE.INTRA.SOLV.lig_0>
-48.9252

>  <SCORE.INTRA.VDW>
0

>  <SCORE.INTRA.VDW.0>
0

>  <SCORE.INTRA.norm>
0

>  <SCORE.RESTR>
0

>  <SCORE.RESTR.CAVITY>
0

>  <SCORE.RESTR.norm>
0

>  <SCORE.SYSTEM>
0

>  <SCORE.SYSTEM.CONST>
0

>  <SCORE.SYSTEM.DIHEDRAL>
0

>  <SCORE.SYSTEM.SOLV>
0

>  <SCORE.SYSTEM.norm>
0

>  <SCORE.heavy>
11

>  <SCORE.norm>
-1.01544

>  <RMSD>
0.569

$$$$
ligand
 OpenBabel11021811493D
libRbt.so/2013.1/901 2013/11/27
 11 12  0  0  0  0  0  0  0  0999 V2000
   12.3100   11.5434    8.7245 N   0  0  0  0  0  0  0  0  0  0  0  0
   11.9208   12.8146    8.9324 C   0  0  0  0  0  0  0  0  0  0  0  0
   12.0430   13.3642   10.2005 N   0  0  0  0  0  0  0  0  0  0  0  0
   11.4151   13.5643    7.9403 N   0  0  0  0  0  0  0  0  0  0  0  0
   11.2714   13.0746    6.6987 C   0  0  0  0  0  0  0  0  0  0  0  0
   11.6650   11.7454    6.4245 C   0  0  0  0  0  0  0  0  0  0  0  0
   12.2034   10.9767    7.5036 C   0  0  0  0  0  0  0  0  0  0  0  0
   12.6076    9.6786    7.3084 N   0  0  0  0  0  0  0  0  0  0  0  0
   11.4109   11.5136    5.1048 N   0  0  0  0  0  0  0  0  0  0  0  0
   10.8996   12.5833    4.5737 C   0  0  0  0  0  0  0  0  0  0  0  0
   10.7950   13.5777    5.5132 N   0  0  0  0  0  0  0  0  0  0  0  0
  1  7  2  0  0  0  0
  1  2  1  0  0  0  0
  2  3  1  0  0  0  0
  2  4  2  0  0  0  0
  4  5  1  0  0  0  0
  5  6  2  0  0  0  0
  5 11  1  0  0  0  0
  6  7  1  0  0  0  0
  6  9  1  0  0  0  0
  7  8  1  0  0  0  0
  9 10  1  0  0  0  0
 10 11  2  0  0  0  0
M  END
>  <CHROM.1>
11.69209486,12.22027342,7.19911574,-0.96802374,1.16468110,-2.19530086

>  <Name>
ligand

>  <RI>
0

>  <Rbt.Current_Directory>
/home/itssahil/PROJECTS/Mol_Feturizer/New_Systems/rnas/4FEO

>  <Rbt.Executable>
rbdock ($Id: //depot/dev/client3/rdock/2013.1/src/exe/rbdock.cxx#4 $)

>  <Rbt.Library>
libRbt.so (2013.1, Build901 2013/11/27)

>  <Rbt.Parameter_File>
/export/apps/rDock/src/rDock_2013.1_src/data/scripts/dock_solv.prm

>  <Rbt.Receptor>
prm/pocket_docking_3.prm

>  <SCORE>
-11.2246

>  <SCORE.INTER>
-11.2246

>  <SCORE.INTER.CONST>
1

>  <SCORE.INTER.POLAR>
0

>  <SCORE.INTER.ROT>
0

>  <SCORE.INTER.SOLV>
19.1441

>  <SCORE.INTER.VDW>
-17.4644

>  <SCORE.INTER.norm>
-1.02042

>  <SCORE.INTRA>
0

>  <SCORE.INTRA.DIHEDRAL>
0

>  <SCORE.INTRA.DIHEDRAL.0>
0

>  <SCORE.INTRA.POLAR>
0

>  <SCORE.INTRA.POLAR.0>
0

>  <SCORE.INTRA.REPUL>
0

>  <SCORE.INTRA.REPUL.0>
0

>  <SCORE.INTRA.SOLV>
0

>  <SCORE.INTRA.SOLV.lig_0>
-48.9252

>  <SCORE.INTRA.VDW>
0

>  <SCORE.INTRA.VDW.0>
0

>  <SCORE.INTRA.norm>
0

>  <SCORE.RESTR>
0

>  <SCORE.RESTR.CAVITY>
0

>  <SCORE.RESTR.norm>
0

>  <SCORE.SYSTEM>
0

>  <SCORE.SYSTEM.CONST>
0

>  <SCORE.SYSTEM.DIHEDRAL>
0

>  <SCORE.SYSTEM.SOLV>
0

>  <SCORE.SYSTEM.norm>
0

>  <SCORE.heavy>
11

>  <SCORE.norm>
-1.02042

>  <RMSD>
0.569

$$$$
ligand
 OpenBabel11021811493D
libRbt.so/2013.1/901 2013/11/27
 11 12  0  0  0  0  0  0  0  0999 V2000
   12.3013   11.5457    8.7237 N   0  0  0  0  0  0  0  0  0  0  0  0
   11.9087   12.8157    8.9327 C   0  0  0  0  0  0  0  0  0  0  0  0
   12.0254   13.3632   10.2023 N   0  0  0  0  0  0  0  0  0  0  0  0
   11.4046   13.5661    7.9403 N   0  0  0  0  0  0  0  0  0  0  0  0
   11.2662   13.0785    6.6973 C   0  0  0  0  0  0  0  0  0  0  0  0
   11.6636   11.7507    6.4220 C   0  0  0  0  0  0  0  0  0  0  0  0
   12.2000   10.9811    7.5014 C   0  0  0  0  0  0  0  0  0  0  0  0
   12.6077    9.6843    7.3051 N   0  0  0  0  0  0  0  0  0  0  0  0
   11.4145   11.5208    5.1010 N   0  0  0  0  0  0  0  0  0  0  0  0
   10.9026   12.5904    4.5702 C   0  0  0  0  0  0  0  0  0  0  0  0
   10.7927   13.5828    5.5112 N   0  0  0  0  0  0  0  0  0  0  0  0
  1  7  2  0  0  0  0
  1  2  1  0  0  0  0
  2  3  1  0  0  0  0
  2  4  2  0  0  0  0
  4  5  1  0  0  0  0
  5  6  2  0  0  0  0
  5 11  1  0  0  0  0
  6  7  1  0  0  0  0
  6  9  1  0  0  0  0
  7  8  1  0  0  0  0
  9 10  1  0  0  0  0
 10 11  2  0  0  0  0
M  END
>  <CHROM.1>
11.68706026,12.22415523,7.19754626,-0.97812920,1.16485010,-2.18413071

>  <Name>
ligand

>  <RI>
0

>  <Rbt.Current_Directory>
/home/itssahil/PROJECTS/Mol_Feturizer/New_Systems/rnas/4FEO

>  <Rbt.Executable>
rbdock ($Id: //depot/dev/client3/rdock/2013.1/src/exe/rbdock.cxx#4 $)

>  <Rbt.Library>
libRbt.so (2013.1, Build901 2013/11/27)

>  <Rbt.Parameter_File>
/export/apps/rDock/src/rDock_2013.1_src/data/scripts/dock_solv.prm

>  <Rbt.Receptor>
prm/pocket_docking_3.prm

>  <SCORE>
-11.227

>  <SCORE.INTER>
-11.227

>  <SCORE.INTER.CONST>
1

>  <SCORE.INTER.POLAR>
0

>  <SCORE.INTER.ROT>
0

>  <SCORE.INTER.SOLV>
19.1581

>  <SCORE.INTER.VDW>
-17.4707

>  <SCORE.INTER.norm>
-1.02064

>  <SCORE.INTRA>
0

>  <SCORE.INTRA.DIHEDRAL>
0

>  <SCORE.INTRA.DIHEDRAL.0>
0

>  <SCORE.INTRA.POLAR>
0

>  <SCORE.INTRA.POLAR.0>
0

>  <SCORE.INTRA.REPUL>
0

>  <SCORE.INTRA.REPUL.0>
0

>  <SCORE.INTRA.SOLV>
0

>  <SCORE.INTRA.SOLV.lig_0>
-48.9252

>  <SCORE.INTRA.VDW>
0

>  <SCORE.INTRA.VDW.0>
0

>  <SCORE.INTRA.norm>
0

>  <SCORE.RESTR>
0

>  <SCORE.RESTR.CAVITY>
0

>  <SCORE.RESTR.norm>
0

>  <SCORE.SYSTEM>
0

>  <SCORE.SYSTEM.CONST>
0

>  <SCORE.SYSTEM.DIHEDRAL>
0

>  <SCORE.SYSTEM.SOLV>
0

>  <SCORE.SYSTEM.norm>
0

>  <SCORE.heavy>
11

>  <SCORE.norm>
-1.02064

>  <RMSD>
0.569

$$$$
ligand
 OpenBabel11021811493D
libRbt.so/2013.1/901 2013/11/27
 11 12  0  0  0  0  0  0  0  0999 V2000
   12.3024   11.5489    8.7231 N   0  0  0  0  0  0  0  0  0  0  0  0
   11.9084   12.8187    8.9311 C   0  0  0  0  0  0  0  0  0  0  0  0
   12.0244   13.3672   10.2002 N   0  0  0  0  0  0  0  0  0  0  0  0
   11.4037   13.5677    7.9381 N   0  0  0  0  0  0  0  0  0  0  0  0
   11.2659   13.0790    6.6954 C   0  0  0  0  0  0  0  0  0  0  0  0
   11.6647   11.7514    6.4211 C   0  0  0  0  0  0  0  0  0  0  0  0
   12.2019   10.9832    7.5012 C   0  0  0  0  0  0  0  0  0  0  0  0
   12.6110    9.6867    7.3060 N   0  0  0  0  0  0  0  0  0  0  0  0
   11.4160   11.5202    5.1003 N   0  0  0  0  0  0  0  0  0  0  0  0
   10.9030   12.5889    4.5686 C   0  0  0  0  0  0  0  0  0  0  0  0
   10.7919   13.5819    5.5089 N   0  0  0  0  0  0  0  0  0  0  0  0
  1  7  2  0  0  0  0
  1  2  1  0  0  0  0
  2  3  1  0  0  0  0
  2  4  2  0  0  0  0
  4  5  1  0  0  0  0
  5  6  2  0  0  0  0
  5 11  1  0  0  0  0
  6  7  1  0  0  0  0
  6  9  1  0  0  0  0
  7  8  1  0  0  0  0
  9 10  1  0  0  0  0
 10 11  2  0  0  0  0
M  END
>  <CHROM.1>
11.68761168,12.22550294,7.19633848,-0.97992900,1.16403366,-2.18324162

>  <Name>
ligand

>  <RI>
0

>  <Rbt.Current_Directory>
/home/itssahil/PROJECTS/Mol_Feturizer/New_Systems/rnas/4FEO

>  <Rbt.Executable>
rbdock ($Id: //depot/dev/client3/rdock/2013.1/src/exe/rbdock.cxx#4 $)

>  <Rbt.Library>
libRbt.so (2013.1, Build901 2013/11/27)

>  <Rbt.Parameter_File>
/export/apps/rDock/src/rDock_2013.1_src/data/scripts/dock_solv.prm

>  <Rbt.Receptor>
prm/pocket_docking_3.prm

>  <SCORE>
-11.2268

>  <SCORE.INTER>
-11.2268

>  <SCORE.INTER.CONST>
1

>  <SCORE.INTER.POLAR>
0

>  <SCORE.INTER.ROT>
0

>  <SCORE.INTER.SOLV>
19.1539

>  <SCORE.INTER.VDW>
-17.4692

>  <SCORE.INTER.norm>
-1.02062

>  <SCORE.INTRA>
0

>  <SCORE.INTRA.DIHEDRAL>
0

>  <SCORE.INTRA.DIHEDRAL.0>
0

>  <SCORE.INTRA.POLAR>
0

>  <SCORE.INTRA.POLAR.0>
0

>  <SCORE.INTRA.REPUL>
0

>  <SCORE.INTRA.REPUL.0>
0

>  <SCORE.INTRA.SOLV>
0

>  <SCORE.INTRA.SOLV.lig_0>
-48.9252

>  <SCORE.INTRA.VDW>
0

>  <SCORE.INTRA.VDW.0>
0

>  <SCORE.INTRA.norm>
0

>  <SCORE.RESTR>
0

>  <SCORE.RESTR.CAVITY>
0

>  <SCORE.RESTR.norm>
0

>  <SCORE.SYSTEM>
0

>  <SCORE.SYSTEM.CONST>
0

>  <SCORE.SYSTEM.DIHEDRAL>
0

>  <SCORE.SYSTEM.SOLV>
0

>  <SCORE.SYSTEM.norm>
0

>  <SCORE.heavy>
11

>  <SCORE.norm>
-1.02062

>  <RMSD>
0.569

$$$$
ligand
 OpenBabel11021811493D
libRbt.so/2013.1/901 2013/11/27
 11 12  0  0  0  0  0  0  0  0999 V2000
   12.3048   11.5445    8.7237 N   0  0  0  0  0  0  0  0  0  0  0  0
   11.9135   12.8149    8.9326 C   0  0  0  0  0  0  0  0  0  0  0  0
   12.0321   13.3627   10.2019 N   0  0  0  0  0  0  0  0  0  0  0  0
   11.4088   13.5653    7.9406 N   0  0  0  0  0  0  0  0  0  0  0  0
   11.2685   13.0773    6.6979 C   0  0  0  0  0  0  0  0  0  0  0  0
   11.6645   11.7491    6.4226 C   0  0  0  0  0  0  0  0  0  0  0  0
   12.2016   10.9795    7.5017 C   0  0  0  0  0  0  0  0  0  0  0  0
   12.6080    9.6823    7.3054 N   0  0  0  0  0  0  0  0  0  0  0  0
   11.4136   11.5189    5.1020 N   0  0  0  0  0  0  0  0  0  0  0  0
   10.9019   12.5888    4.5714 C   0  0  0  0  0  0  0  0  0  0  0  0
   10.7939   13.5816    5.5122 N   0  0  0  0  0  0  0  0  0  0  0  0
  1  7  2  0  0  0  0
  1  2  1  0  0  0  0
  2  3  1  0  0  0  0
  2  4  2  0  0  0  0
  4  5  1  0  0  0  0
  5  6  2  0  0  0  0
  5 11  1  0  0  0  0
  6  7  1  0  0  0  0
  6  9  1  0  0  0  0
  7  8  1  0  0  0  0
  9 10  1  0  0  0  0
 10 11  2  0  0  0  0
M  END
>  <CHROM.1>
11.68926745,12.22285651,7.19796146,-0.97448041,1.16480853,-2.18785168

>  <Name>
ligand

>  <RI>
0

>  <Rbt.Current_Directory>
/home/itssahil/PROJECTS/Mol_Feturizer/New_Systems/rnas/4FEO

>  <Rbt.Executable>
rbdock ($Id: //depot/dev/client3/rdock/2013.1/src/exe/rbdock.cxx#4 $)

>  <Rbt.Library>
libRbt.so (2013.1, Build901 2013/11/27)

>  <Rbt.Parameter_File>
/export/apps/rDock/src/rDock_2013.1_src/data/scripts/dock_solv.prm

>  <Rbt.Receptor>
prm/pocket_docking_7.prm

>  <SCORE>
-11.2269

>  <SCORE.INTER>
-11.2269

>  <SCORE.INTER.CONST>
1

>  <SCORE.INTER.POLAR>
0

>  <SCORE.INTER.ROT>
0

>  <SCORE.INTER.SOLV>
19.1498

>  <SCORE.INTER.VDW>
-17.4679

>  <SCORE.INTER.norm>
-1.02063

>  <SCORE.INTRA>
0

>  <SCORE.INTRA.DIHEDRAL>
0

>  <SCORE.INTRA.DIHEDRAL.0>
0

>  <SCORE.INTRA.POLAR>
0

>  <SCORE.INTRA.POLAR.0>
0

>  <SCORE.INTRA.REPUL>
0

>  <SCORE.INTRA.REPUL.0>
0

>  <SCORE.INTRA.SOLV>
0

>  <SCORE.INTRA.SOLV.lig_0>
-48.9252

>  <SCORE.INTRA.VDW>
0

>  <SCORE.INTRA.VDW.0>
0

>  <SCORE.INTRA.norm>
0

>  <SCORE.RESTR>
0

>  <SCORE.RESTR.CAVITY>
0

>  <SCORE.RESTR.norm>
0

>  <SCORE.SYSTEM>
0

>  <SCORE.SYSTEM.CONST>
0

>  <SCORE.SYSTEM.DIHEDRAL>
0

>  <SCORE.SYSTEM.SOLV>
0

>  <SCORE.SYSTEM.norm>
0

>  <SCORE.heavy>
11

>  <SCORE.norm>
-1.02063

>  <RMSD>
0.569

$$$$
ligand
 OpenBabel11021811493D
libRbt.so/2013.1/901 2013/11/27
 11 12  0  0  0  0  0  0  0  0999 V2000
   12.2906   11.5214    8.7281 N   0  0  0  0  0  0  0  0  0  0  0  0
   11.9151   12.7968    8.9355 C   0  0  0  0  0  0  0  0  0  0  0  0
   12.0305   13.3414   10.2064 N   0  0  0  0  0  0  0  0  0  0  0  0
   11.4293   13.5554    7.9402 N   0  0  0  0  0  0  0  0  0  0  0  0
   11.2929   13.0709    6.6957 C   0  0  0  0  0  0  0  0  0  0  0  0
   11.6728   11.7377    6.4220 C   0  0  0  0  0  0  0  0  0  0  0  0
   12.1900   10.9593    7.5045 C   0  0  0  0  0  0  0  0  0  0  0  0
   12.5801    9.6569    7.3099 N   0  0  0  0  0  0  0  0  0  0  0  0
   11.4300   11.5126    5.0990 N   0  0  0  0  0  0  0  0  0  0  0  0
   10.9377   12.5901    4.5656 C   0  0  0  0  0  0  0  0  0  0  0  0
   10.8354   13.5831    5.5067 N   0  0  0  0  0  0  0  0  0  0  0  0
  1  7  2  0  0  0  0
  1  2  1  0  0  0  0
  2  3  1  0  0  0  0
  2  4  2  0  0  0  0
  4  5  1  0  0  0  0
  5  6  2  0  0  0  0
  5 11  1  0  0  0  0
  6  7  1  0  0  0  0
  6  9  1  0  0  0  0
  7  8  1  0  0  0  0
  9 10  1  0  0  0  0
 10 11  2  0  0  0  0
M  END
>  <CHROM.1>
11.69753842,12.21005586,7.19816615,-0.97169025,1.18099940,-2.18913995

>  <Name>
ligand

>  <RI>
0

>  <Rbt.Current_Directory>
/home/itssahil/PROJECTS/Mol_Feturizer/New_Systems/rnas/4FEO

>  <Rbt.Executable>
rbdock ($Id: //depot/dev/client3/rdock/2013.1/src/exe/rbdock.cxx#4 $)

>  <Rbt.Library>
libRbt.so (2013.1, Build901 2013/11/27)

>  <Rbt.Parameter_File>
/export/apps/rDock/src/rDock_2013.1_src/data/scripts/dock_solv.prm

>  <Rbt.Receptor>
prm/pocket_docking_3.prm

>  <SCORE>
-11.1711

>  <SCORE.INTER>
-11.1711

>  <SCORE.INTER.CONST>
1

>  <SCORE.INTER.POLAR>
0

>  <SCORE.INTER.ROT>
0

>  <SCORE.INTER.SOLV>
19.2225

>  <SCORE.INTER.VDW>
-17.4549

>  <SCORE.INTER.norm>
-1.01556

>  <SCORE.INTRA>
0

>  <SCORE.INTRA.DIHEDRAL>
0

>  <SCORE.INTRA.DIHEDRAL.0>
0

>  <SCORE.INTRA.POLAR>
0

>  <SCORE.INTRA.POLAR.0>
0

>  <SCORE.INTRA.REPUL>
0

>  <SCORE.INTRA.REPUL.0>
0

>  <SCORE.INTRA.SOLV>
0

>  <SCORE.INTRA.SOLV.lig_0>
-48.9252

>  <SCORE.INTRA.VDW>
0

>  <SCORE.INTRA.VDW.0>
0

>  <SCORE.INTRA.norm>
0

>  <SCORE.RESTR>
0

>  <SCORE.RESTR.CAVITY>
0

>  <SCORE.RESTR.norm>
0

>  <SCORE.SYSTEM>
0

>  <SCORE.SYSTEM.CONST>
0

>  <SCORE.SYSTEM.DIHEDRAL>
0

>  <SCORE.SYSTEM.SOLV>
0

>  <SCORE.SYSTEM.norm>
0

>  <SCORE.heavy>
11

>  <SCORE.norm>
-1.01556

>  <RMSD>
0.570

$$$$
ligand
 OpenBabel11021811493D
libRbt.so/2013.1/901 2013/11/27
 11 12  0  0  0  0  0  0  0  0999 V2000
   12.2926   11.5151    8.7278 N   0  0  0  0  0  0  0  0  0  0  0  0
   11.9212   12.7911    8.9391 C   0  0  0  0  0  0  0  0  0  0  0  0
   12.0434   13.3330   10.2105 N   0  0  0  0  0  0  0  0  0  0  0  0
   11.4331   13.5527    7.9473 N   0  0  0  0  0  0  0  0  0  0  0  0
   11.2900   13.0708    6.7025 C   0  0  0  0  0  0  0  0  0  0  0  0
   11.6654   11.7372    6.4247 C   0  0  0  0  0  0  0  0  0  0  0  0
   12.1853   10.9556    7.5036 C   0  0  0  0  0  0  0  0  0  0  0  0
   12.5713    9.6525    7.3050 N   0  0  0  0  0  0  0  0  0  0  0  0
   11.4163   11.5151    5.1024 N   0  0  0  0  0  0  0  0  0  0  0  0
   10.9245   12.5948    4.5730 C   0  0  0  0  0  0  0  0  0  0  0  0
   10.8288   13.5864    5.5164 N   0  0  0  0  0  0  0  0  0  0  0  0
  1  7  2  0  0  0  0
  1  2  1  0  0  0  0
  2  3  1  0  0  0  0
  2  4  2  0  0  0  0
  4  5  1  0  0  0  0
  5  6  2  0  0  0  0
  5 11  1  0  0  0  0
  6  7  1  0  0  0  0
  6  9  1  0  0  0  0
  7  8  1  0  0  0  0
  9 10  1  0  0  0  0
 10 11  2  0  0  0  0
M  END
>  <CHROM.1>
11.69466873,12.20806051,7.20163449,-0.95865179,1.18052578,-2.19937081

>  <Name>
ligand

>  <RI>
0

>  <Rbt.Current_Directory>
/home/itssahil/PROJECTS/Mol_Feturizer/New_Systems/rnas/4FEO

>  <Rbt.Executable>
rbdock ($Id: //depot/dev/client3/rdock/2013.1/src/exe/rbdock.cxx#4 $)

>  <Rbt.Library>
libRbt.so (2013.1, Build901 2013/11/27)

>  <Rbt.Parameter_File>
/export/apps/rDock/src/rDock_2013.1_src/data/scripts/dock_solv.prm

>  <Rbt.Receptor>
prm/pocket_docking_4.prm

>  <SCORE>
-11.1711

>  <SCORE.INTER>
-11.1711

>  <SCORE.INTER.CONST>
1

>  <SCORE.INTER.POLAR>
0

>  <SCORE.INTER.ROT>
0

>  <SCORE.INTER.SOLV>
19.2218

>  <SCORE.INTER.VDW>
-17.4546

>  <SCORE.INTER.norm>
-1.01555

>  <SCORE.INTRA>
0

>  <SCORE.INTRA.DIHEDRAL>
0

>  <SCORE.INTRA.DIHEDRAL.0>
0

>  <SCORE.INTRA.POLAR>
0

>  <SCORE.INTRA.POLAR.0>
0

>  <SCORE.INTRA.REPUL>
0

>  <SCORE.INTRA.REPUL.0>
0

>  <SCORE.INTRA.SOLV>
0

>  <SCORE.INTRA.SOLV.lig_0>
-48.9252

>  <SCORE.INTRA.VDW>
0

>  <SCORE.INTRA.VDW.0>
0

>  <SCORE.INTRA.norm>
0

>  <SCORE.RESTR>
0

>  <SCORE.RESTR.CAVITY>
0

>  <SCORE.RESTR.norm>
0

>  <SCORE.SYSTEM>
0

>  <SCORE.SYSTEM.CONST>
0

>  <SCORE.SYSTEM.DIHEDRAL>
0

>  <SCORE.SYSTEM.SOLV>
0

>  <SCORE.SYSTEM.norm>
0

>  <SCORE.heavy>
11

>  <SCORE.norm>
-1.01555

>  <RMSD>
0.570

$$$$
ligand
 OpenBabel11021811493D
libRbt.so/2013.1/901 2013/11/27
 11 12  0  0  0  0  0  0  0  0999 V2000
   12.2998   11.5476    8.7272 N   0  0  0  0  0  0  0  0  0  0  0  0
   11.9184   12.8222    8.9289 C   0  0  0  0  0  0  0  0  0  0  0  0
   12.0379   13.3751   10.1959 N   0  0  0  0  0  0  0  0  0  0  0  0
   11.4229   13.5720    7.9318 N   0  0  0  0  0  0  0  0  0  0  0  0
   11.2822   13.0792    6.6911 C   0  0  0  0  0  0  0  0  0  0  0  0
   11.6680   11.7464    6.4233 C   0  0  0  0  0  0  0  0  0  0  0  0
   12.1956   10.9776    7.5076 C   0  0  0  0  0  0  0  0  0  0  0  0
   12.5918    9.6762    7.3188 N   0  0  0  0  0  0  0  0  0  0  0  0
   11.4191   11.5120    5.1031 N   0  0  0  0  0  0  0  0  0  0  0  0
   10.9179   12.5835    4.5659 C   0  0  0  0  0  0  0  0  0  0  0  0
   10.8154   13.5816    5.5015 N   0  0  0  0  0  0  0  0  0  0  0  0
  1  7  2  0  0  0  0
  1  2  1  0  0  0  0
  2  3  1  0  0  0  0
  2  4  2  0  0  0  0
  4  5  1  0  0  0  0
  5  6  2  0  0  0  0
  5 11  1  0  0  0  0
  6  7  1  0  0  0  0
  6  9  1  0  0  0  0
  7  8  1  0  0  0  0
  9 10  1  0  0  0  0
 10 11  2  0  0  0  0
M  END
>  <CHROM.1>
11.69445422,12.22367912,7.19643343,-0.96832489,1.17325998,-2.19832254

>  <Name>
ligand

>  <RI>
0

>  <Rbt.Current_Directory>
/home/itssahil/PROJECTS/Mol_Feturizer/New_Systems/rnas/4FEO

>  <Rbt.Executable>
rbdock ($Id: //depot/dev/client3/rdock/2013.1/src/exe/rbdock.cxx#4 $)

>  <Rbt.Library>
libRbt.so (2013.1, Build901 2013/11/27)

>  <Rbt.Parameter_File>
/export/apps/rDock/src/rDock_2013.1_src/data/scripts/dock_solv.prm

>  <Rbt.Receptor>
prm/pocket_docking_4.prm

>  <SCORE>
-11.1975

>  <SCORE.INTER>
-11.1975

>  <SCORE.INTER.CONST>
1

>  <SCORE.INTER.POLAR>
0

>  <SCORE.INTER.ROT>
0

>  <SCORE.INTER.SOLV>
19.2231

>  <SCORE.INTER.VDW>
-17.4727

>  <SCORE.INTER.norm>
-1.01795

>  <SCORE.INTRA>
0

>  <SCORE.INTRA.DIHEDRAL>
0

>  <SCORE.INTRA.DIHEDRAL.0>
0

>  <SCORE.INTRA.POLAR>
0

>  <SCORE.INTRA.POLAR.0>
0

>  <SCORE.INTRA.REPUL>
0

>  <SCORE.INTRA.REPUL.0>
0

>  <SCORE.INTRA.SOLV>
0

>  <SCORE.INTRA.SOLV.lig_0>
-48.9252

>  <SCORE.INTRA.VDW>
0

>  <SCORE.INTRA.VDW.0>
0

>  <SCORE.INTRA.norm>
0

>  <SCORE.RESTR>
0

>  <SCORE.RESTR.CAVITY>
0

>  <SCORE.RESTR.norm>
0

>  <SCORE.SYSTEM>
0

>  <SCORE.SYSTEM.CONST>
0

>  <SCORE.SYSTEM.DIHEDRAL>
0

>  <SCORE.SYSTEM.SOLV>
0

>  <SCORE.SYSTEM.norm>
0

>  <SCORE.heavy>
11

>  <SCORE.norm>
-1.01795

>  <RMSD>
0.570

$$$$
ligand
 OpenBabel11021811493D
libRbt.so/2013.1/901 2013/11/27
 11 12  0  0  0  0  0  0  0  0999 V2000
   12.3060   11.5450    8.7268 N   0  0  0  0  0  0  0  0  0  0  0  0
   11.9213   12.8187    8.9277 C   0  0  0  0  0  0  0  0  0  0  0  0
   12.0397   13.3729   10.1941 N   0  0  0  0  0  0  0  0  0  0  0  0
   11.4236   13.5664    7.9301 N   0  0  0  0  0  0  0  0  0  0  0  0
   11.2838   13.0722    6.6898 C   0  0  0  0  0  0  0  0  0  0  0  0
   11.6730   11.7403    6.4229 C   0  0  0  0  0  0  0  0  0  0  0  0
   12.2029   10.9737    7.5077 C   0  0  0  0  0  0  0  0  0  0  0  0
   12.6025    9.6731    7.3198 N   0  0  0  0  0  0  0  0  0  0  0  0
   11.4243   11.5041    5.1030 N   0  0  0  0  0  0  0  0  0  0  0  0
   10.9202   12.5739    4.5651 C   0  0  0  0  0  0  0  0  0  0  0  0
   10.8153   13.5725    5.5000 N   0  0  0  0  0  0  0  0  0  0  0  0
  1  7  2  0  0  0  0
  1  2  1  0  0  0  0
  2  3  1  0  0  0  0
  2  4  2  0  0  0  0
  4  5  1  0  0  0  0
  5  6  2  0  0  0  0
  5 11  1  0  0  0  0
  6  7  1  0  0  0  0
  6  9  1  0  0  0  0
  7  8  1  0  0  0  0
  9 10  1  0  0  0  0
 10 11  2  0  0  0  0
M  END
>  <CHROM.1>
11.69840930,12.21821942,7.19570636,-0.97162879,1.17096781,-2.19606215

>  <Name>
ligand

>  <RI>
0

>  <Rbt.Current_Directory>
/home/itssahil/PROJECTS/Mol_Feturizer/New_Systems/rnas/4FEO

>  <Rbt.Executable>
rbdock ($Id: //depot/dev/client3/rdock/2013.1/src/exe/rbdock.cxx#4 $)

>  <Rbt.Library>
libRbt.so (2013.1, Build901 2013/11/27)

>  <Rbt.Parameter_File>
/export/apps/rDock/src/rDock_2013.1_src/data/scripts/dock_solv.prm

>  <Rbt.Receptor>
prm/pocket_docking_5.prm

>  <SCORE>
-11.1972

>  <SCORE.INTER>
-11.1972

>  <SCORE.INTER.CONST>
1

>  <SCORE.INTER.POLAR>
0

>  <SCORE.INTER.ROT>
0

>  <SCORE.INTER.SOLV>
19.182

>  <SCORE.INTER.VDW>
-17.4588

>  <SCORE.INTER.norm>
-1.01793

>  <SCORE.INTRA>
0

>  <SCORE.INTRA.DIHEDRAL>
0

>  <SCORE.INTRA.DIHEDRAL.0>
0

>  <SCORE.INTRA.POLAR>
0

>  <SCORE.INTRA.POLAR.0>
0

>  <SCORE.INTRA.REPUL>
0

>  <SCORE.INTRA.REPUL.0>
0

>  <SCORE.INTRA.SOLV>
0

>  <SCORE.INTRA.SOLV.lig_0>
-48.9252

>  <SCORE.INTRA.VDW>
0

>  <SCORE.INTRA.VDW.0>
0

>  <SCORE.INTRA.norm>
0

>  <SCORE.RESTR>
0

>  <SCORE.RESTR.CAVITY>
0

>  <SCORE.RESTR.norm>
0

>  <SCORE.SYSTEM>
0

>  <SCORE.SYSTEM.CONST>
0

>  <SCORE.SYSTEM.DIHEDRAL>
0

>  <SCORE.SYSTEM.SOLV>
0

>  <SCORE.SYSTEM.norm>
0

>  <SCORE.heavy>
11

>  <SCORE.norm>
-1.01793

>  <RMSD>
0.570

$$$$
ligand
 OpenBabel11021811493D
libRbt.so/2013.1/901 2013/11/27
 11 12  0  0  0  0  0  0  0  0999 V2000
   12.3001   11.5488    8.7282 N   0  0  0  0  0  0  0  0  0  0  0  0
   11.9192   12.8240    8.9268 C   0  0  0  0  0  0  0  0  0  0  0  0
   12.0369   13.3793   10.1928 N   0  0  0  0  0  0  0  0  0  0  0  0
   11.4260   13.5722    7.9273 N   0  0  0  0  0  0  0  0  0  0  0  0
   11.2870   13.0771    6.6873 C   0  0  0  0  0  0  0  0  0  0  0  0
   11.6724   11.7435    6.4228 C   0  0  0  0  0  0  0  0  0  0  0  0
   12.1975   10.9764    7.5096 C   0  0  0  0  0  0  0  0  0  0  0  0
   12.5931    9.6744    7.3239 N   0  0  0  0  0  0  0  0  0  0  0  0
   11.4256   11.5066    5.1026 N   0  0  0  0  0  0  0  0  0  0  0  0
   10.9260   12.5774    4.5625 C   0  0  0  0  0  0  0  0  0  0  0  0
   10.8226   13.5775    5.4960 N   0  0  0  0  0  0  0  0  0  0  0  0
  1  7  2  0  0  0  0
  1  2  1  0  0  0  0
  2  3  1  0  0  0  0
  2  4  2  0  0  0  0
  4  5  1  0  0  0  0
  5  6  2  0  0  0  0
  5 11  1  0  0  0  0
  6  7  1  0  0  0  0
  6  9  1  0  0  0  0
  7  8  1  0  0  0  0
  9 10  1  0  0  0  0
 10 11  2  0  0  0  0
M  END
>  <CHROM.1>
11.69779395,12.22226241,7.19506422,-0.97082806,1.17483409,-2.19797031

>  <Name>
ligand

>  <RI>
0

>  <Rbt.Current_Directory>
/home/itssahil/PROJECTS/Mol_Feturizer/New_Systems/rnas/4FEO

>  <Rbt.Executable>
rbdock ($Id: //depot/dev/client3/rdock/2013.1/src/exe/rbdock.cxx#4 $)

>  <Rbt.Library>
libRbt.so (2013.1, Build901 2013/11/27)

>  <Rbt.Parameter_File>
/export/apps/rDock/src/rDock_2013.1_src/data/scripts/dock_solv.prm

>  <Rbt.Receptor>
prm/pocket_docking_6.prm

>  <SCORE>
-11.198

>  <SCORE.INTER>
-11.198

>  <SCORE.INTER.CONST>
1

>  <SCORE.INTER.POLAR>
0

>  <SCORE.INTER.ROT>
0

>  <SCORE.INTER.SOLV>
19.2274

>  <SCORE.INTER.VDW>
-17.4745

>  <SCORE.INTER.norm>
-1.018

>  <SCORE.INTRA>
0

>  <SCORE.INTRA.DIHEDRAL>
0

>  <SCORE.INTRA.DIHEDRAL.0>
0

>  <SCORE.INTRA.POLAR>
0

>  <SCORE.INTRA.POLAR.0>
0

>  <SCORE.INTRA.REPUL>
0

>  <SCORE.INTRA.REPUL.0>
0

>  <SCORE.INTRA.SOLV>
0

>  <SCORE.INTRA.SOLV.lig_0>
-48.9252

>  <SCORE.INTRA.VDW>
0

>  <SCORE.INTRA.VDW.0>
0

>  <SCORE.INTRA.norm>
0

>  <SCORE.RESTR>
0

>  <SCORE.RESTR.CAVITY>
0

>  <SCORE.RESTR.norm>
0

>  <SCORE.SYSTEM>
0

>  <SCORE.SYSTEM.CONST>
0

>  <SCORE.SYSTEM.DIHEDRAL>
0

>  <SCORE.SYSTEM.SOLV>
0

>  <SCORE.SYSTEM.norm>
0

>  <SCORE.heavy>
11

>  <SCORE.norm>
-1.018

>  <RMSD>
0.570

$$$$
ligand
 OpenBabel11021811493D
libRbt.so/2013.1/901 2013/11/27
 11 12  0  0  0  0  0  0  0  0999 V2000
   12.2911   11.5100    8.7293 N   0  0  0  0  0  0  0  0  0  0  0  0
   11.9244   12.7874    8.9401 C   0  0  0  0  0  0  0  0  0  0  0  0
   12.0475   13.3290   10.2115 N   0  0  0  0  0  0  0  0  0  0  0  0
   11.4402   13.5508    7.9477 N   0  0  0  0  0  0  0  0  0  0  0  0
   11.2965   13.0693    6.7029 C   0  0  0  0  0  0  0  0  0  0  0  0
   11.6670   11.7341    6.4256 C   0  0  0  0  0  0  0  0  0  0  0  0
   12.1828   10.9507    7.5051 C   0  0  0  0  0  0  0  0  0  0  0  0
   12.5640    9.6461    7.3070 N   0  0  0  0  0  0  0  0  0  0  0  0
   11.4184   11.5129    5.1031 N   0  0  0  0  0  0  0  0  0  0  0  0
   10.9312   12.5944    4.5731 C   0  0  0  0  0  0  0  0  0  0  0  0
   10.8384   13.5864    5.5163 N   0  0  0  0  0  0  0  0  0  0  0  0
  1  7  2  0  0  0  0
  1  2  1  0  0  0  0
  2  3  1  0  0  0  0
  2  4  2  0  0  0  0
  4  5  1  0  0  0  0
  5  6  2  0  0  0  0
  5 11  1  0  0  0  0
  6  7  1  0  0  0  0
  6  9  1  0  0  0  0
  7  8  1  0  0  0  0
  9 10  1  0  0  0  0
 10 11  2  0  0  0  0
M  END
>  <CHROM.1>
11.69730530,12.20503233,7.20250922,-0.95470605,1.18422845,-2.20315838

>  <Name>
ligand

>  <RI>
0

>  <Rbt.Current_Directory>
/home/itssahil/PROJECTS/Mol_Feturizer/New_Systems/rnas/4FEO

>  <Rbt.Executable>
rbdock ($Id: //depot/dev/client3/rdock/2013.1/src/exe/rbdock.cxx#4 $)

>  <Rbt.Library>
libRbt.so (2013.1, Build901 2013/11/27)

>  <Rbt.Parameter_File>
/export/apps/rDock/src/rDock_2013.1_src/data/scripts/dock_solv.prm

>  <Rbt.Receptor>
prm/pocket_docking_8.prm

>  <SCORE>
-11.1705

>  <SCORE.INTER>
-11.1705

>  <SCORE.INTER.CONST>
1

>  <SCORE.INTER.POLAR>
0

>  <SCORE.INTER.ROT>
0

>  <SCORE.INTER.SOLV>
19.2417

>  <SCORE.INTER.VDW>
-17.4609

>  <SCORE.INTER.norm>
-1.0155

>  <SCORE.INTRA>
0

>  <SCORE.INTRA.DIHEDRAL>
0

>  <SCORE.INTRA.DIHEDRAL.0>
0

>  <SCORE.INTRA.POLAR>
0

>  <SCORE.INTRA.POLAR.0>
0

>  <SCORE.INTRA.REPUL>
0

>  <SCORE.INTRA.REPUL.0>
0

>  <SCORE.INTRA.SOLV>
0

>  <SCORE.INTRA.SOLV.lig_0>
-48.9252

>  <SCORE.INTRA.VDW>
0

>  <SCORE.INTRA.VDW.0>
0

>  <SCORE.INTRA.norm>
0

>  <SCORE.RESTR>
0

>  <SCORE.RESTR.CAVITY>
0

>  <SCORE.RESTR.norm>
0

>  <SCORE.SYSTEM>
0

>  <SCORE.SYSTEM.CONST>
0

>  <SCORE.SYSTEM.DIHEDRAL>
0

>  <SCORE.SYSTEM.SOLV>
0

>  <SCORE.SYSTEM.norm>
0

>  <SCORE.heavy>
11

>  <SCORE.norm>
-1.0155

>  <RMSD>
0.570

$$$$
ligand
 OpenBabel11021811493D
libRbt.so/2013.1/901 2013/11/27
 11 12  0  0  0  0  0  0  0  0999 V2000
   12.3138   11.5404    8.7225 N   0  0  0  0  0  0  0  0  0  0  0  0
   11.9276   12.8121    8.9327 C   0  0  0  0  0  0  0  0  0  0  0  0
   12.0528   13.3598   10.2013 N   0  0  0  0  0  0  0  0  0  0  0  0
   11.4217   13.5640    7.9423 N   0  0  0  0  0  0  0  0  0  0  0  0
   11.2751   13.0762    6.7003 C   0  0  0  0  0  0  0  0  0  0  0  0
   11.6656   11.7466    6.4238 C   0  0  0  0  0  0  0  0  0  0  0  0
   12.2041   10.9754    7.5011 C   0  0  0  0  0  0  0  0  0  0  0  0
   12.6054    9.6768    7.3035 N   0  0  0  0  0  0  0  0  0  0  0  0
   11.4090   11.5169    5.1042 N   0  0  0  0  0  0  0  0  0  0  0  0
   10.8989   12.5884    4.5753 C   0  0  0  0  0  0  0  0  0  0  0  0
   10.7978   13.5818    5.5163 N   0  0  0  0  0  0  0  0  0  0  0  0
  1  7  2  0  0  0  0
  1  2  1  0  0  0  0
  2  3  1  0  0  0  0
  2  4  2  0  0  0  0
  4  5  1  0  0  0  0
  5  6  2  0  0  0  0
  5 11  1  0  0  0  0
  6  7  1  0  0  0  0
  6  9  1  0  0  0  0
  7  8  1  0  0  0  0
  9 10  1  0  0  0  0
 10 11  2  0  0  0  0
M  END
>  <CHROM.1>
11.69485999,12.22041824,7.19896284,-0.96177362,1.16537193,-2.19976400

>  <Name>
ligand

>  <RI>
0

>  <Rbt.Current_Directory>
/home/itssahil/PROJECTS/Mol_Feturizer/New_Systems/rnas/4FEO

>  <Rbt.Executable>
rbdock ($Id: //depot/dev/client3/rdock/2013.1/src/exe/rbdock.cxx#4 $)

>  <Rbt.Library>
libRbt.so (2013.1, Build901 2013/11/27)

>  <Rbt.Parameter_File>
/export/apps/rDock/src/rDock_2013.1_src/data/scripts/dock_solv.prm

>  <Rbt.Receptor>
prm/pocket_docking_3.prm

>  <SCORE>
-11.2216

>  <SCORE.INTER>
-11.2216

>  <SCORE.INTER.CONST>
1

>  <SCORE.INTER.POLAR>
0

>  <SCORE.INTER.ROT>
0

>  <SCORE.INTER.SOLV>
19.1393

>  <SCORE.INTER.VDW>
-17.4608

>  <SCORE.INTER.norm>
-1.02014

>  <SCORE.INTRA>
0

>  <SCORE.INTRA.DIHEDRAL>
0

>  <SCORE.INTRA.DIHEDRAL.0>
0

>  <SCORE.INTRA.POLAR>
0

>  <SCORE.INTRA.POLAR.0>
0

>  <SCORE.INTRA.REPUL>
0

>  <SCORE.INTRA.REPUL.0>
0

>  <SCORE.INTRA.SOLV>
0

>  <SCORE.INTRA.SOLV.lig_0>
-48.9252

>  <SCORE.INTRA.VDW>
0

>  <SCORE.INTRA.VDW.0>
0

>  <SCORE.INTRA.norm>
0

>  <SCORE.RESTR>
0

>  <SCORE.RESTR.CAVITY>
0

>  <SCORE.RESTR.norm>
0

>  <SCORE.SYSTEM>
0

>  <SCORE.SYSTEM.CONST>
0

>  <SCORE.SYSTEM.DIHEDRAL>
0

>  <SCORE.SYSTEM.SOLV>
0

>  <SCORE.SYSTEM.norm>
0

>  <SCORE.heavy>
11

>  <SCORE.norm>
-1.02014

>  <RMSD>
0.571

$$$$
ligand
 OpenBabel11021811493D
libRbt.so/2013.1/901 2013/11/27
 11 12  0  0  0  0  0  0  0  0999 V2000
   12.2711   11.5128    8.7251 N   0  0  0  0  0  0  0  0  0  0  0  0
   11.8890   12.7856    8.9368 C   0  0  0  0  0  0  0  0  0  0  0  0
   11.9896   13.3223   10.2123 N   0  0  0  0  0  0  0  0  0  0  0  0
   11.4106   13.5489    7.9415 N   0  0  0  0  0  0  0  0  0  0  0  0
   11.2885   13.0719    6.6927 C   0  0  0  0  0  0  0  0  0  0  0  0
   11.6759   11.7418    6.4142 C   0  0  0  0  0  0  0  0  0  0  0  0
   12.1849   10.9583    7.4970 C   0  0  0  0  0  0  0  0  0  0  0  0
   12.5815    9.6585    7.2980 N   0  0  0  0  0  0  0  0  0  0  0  0
   11.4473   11.5245    5.0874 N   0  0  0  0  0  0  0  0  0  0  0  0
   10.9566   12.6037    4.5560 C   0  0  0  0  0  0  0  0  0  0  0  0
   10.8413   13.5902    5.5024 N   0  0  0  0  0  0  0  0  0  0  0  0
  1  7  2  0  0  0  0
  1  2  1  0  0  0  0
  2  3  1  0  0  0  0
  2  4  2  0  0  0  0
  4  5  1  0  0  0  0
  5  6  2  0  0  0  0
  5 11  1  0  0  0  0
  6  7  1  0  0  0  0
  6  9  1  0  0  0  0
  7  8  1  0  0  0  0
  9 10  1  0  0  0  0
 10 11  2  0  0  0  0
M  END
>  <CHROM.1>
11.69108180,12.20929081,7.19363706,-0.99896477,1.18386119,-2.15746082

>  <Name>
ligand

>  <RI>
0

>  <Rbt.Current_Directory>
/home/itssahil/PROJECTS/Mol_Feturizer/New_Systems/rnas/4FEO

>  <Rbt.Executable>
rbdock ($Id: //depot/dev/client3/rdock/2013.1/src/exe/rbdock.cxx#4 $)

>  <Rbt.Library>
libRbt.so (2013.1, Build901 2013/11/27)

>  <Rbt.Parameter_File>
/export/apps/rDock/src/rDock_2013.1_src/data/scripts/dock_solv.prm

>  <Rbt.Receptor>
prm/pocket_docking_5.prm

>  <SCORE>
-11.1471

>  <SCORE.INTER>
-11.1471

>  <SCORE.INTER.CONST>
1

>  <SCORE.INTER.POLAR>
0

>  <SCORE.INTER.ROT>
0

>  <SCORE.INTER.SOLV>
19.25

>  <SCORE.INTER.VDW>
-17.448

>  <SCORE.INTER.norm>
-1.01337

>  <SCORE.INTRA>
0

>  <SCORE.INTRA.DIHEDRAL>
0

>  <SCORE.INTRA.DIHEDRAL.0>
0

>  <SCORE.INTRA.POLAR>
0

>  <SCORE.INTRA.POLAR.0>
0

>  <SCORE.INTRA.REPUL>
0

>  <SCORE.INTRA.REPUL.0>
0

>  <SCORE.INTRA.SOLV>
0

>  <SCORE.INTRA.SOLV.lig_0>
-48.9252

>  <SCORE.INTRA.VDW>
0

>  <SCORE.INTRA.VDW.0>
0

>  <SCORE.INTRA.norm>
0

>  <SCORE.RESTR>
0

>  <SCORE.RESTR.CAVITY>
0

>  <SCORE.RESTR.norm>
0

>  <SCORE.SYSTEM>
0

>  <SCORE.SYSTEM.CONST>
0

>  <SCORE.SYSTEM.DIHEDRAL>
0

>  <SCORE.SYSTEM.SOLV>
0

>  <SCORE.SYSTEM.norm>
0

>  <SCORE.heavy>
11

>  <SCORE.norm>
-1.01337

>  <RMSD>
0.571

$$$$
ligand
 OpenBabel11021811493D
libRbt.so/2013.1/901 2013/11/27
 11 12  0  0  0  0  0  0  0  0999 V2000
   12.2964   11.5458    8.7215 N   0  0  0  0  0  0  0  0  0  0  0  0
   11.9086   12.8170    8.9320 C   0  0  0  0  0  0  0  0  0  0  0  0
   12.0292   13.3631   10.2018 N   0  0  0  0  0  0  0  0  0  0  0  0
   11.4056   13.5699    7.9410 N   0  0  0  0  0  0  0  0  0  0  0  0
   11.2634   13.0837    6.6978 C   0  0  0  0  0  0  0  0  0  0  0  0
   11.6557   11.7547    6.4209 C   0  0  0  0  0  0  0  0  0  0  0  0
   12.1911   10.9824    7.4989 C   0  0  0  0  0  0  0  0  0  0  0  0
   12.5940    9.6844    7.3010 N   0  0  0  0  0  0  0  0  0  0  0  0
   11.4037   11.5267    5.1001 N   0  0  0  0  0  0  0  0  0  0  0  0
   10.8948   12.5986    4.5710 C   0  0  0  0  0  0  0  0  0  0  0  0
   10.7898   13.5906    5.5129 N   0  0  0  0  0  0  0  0  0  0  0  0
  1  7  2  0  0  0  0
  1  2  1  0  0  0  0
  2  3  1  0  0  0  0
  2  4  2  0  0  0  0
  4  5  1  0  0  0  0
  5  6  2  0  0  0  0
  5 11  1  0  0  0  0
  6  7  1  0  0  0  0
  6  9  1  0  0  0  0
  7  8  1  0  0  0  0
  9 10  1  0  0  0  0
 10 11  2  0  0  0  0
M  END
>  <CHROM.1>
11.68208603,12.22753710,7.19676179,-0.96968508,1.16680426,-2.19114557

>  <Name>
ligand

>  <RI>
0

>  <Rbt.Current_Directory>
/home/itssahil/PROJECTS/Mol_Feturizer/New_Systems/rnas/4FEO

>  <Rbt.Executable>
rbdock ($Id: //depot/dev/client3/rdock/2013.1/src/exe/rbdock.cxx#4 $)

>  <Rbt.Library>
libRbt.so (2013.1, Build901 2013/11/27)

>  <Rbt.Parameter_File>
/export/apps/rDock/src/rDock_2013.1_src/data/scripts/dock_solv.prm

>  <Rbt.Receptor>
prm/pocket_docking_5.prm

>  <SCORE>
-11.2193

>  <SCORE.INTER>
-11.2193

>  <SCORE.INTER.CONST>
1

>  <SCORE.INTER.POLAR>
0

>  <SCORE.INTER.ROT>
0

>  <SCORE.INTER.SOLV>
19.1998

>  <SCORE.INTER.VDW>
-17.4795

>  <SCORE.INTER.norm>
-1.01994

>  <SCORE.INTRA>
0

>  <SCORE.INTRA.DIHEDRAL>
0

>  <SCORE.INTRA.DIHEDRAL.0>
0

>  <SCORE.INTRA.POLAR>
0

>  <SCORE.INTRA.POLAR.0>
0

>  <SCORE.INTRA.REPUL>
0

>  <SCORE.INTRA.REPUL.0>
0

>  <SCORE.INTRA.SOLV>
0

>  <SCORE.INTRA.SOLV.lig_0>
-48.9252

>  <SCORE.INTRA.VDW>
0

>  <SCORE.INTRA.VDW.0>
0

>  <SCORE.INTRA.norm>
0

>  <SCORE.RESTR>
0

>  <SCORE.RESTR.CAVITY>
0

>  <SCORE.RESTR.norm>
0

>  <SCORE.SYSTEM>
0

>  <SCORE.SYSTEM.CONST>
0

>  <SCORE.SYSTEM.DIHEDRAL>
0

>  <SCORE.SYSTEM.SOLV>
0

>  <SCORE.SYSTEM.norm>
0

>  <SCORE.heavy>
11

>  <SCORE.norm>
-1.01994

>  <RMSD>
0.571

$$$$
ligand
 OpenBabel11021811493D
libRbt.so/2013.1/901 2013/11/27
 11 12  0  0  0  0  0  0  0  0999 V2000
   12.2985   11.5462    8.7230 N   0  0  0  0  0  0  0  0  0  0  0  0
   11.9088   12.8177    8.9283 C   0  0  0  0  0  0  0  0  0  0  0  0
   12.0223   13.3670   10.1973 N   0  0  0  0  0  0  0  0  0  0  0  0
   11.4107   13.5679    7.9327 N   0  0  0  0  0  0  0  0  0  0  0  0
   11.2755   13.0785    6.6900 C   0  0  0  0  0  0  0  0  0  0  0  0
   11.6701   11.7491    6.4185 C   0  0  0  0  0  0  0  0  0  0  0  0
   12.2002   10.9798    7.5012 C   0  0  0  0  0  0  0  0  0  0  0  0
   12.6048    9.6815    7.3087 N   0  0  0  0  0  0  0  0  0  0  0  0
   11.4253   11.5176    5.0969 N   0  0  0  0  0  0  0  0  0  0  0  0
   10.9186   12.5879    4.5624 C   0  0  0  0  0  0  0  0  0  0  0  0
   10.8080   13.5822    5.5013 N   0  0  0  0  0  0  0  0  0  0  0  0
  1  7  2  0  0  0  0
  1  2  1  0  0  0  0
  2  3  1  0  0  0  0
  2  4  2  0  0  0  0
  4  5  1  0  0  0  0
  5  6  2  0  0  0  0
  5 11  1  0  0  0  0
  6  7  1  0  0  0  0
  6  9  1  0  0  0  0
  7  8  1  0  0  0  0
  9 10  1  0  0  0  0
 10 11  2  0  0  0  0
M  END
>  <CHROM.1>
11.69199776,12.22380879,7.19330293,-0.98173272,1.16942211,-2.18252857

>  <Name>
ligand

>  <RI>
0

>  <Rbt.Current_Directory>
/home/itssahil/PROJECTS/Mol_Feturizer/New_Systems/rnas/4FEO

>  <Rbt.Executable>
rbdock ($Id: //depot/dev/client3/rdock/2013.1/src/exe/rbdock.cxx#4 $)

>  <Rbt.Library>
libRbt.so (2013.1, Build901 2013/11/27)

>  <Rbt.Parameter_File>
/export/apps/rDock/src/rDock_2013.1_src/data/scripts/dock_solv.prm

>  <Rbt.Receptor>
prm/pocket_docking_6.prm

>  <SCORE>
-11.1991

>  <SCORE.INTER>
-11.1991

>  <SCORE.INTER.CONST>
1

>  <SCORE.INTER.POLAR>
0

>  <SCORE.INTER.ROT>
0

>  <SCORE.INTER.SOLV>
19.1817

>  <SCORE.INTER.VDW>
-17.4599

>  <SCORE.INTER.norm>
-1.0181

>  <SCORE.INTRA>
0

>  <SCORE.INTRA.DIHEDRAL>
0

>  <SCORE.INTRA.DIHEDRAL.0>
0

>  <SCORE.INTRA.POLAR>
0

>  <SCORE.INTRA.POLAR.0>
0

>  <SCORE.INTRA.REPUL>
0

>  <SCORE.INTRA.REPUL.0>
0

>  <SCORE.INTRA.SOLV>
0

>  <SCORE.INTRA.SOLV.lig_0>
-48.9252

>  <SCORE.INTRA.VDW>
0

>  <SCORE.INTRA.VDW.0>
0

>  <SCORE.INTRA.norm>
0

>  <SCORE.RESTR>
0

>  <SCORE.RESTR.CAVITY>
0

>  <SCORE.RESTR.norm>
0

>  <SCORE.SYSTEM>
0

>  <SCORE.SYSTEM.CONST>
0

>  <SCORE.SYSTEM.DIHEDRAL>
0

>  <SCORE.SYSTEM.SOLV>
0

>  <SCORE.SYSTEM.norm>
0

>  <SCORE.heavy>
11

>  <SCORE.norm>
-1.0181

>  <RMSD>
0.571

$$$$
ligand
 OpenBabel11021811493D
libRbt.so/2013.1/901 2013/11/27
 11 12  0  0  0  0  0  0  0  0999 V2000
   12.3098   11.5433    8.7257 N   0  0  0  0  0  0  0  0  0  0  0  0
   11.9271   12.8179    8.9250 C   0  0  0  0  0  0  0  0  0  0  0  0
   12.0461   13.3734   10.1909 N   0  0  0  0  0  0  0  0  0  0  0  0
   11.4307   13.5652    7.9265 N   0  0  0  0  0  0  0  0  0  0  0  0
   11.2904   13.0699    6.6867 C   0  0  0  0  0  0  0  0  0  0  0  0
   11.6776   11.7370    6.4215 C   0  0  0  0  0  0  0  0  0  0  0  0
   12.2060   10.9708    7.5073 C   0  0  0  0  0  0  0  0  0  0  0  0
   12.6036    9.6694    7.3209 N   0  0  0  0  0  0  0  0  0  0  0  0
   11.4288   11.4997    5.1017 N   0  0  0  0  0  0  0  0  0  0  0  0
   10.9264   12.5697    4.5625 C   0  0  0  0  0  0  0  0  0  0  0  0
   10.8229   13.5695    5.4963 N   0  0  0  0  0  0  0  0  0  0  0  0
  1  7  2  0  0  0  0
  1  2  1  0  0  0  0
  2  3  1  0  0  0  0
  2  4  2  0  0  0  0
  4  5  1  0  0  0  0
  5  6  2  0  0  0  0
  5 11  1  0  0  0  0
  6  7  1  0  0  0  0
  6  9  1  0  0  0  0
  7  8  1  0  0  0  0
  9 10  1  0  0  0  0
 10 11  2  0  0  0  0
M  END
>  <CHROM.1>
11.70356421,12.21577088,7.19370309,-0.96968606,1.17236001,-2.19899968

>  <Name>
ligand

>  <RI>
0

>  <Rbt.Current_Directory>
/home/itssahil/PROJECTS/Mol_Feturizer/New_Systems/rnas/4FEO

>  <Rbt.Executable>
rbdock ($Id: //depot/dev/client3/rdock/2013.1/src/exe/rbdock.cxx#4 $)

>  <Rbt.Library>
libRbt.so (2013.1, Build901 2013/11/27)

>  <Rbt.Parameter_File>
/export/apps/rDock/src/rDock_2013.1_src/data/scripts/dock_solv.prm

>  <Rbt.Receptor>
prm/blind_docking_100.prm

>  <SCORE>
-11.1939

>  <SCORE.INTER>
-11.1939

>  <SCORE.INTER.CONST>
1

>  <SCORE.INTER.POLAR>
0

>  <SCORE.INTER.ROT>
0

>  <SCORE.INTER.SOLV>
19.1771

>  <SCORE.INTER.VDW>
-17.455

>  <SCORE.INTER.norm>
-1.01763

>  <SCORE.INTRA>
0

>  <SCORE.INTRA.DIHEDRAL>
0

>  <SCORE.INTRA.DIHEDRAL.0>
0

>  <SCORE.INTRA.POLAR>
0

>  <SCORE.INTRA.POLAR.0>
0

>  <SCORE.INTRA.REPUL>
0

>  <SCORE.INTRA.REPUL.0>
0

>  <SCORE.INTRA.SOLV>
0

>  <SCORE.INTRA.SOLV.lig_0>
-48.9252

>  <SCORE.INTRA.VDW>
0

>  <SCORE.INTRA.VDW.0>
0

>  <SCORE.INTRA.norm>
0

>  <SCORE.RESTR>
0

>  <SCORE.RESTR.CAVITY>
0

>  <SCORE.RESTR.norm>
0

>  <SCORE.SYSTEM>
0

>  <SCORE.SYSTEM.CONST>
0

>  <SCORE.SYSTEM.DIHEDRAL>
0

>  <SCORE.SYSTEM.SOLV>
0

>  <SCORE.SYSTEM.norm>
0

>  <SCORE.heavy>
11

>  <SCORE.norm>
-1.01763

>  <RMSD>
0.572

$$$$
ligand
 OpenBabel11021811493D
libRbt.so/2013.1/901 2013/11/27
 11 12  0  0  0  0  0  0  0  0999 V2000
   12.2916   11.5114    8.7261 N   0  0  0  0  0  0  0  0  0  0  0  0
   11.9216   12.7875    8.9389 C   0  0  0  0  0  0  0  0  0  0  0  0
   12.0424   13.3272   10.2114 N   0  0  0  0  0  0  0  0  0  0  0  0
   11.4361   13.5514    7.9476 N   0  0  0  0  0  0  0  0  0  0  0  0
   11.2944   13.0718    6.7018 C   0  0  0  0  0  0  0  0  0  0  0  0
   11.6685   11.7381    6.4224 C   0  0  0  0  0  0  0  0  0  0  0  0
   12.1856   10.9540    7.5009 C   0  0  0  0  0  0  0  0  0  0  0  0
   12.5701    9.6508    7.3007 N   0  0  0  0  0  0  0  0  0  0  0  0
   11.4213   11.5185    5.0993 N   0  0  0  0  0  0  0  0  0  0  0  0
   10.9317   12.5998    4.5709 C   0  0  0  0  0  0  0  0  0  0  0  0
   10.8358   13.5899    5.5158 N   0  0  0  0  0  0  0  0  0  0  0  0
  1  7  2  0  0  0  0
  1  2  1  0  0  0  0
  2  3  1  0  0  0  0
  2  4  2  0  0  0  0
  4  5  1  0  0  0  0
  5  6  2  0  0  0  0
  5 11  1  0  0  0  0
  6  7  1  0  0  0  0
  6  9  1  0  0  0  0
  7  8  1  0  0  0  0
  9 10  1  0  0  0  0
 10 11  2  0  0  0  0
M  END
>  <CHROM.1>
11.69709284,12.20765861,7.20016200,-0.96007530,1.18257740,-2.19640936

>  <Name>
ligand

>  <RI>
0

>  <Rbt.Current_Directory>
/home/itssahil/PROJECTS/Mol_Feturizer/New_Systems/rnas/4FEO

>  <Rbt.Executable>
rbdock ($Id: //depot/dev/client3/rdock/2013.1/src/exe/rbdock.cxx#4 $)

>  <Rbt.Library>
libRbt.so (2013.1, Build901 2013/11/27)

>  <Rbt.Parameter_File>
/export/apps/rDock/src/rDock_2013.1_src/data/scripts/dock_solv.prm

>  <Rbt.Receptor>
prm/pocket_docking_7.prm

>  <SCORE>
-11.1711

>  <SCORE.INTER>
-11.1711

>  <SCORE.INTER.CONST>
1

>  <SCORE.INTER.POLAR>
0

>  <SCORE.INTER.ROT>
0

>  <SCORE.INTER.SOLV>
19.2222

>  <SCORE.INTER.VDW>
-17.4548

>  <SCORE.INTER.norm>
-1.01555

>  <SCORE.INTRA>
0

>  <SCORE.INTRA.DIHEDRAL>
0

>  <SCORE.INTRA.DIHEDRAL.0>
0

>  <SCORE.INTRA.POLAR>
0

>  <SCORE.INTRA.POLAR.0>
0

>  <SCORE.INTRA.REPUL>
0

>  <SCORE.INTRA.REPUL.0>
0

>  <SCORE.INTRA.SOLV>
0

>  <SCORE.INTRA.SOLV.lig_0>
-48.9252

>  <SCORE.INTRA.VDW>
0

>  <SCORE.INTRA.VDW.0>
0

>  <SCORE.INTRA.norm>
0

>  <SCORE.RESTR>
0

>  <SCORE.RESTR.CAVITY>
0

>  <SCORE.RESTR.norm>
0

>  <SCORE.SYSTEM>
0

>  <SCORE.SYSTEM.CONST>
0

>  <SCORE.SYSTEM.DIHEDRAL>
0

>  <SCORE.SYSTEM.SOLV>
0

>  <SCORE.SYSTEM.norm>
0

>  <SCORE.heavy>
11

>  <SCORE.norm>
-1.01555

>  <RMSD>
0.572

$$$$
ligand
 OpenBabel11021811493D
libRbt.so/2013.1/901 2013/11/27
 11 12  0  0  0  0  0  0  0  0999 V2000
   12.3041   11.5431    8.7213 N   0  0  0  0  0  0  0  0  0  0  0  0
   11.9184   12.8148    8.9325 C   0  0  0  0  0  0  0  0  0  0  0  0
   12.0408   13.3604   10.2023 N   0  0  0  0  0  0  0  0  0  0  0  0
   11.4157   13.5687    7.9421 N   0  0  0  0  0  0  0  0  0  0  0  0
   11.2718   13.0831    6.6989 C   0  0  0  0  0  0  0  0  0  0  0  0
   11.6619   11.7536    6.4213 C   0  0  0  0  0  0  0  0  0  0  0  0
   12.1971   10.9802    7.4987 C   0  0  0  0  0  0  0  0  0  0  0  0
   12.5979    9.6816    7.3001 N   0  0  0  0  0  0  0  0  0  0  0  0
   11.4085   11.5263    5.1007 N   0  0  0  0  0  0  0  0  0  0  0  0
   10.9007   12.5990    4.5722 C   0  0  0  0  0  0  0  0  0  0  0  0
   10.7980   13.5909    5.5145 N   0  0  0  0  0  0  0  0  0  0  0  0
  1  7  2  0  0  0  0
  1  2  1  0  0  0  0
  2  3  1  0  0  0  0
  2  4  2  0  0  0  0
  4  5  1  0  0  0  0
  5  6  2  0  0  0  0
  5 11  1  0  0  0  0
  6  7  1  0  0  0  0
  6  9  1  0  0  0  0
  7  8  1  0  0  0  0
  9 10  1  0  0  0  0
 10 11  2  0  0  0  0
M  END
>  <CHROM.1>
11.68962976,12.22614505,7.19728321,-0.96585277,1.16751695,-2.19439666

>  <Name>
ligand

>  <RI>
0

>  <Rbt.Current_Directory>
/home/itssahil/PROJECTS/Mol_Feturizer/New_Systems/rnas/4FEO

>  <Rbt.Executable>
rbdock ($Id: //depot/dev/client3/rdock/2013.1/src/exe/rbdock.cxx#4 $)

>  <Rbt.Library>
libRbt.so (2013.1, Build901 2013/11/27)

>  <Rbt.Parameter_File>
/export/apps/rDock/src/rDock_2013.1_src/data/scripts/dock_solv.prm

>  <Rbt.Receptor>
prm/pocket_docking_8.prm

>  <SCORE>
-11.2217

>  <SCORE.INTER>
-11.2217

>  <SCORE.INTER.CONST>
1

>  <SCORE.INTER.POLAR>
0

>  <SCORE.INTER.ROT>
0

>  <SCORE.INTER.SOLV>
19.1772

>  <SCORE.INTER.VDW>
-17.4736

>  <SCORE.INTER.norm>
-1.02016

>  <SCORE.INTRA>
0

>  <SCORE.INTRA.DIHEDRAL>
0

>  <SCORE.INTRA.DIHEDRAL.0>
0

>  <SCORE.INTRA.POLAR>
0

>  <SCORE.INTRA.POLAR.0>
0

>  <SCORE.INTRA.REPUL>
0

>  <SCORE.INTRA.REPUL.0>
0

>  <SCORE.INTRA.SOLV>
0

>  <SCORE.INTRA.SOLV.lig_0>
-48.9252

>  <SCORE.INTRA.VDW>
0

>  <SCORE.INTRA.VDW.0>
0

>  <SCORE.INTRA.norm>
0

>  <SCORE.RESTR>
0

>  <SCORE.RESTR.CAVITY>
0

>  <SCORE.RESTR.norm>
0

>  <SCORE.SYSTEM>
0

>  <SCORE.SYSTEM.CONST>
0

>  <SCORE.SYSTEM.DIHEDRAL>
0

>  <SCORE.SYSTEM.SOLV>
0

>  <SCORE.SYSTEM.norm>
0

>  <SCORE.heavy>
11

>  <SCORE.norm>
-1.02016

>  <RMSD>
0.572

$$$$
ligand
 OpenBabel11021811493D
libRbt.so/2013.1/901 2013/11/27
 11 12  0  0  0  0  0  0  0  0999 V2000
   12.2774   11.5635    8.7291 N   0  0  0  0  0  0  0  0  0  0  0  0
   11.9066   12.8423    8.9241 C   0  0  0  0  0  0  0  0  0  0  0  0
   12.0263   13.3994   10.1892 N   0  0  0  0  0  0  0  0  0  0  0  0
   11.4214   13.5923    7.9221 N   0  0  0  0  0  0  0  0  0  0  0  0
   11.2809   13.0955    6.6829 C   0  0  0  0  0  0  0  0  0  0  0  0
   11.6558   11.7583    6.4221 C   0  0  0  0  0  0  0  0  0  0  0  0
   12.1725   10.9894    7.5116 C   0  0  0  0  0  0  0  0  0  0  0  0
   12.5579    9.6837    7.3296 N   0  0  0  0  0  0  0  0  0  0  0  0
   11.4097   11.5205    5.1019 N   0  0  0  0  0  0  0  0  0  0  0  0
   10.9200   12.5942    4.5584 C   0  0  0  0  0  0  0  0  0  0  0  0
   10.8229   13.5971    5.4896 N   0  0  0  0  0  0  0  0  0  0  0  0
  1  7  2  0  0  0  0
  1  2  1  0  0  0  0
  2  3  1  0  0  0  0
  2  4  2  0  0  0  0
  4  5  1  0  0  0  0
  5  6  2  0  0  0  0
  5 11  1  0  0  0  0
  6  7  1  0  0  0  0
  6  9  1  0  0  0  0
  7  8  1  0  0  0  0
  9 10  1  0  0  0  0
 10 11  2  0  0  0  0
M  END
>  <CHROM.1>
11.68363916,12.23852232,7.19333473,-0.96238573,1.18260251,-2.20797919

>  <Name>
ligand

>  <RI>
0

>  <Rbt.Current_Directory>
/home/itssahil/PROJECTS/Mol_Feturizer/New_Systems/rnas/4FEO

>  <Rbt.Executable>
rbdock ($Id: //depot/dev/client3/rdock/2013.1/src/exe/rbdock.cxx#4 $)

>  <Rbt.Library>
libRbt.so (2013.1, Build901 2013/11/27)

>  <Rbt.Parameter_File>
/export/apps/rDock/src/rDock_2013.1_src/data/scripts/dock_solv.prm

>  <Rbt.Receptor>
prm/blind_docking_40.prm

>  <SCORE>
-11.1925

>  <SCORE.INTER>
-11.1925

>  <SCORE.INTER.CONST>
1

>  <SCORE.INTER.POLAR>
0

>  <SCORE.INTER.ROT>
0

>  <SCORE.INTER.SOLV>
19.3881

>  <SCORE.INTER.VDW>
-17.5244

>  <SCORE.INTER.norm>
-1.0175

>  <SCORE.INTRA>
0

>  <SCORE.INTRA.DIHEDRAL>
0

>  <SCORE.INTRA.DIHEDRAL.0>
0

>  <SCORE.INTRA.POLAR>
0

>  <SCORE.INTRA.POLAR.0>
0

>  <SCORE.INTRA.REPUL>
0

>  <SCORE.INTRA.REPUL.0>
0

>  <SCORE.INTRA.SOLV>
0

>  <SCORE.INTRA.SOLV.lig_0>
-48.9252

>  <SCORE.INTRA.VDW>
0

>  <SCORE.INTRA.VDW.0>
0

>  <SCORE.INTRA.norm>
0

>  <SCORE.RESTR>
0

>  <SCORE.RESTR.CAVITY>
0

>  <SCORE.RESTR.norm>
0

>  <SCORE.SYSTEM>
0

>  <SCORE.SYSTEM.CONST>
0

>  <SCORE.SYSTEM.DIHEDRAL>
0

>  <SCORE.SYSTEM.SOLV>
0

>  <SCORE.SYSTEM.norm>
0

>  <SCORE.heavy>
11

>  <SCORE.norm>
-1.0175

>  <RMSD>
0.573

$$$$
ligand
 OpenBabel11021811493D
libRbt.so/2013.1/901 2013/11/27
 11 12  0  0  0  0  0  0  0  0999 V2000
   12.2792   11.5371    8.7265 N   0  0  0  0  0  0  0  0  0  0  0  0
   11.9079   12.8143    8.9310 C   0  0  0  0  0  0  0  0  0  0  0  0
   12.0246   13.3611   10.2008 N   0  0  0  0  0  0  0  0  0  0  0  0
   11.4253   13.5723    7.9338 N   0  0  0  0  0  0  0  0  0  0  0  0
   11.2878   13.0856    6.6903 C   0  0  0  0  0  0  0  0  0  0  0  0
   11.6632   11.7505    6.4196 C   0  0  0  0  0  0  0  0  0  0  0  0
   12.1772   10.9728    7.5041 C   0  0  0  0  0  0  0  0  0  0  0  0
   12.5630    9.6686    7.3125 N   0  0  0  0  0  0  0  0  0  0  0  0
   11.4203   11.5234    5.0970 N   0  0  0  0  0  0  0  0  0  0  0  0
   10.9320   12.6014    4.5610 C   0  0  0  0  0  0  0  0  0  0  0  0
   10.8327   13.5968    5.4999 N   0  0  0  0  0  0  0  0  0  0  0  0
  1  7  2  0  0  0  0
  1  2  1  0  0  0  0
  2  3  1  0  0  0  0
  2  4  2  0  0  0  0
  4  5  1  0  0  0  0
  5  6  2  0  0  0  0
  5 11  1  0  0  0  0
  6  7  1  0  0  0  0
  6  9  1  0  0  0  0
  7  8  1  0  0  0  0
  9 10  1  0  0  0  0
 10 11  2  0  0  0  0
M  END
>  <CHROM.1>
11.68920862,12.22449753,7.19479841,-0.96751393,1.18409155,-2.19516232

>  <Name>
ligand

>  <RI>
0

>  <Rbt.Current_Directory>
/home/itssahil/PROJECTS/Mol_Feturizer/New_Systems/rnas/4FEO

>  <Rbt.Executable>
rbdock ($Id: //depot/dev/client3/rdock/2013.1/src/exe/rbdock.cxx#4 $)

>  <Rbt.Library>
libRbt.so (2013.1, Build901 2013/11/27)

>  <Rbt.Parameter_File>
/export/apps/rDock/src/rDock_2013.1_src/data/scripts/dock_solv.prm

>  <Rbt.Receptor>
prm/pocket_docking_6.prm

>  <SCORE>
-11.1676

>  <SCORE.INTER>
-11.1676

>  <SCORE.INTER.CONST>
1

>  <SCORE.INTER.POLAR>
0

>  <SCORE.INTER.ROT>
0

>  <SCORE.INTER.SOLV>
19.3153

>  <SCORE.INTER.VDW>
-17.4835

>  <SCORE.INTER.norm>
-1.01524

>  <SCORE.INTRA>
0

>  <SCORE.INTRA.DIHEDRAL>
0

>  <SCORE.INTRA.DIHEDRAL.0>
0

>  <SCORE.INTRA.POLAR>
0

>  <SCORE.INTRA.POLAR.0>
0

>  <SCORE.INTRA.REPUL>
0

>  <SCORE.INTRA.REPUL.0>
0

>  <SCORE.INTRA.SOLV>
0

>  <SCORE.INTRA.SOLV.lig_0>
-48.9252

>  <SCORE.INTRA.VDW>
0

>  <SCORE.INTRA.VDW.0>
0

>  <SCORE.INTRA.norm>
0

>  <SCORE.RESTR>
0

>  <SCORE.RESTR.CAVITY>
0

>  <SCORE.RESTR.norm>
0

>  <SCORE.SYSTEM>
0

>  <SCORE.SYSTEM.CONST>
0

>  <SCORE.SYSTEM.DIHEDRAL>
0

>  <SCORE.SYSTEM.SOLV>
0

>  <SCORE.SYSTEM.norm>
0

>  <SCORE.heavy>
11

>  <SCORE.norm>
-1.01524

>  <RMSD>
0.573

$$$$
ligand
 OpenBabel11021811493D
libRbt.so/2013.1/901 2013/11/27
 11 12  0  0  0  0  0  0  0  0999 V2000
   12.2942   11.5201    8.7236 N   0  0  0  0  0  0  0  0  0  0  0  0
   11.9207   12.7958    8.9331 C   0  0  0  0  0  0  0  0  0  0  0  0
   12.0401   13.3391   10.2042 N   0  0  0  0  0  0  0  0  0  0  0  0
   11.4333   13.5558    7.9397 N   0  0  0  0  0  0  0  0  0  0  0  0
   11.2931   13.0726    6.6952 C   0  0  0  0  0  0  0  0  0  0  0  0
   11.6707   11.7392    6.4193 C   0  0  0  0  0  0  0  0  0  0  0  0
   12.1898   10.9593    7.4998 C   0  0  0  0  0  0  0  0  0  0  0  0
   12.5778    9.6565    7.3031 N   0  0  0  0  0  0  0  0  0  0  0  0
   11.4242   11.5155    5.0967 N   0  0  0  0  0  0  0  0  0  0  0  0
   10.9319   12.5941    4.5655 C   0  0  0  0  0  0  0  0  0  0  0  0
   10.8332   13.5864    5.5078 N   0  0  0  0  0  0  0  0  0  0  0  0
  1  7  2  0  0  0  0
  1  2  1  0  0  0  0
  2  3  1  0  0  0  0
  2  4  2  0  0  0  0
  4  5  1  0  0  0  0
  5  6  2  0  0  0  0
  5 11  1  0  0  0  0
  6  7  1  0  0  0  0
  6  9  1  0  0  0  0
  7  8  1  0  0  0  0
  9 10  1  0  0  0  0
 10 11  2  0  0  0  0
M  END
>  <CHROM.1>
11.69799067,12.21083852,7.19582464,-0.96437199,1.18047557,-2.19502145

>  <Name>
ligand

>  <RI>
0

>  <Rbt.Current_Directory>
/home/itssahil/PROJECTS/Mol_Feturizer/New_Systems/rnas/4FEO

>  <Rbt.Executable>
rbdock ($Id: //depot/dev/client3/rdock/2013.1/src/exe/rbdock.cxx#4 $)

>  <Rbt.Library>
libRbt.so (2013.1, Build901 2013/11/27)

>  <Rbt.Parameter_File>
/export/apps/rDock/src/rDock_2013.1_src/data/scripts/dock_solv.prm

>  <Rbt.Receptor>
prm/blind_docking_100.prm

>  <SCORE>
-11.1704

>  <SCORE.INTER>
-11.1704

>  <SCORE.INTER.CONST>
1

>  <SCORE.INTER.POLAR>
0

>  <SCORE.INTER.ROT>
0

>  <SCORE.INTER.SOLV>
19.2148

>  <SCORE.INTER.VDW>
-17.4518

>  <SCORE.INTER.norm>
-1.01549

>  <SCORE.INTRA>
0

>  <SCORE.INTRA.DIHEDRAL>
0

>  <SCORE.INTRA.DIHEDRAL.0>
0

>  <SCORE.INTRA.POLAR>
0

>  <SCORE.INTRA.POLAR.0>
0

>  <SCORE.INTRA.REPUL>
0

>  <SCORE.INTRA.REPUL.0>
0

>  <SCORE.INTRA.SOLV>
0

>  <SCORE.INTRA.SOLV.lig_0>
-48.9252

>  <SCORE.INTRA.VDW>
0

>  <SCORE.INTRA.VDW.0>
0

>  <SCORE.INTRA.norm>
0

>  <SCORE.RESTR>
0

>  <SCORE.RESTR.CAVITY>
0

>  <SCORE.RESTR.norm>
0

>  <SCORE.SYSTEM>
0

>  <SCORE.SYSTEM.CONST>
0

>  <SCORE.SYSTEM.DIHEDRAL>
0

>  <SCORE.SYSTEM.SOLV>
0

>  <SCORE.SYSTEM.norm>
0

>  <SCORE.heavy>
11

>  <SCORE.norm>
-1.01549

>  <RMSD>
0.574

$$$$
ligand
 OpenBabel11021811493D
libRbt.so/2013.1/901 2013/11/27
 11 12  0  0  0  0  0  0  0  0999 V2000
   12.2913   11.5530    8.7291 N   0  0  0  0  0  0  0  0  0  0  0  0
   11.9232   12.8327    8.9229 C   0  0  0  0  0  0  0  0  0  0  0  0
   12.0444   13.3909   10.1874 N   0  0  0  0  0  0  0  0  0  0  0  0
   11.4394   13.5827    7.9202 N   0  0  0  0  0  0  0  0  0  0  0  0
   11.2975   13.0851    6.6815 C   0  0  0  0  0  0  0  0  0  0  0  0
   11.6696   11.7468    6.4220 C   0  0  0  0  0  0  0  0  0  0  0  0
   12.1849   10.9778    7.5121 C   0  0  0  0  0  0  0  0  0  0  0  0
   12.5675    9.6712    7.3313 N   0  0  0  0  0  0  0  0  0  0  0  0
   11.4226   11.5082    5.1021 N   0  0  0  0  0  0  0  0  0  0  0  0
   10.9350   12.5823    4.5577 C   0  0  0  0  0  0  0  0  0  0  0  0
   10.8403   13.5864    5.4878 N   0  0  0  0  0  0  0  0  0  0  0  0
  1  7  2  0  0  0  0
  1  2  1  0  0  0  0
  2  3  1  0  0  0  0
  2  4  2  0  0  0  0
  4  5  1  0  0  0  0
  5  6  2  0  0  0  0
  5 11  1  0  0  0  0
  6  7  1  0  0  0  0
  6  9  1  0  0  0  0
  7  8  1  0  0  0  0
  9 10  1  0  0  0  0
 10 11  2  0  0  0  0
M  END
>  <CHROM.1>
11.69859363,12.22771761,7.19273749,-0.95849816,1.18414541,-2.21257647

>  <Name>
ligand

>  <RI>
0

>  <Rbt.Current_Directory>
/home/itssahil/PROJECTS/Mol_Feturizer/New_Systems/rnas/4FEO

>  <Rbt.Executable>
rbdock ($Id: //depot/dev/client3/rdock/2013.1/src/exe/rbdock.cxx#4 $)

>  <Rbt.Library>
libRbt.so (2013.1, Build901 2013/11/27)

>  <Rbt.Parameter_File>
/export/apps/rDock/src/rDock_2013.1_src/data/scripts/dock_solv.prm

>  <Rbt.Receptor>
prm/pocket_docking_4.prm

>  <SCORE>
-11.1878

>  <SCORE.INTER>
-11.1878

>  <SCORE.INTER.CONST>
1

>  <SCORE.INTER.POLAR>
0

>  <SCORE.INTER.ROT>
0

>  <SCORE.INTER.SOLV>
19.3383

>  <SCORE.INTER.VDW>
-17.5046

>  <SCORE.INTER.norm>
-1.01708

>  <SCORE.INTRA>
0

>  <SCORE.INTRA.DIHEDRAL>
0

>  <SCORE.INTRA.DIHEDRAL.0>
0

>  <SCORE.INTRA.POLAR>
0

>  <SCORE.INTRA.POLAR.0>
0

>  <SCORE.INTRA.REPUL>
0

>  <SCORE.INTRA.REPUL.0>
0

>  <SCORE.INTRA.SOLV>
0

>  <SCORE.INTRA.SOLV.lig_0>
-48.9252

>  <SCORE.INTRA.VDW>
0

>  <SCORE.INTRA.VDW.0>
0

>  <SCORE.INTRA.norm>
0

>  <SCORE.RESTR>
0

>  <SCORE.RESTR.CAVITY>
0

>  <SCORE.RESTR.norm>
0

>  <SCORE.SYSTEM>
0

>  <SCORE.SYSTEM.CONST>
0

>  <SCORE.SYSTEM.DIHEDRAL>
0

>  <SCORE.SYSTEM.SOLV>
0

>  <SCORE.SYSTEM.norm>
0

>  <SCORE.heavy>
11

>  <SCORE.norm>
-1.01708

>  <RMSD>
0.574

$$$$
ligand
 OpenBabel11021811493D
libRbt.so/2013.1/901 2013/11/27
 11 12  0  0  0  0  0  0  0  0999 V2000
   12.2913   11.5510    8.7262 N   0  0  0  0  0  0  0  0  0  0  0  0
   11.9192   12.8289    8.9240 C   0  0  0  0  0  0  0  0  0  0  0  0
   12.0404   13.3841   10.1898 N   0  0  0  0  0  0  0  0  0  0  0  0
   11.4314   13.5800    7.9240 N   0  0  0  0  0  0  0  0  0  0  0  0
   11.2895   13.0852    6.6842 C   0  0  0  0  0  0  0  0  0  0  0  0
   11.6656   11.7489    6.4205 C   0  0  0  0  0  0  0  0  0  0  0  0
   12.1851   10.9787    7.5078 C   0  0  0  0  0  0  0  0  0  0  0  0
   12.5718    9.6739    7.3230 N   0  0  0  0  0  0  0  0  0  0  0  0
   11.4176   11.5130    5.1004 N   0  0  0  0  0  0  0  0  0  0  0  0
   10.9256   12.5870    4.5595 C   0  0  0  0  0  0  0  0  0  0  0  0
   10.8288   13.5882    5.4926 N   0  0  0  0  0  0  0  0  0  0  0  0
  1  7  2  0  0  0  0
  1  2  1  0  0  0  0
  2  3  1  0  0  0  0
  2  4  2  0  0  0  0
  4  5  1  0  0  0  0
  5  6  2  0  0  0  0
  5 11  1  0  0  0  0
  6  7  1  0  0  0  0
  6  9  1  0  0  0  0
  7  8  1  0  0  0  0
  9 10  1  0  0  0  0
 10 11  2  0  0  0  0
M  END
>  <CHROM.1>
11.69414094,12.22782982,7.19255923,-0.96078916,1.18057970,-2.20775618

>  <Name>
ligand

>  <RI>
0

>  <Rbt.Current_Directory>
/home/itssahil/PROJECTS/Mol_Feturizer/New_Systems/rnas/4FEO

>  <Rbt.Executable>
rbdock ($Id: //depot/dev/client3/rdock/2013.1/src/exe/rbdock.cxx#4 $)

>  <Rbt.Library>
libRbt.so (2013.1, Build901 2013/11/27)

>  <Rbt.Parameter_File>
/export/apps/rDock/src/rDock_2013.1_src/data/scripts/dock_solv.prm

>  <Rbt.Receptor>
prm/pocket_docking_6.prm

>  <SCORE>
-11.1928

>  <SCORE.INTER>
-11.1928

>  <SCORE.INTER.CONST>
1

>  <SCORE.INTER.POLAR>
0

>  <SCORE.INTER.ROT>
0

>  <SCORE.INTER.SOLV>
19.3087

>  <SCORE.INTER.VDW>
-17.4981

>  <SCORE.INTER.norm>
-1.01753

>  <SCORE.INTRA>
0

>  <SCORE.INTRA.DIHEDRAL>
0

>  <SCORE.INTRA.DIHEDRAL.0>
0

>  <SCORE.INTRA.POLAR>
0

>  <SCORE.INTRA.POLAR.0>
0

>  <SCORE.INTRA.REPUL>
0

>  <SCORE.INTRA.REPUL.0>
0

>  <SCORE.INTRA.SOLV>
0

>  <SCORE.INTRA.SOLV.lig_0>
-48.9252

>  <SCORE.INTRA.VDW>
0

>  <SCORE.INTRA.VDW.0>
0

>  <SCORE.INTRA.norm>
0

>  <SCORE.RESTR>
0

>  <SCORE.RESTR.CAVITY>
0

>  <SCORE.RESTR.norm>
0

>  <SCORE.SYSTEM>
0

>  <SCORE.SYSTEM.CONST>
0

>  <SCORE.SYSTEM.DIHEDRAL>
0

>  <SCORE.SYSTEM.SOLV>
0

>  <SCORE.SYSTEM.norm>
0

>  <SCORE.heavy>
11

>  <SCORE.norm>
-1.01753

>  <RMSD>
0.575

$$$$
ligand
 OpenBabel11021811493D
libRbt.so/2013.1/901 2013/11/27
 11 12  0  0  0  0  0  0  0  0999 V2000
   12.2919   11.5385    8.7176 N   0  0  0  0  0  0  0  0  0  0  0  0
   11.9046   12.8089    8.9336 C   0  0  0  0  0  0  0  0  0  0  0  0
   12.0212   13.3479   10.2068 N   0  0  0  0  0  0  0  0  0  0  0  0
   11.4061   13.5678    7.9449 N   0  0  0  0  0  0  0  0  0  0  0  0
   11.2680   13.0885    6.6986 C   0  0  0  0  0  0  0  0  0  0  0  0
   11.6599   11.7607    6.4158 C   0  0  0  0  0  0  0  0  0  0  0  0
   12.1906   10.9819    7.4915 C   0  0  0  0  0  0  0  0  0  0  0  0
   12.5928    9.6845    7.2880 N   0  0  0  0  0  0  0  0  0  0  0  0
   11.4125   11.5401    5.0929 N   0  0  0  0  0  0  0  0  0  0  0  0
   10.9067   12.6154    4.5678 C   0  0  0  0  0  0  0  0  0  0  0  0
   10.7993   13.6024    5.5147 N   0  0  0  0  0  0  0  0  0  0  0  0
  1  7  2  0  0  0  0
  1  2  1  0  0  0  0
  2  3  1  0  0  0  0
  2  4  2  0  0  0  0
  4  5  1  0  0  0  0
  5  6  2  0  0  0  0
  5 11  1  0  0  0  0
  6  7  1  0  0  0  0
  6  9  1  0  0  0  0
  7  8  1  0  0  0  0
  9 10  1  0  0  0  0
 10 11  2  0  0  0  0
M  END
>  <CHROM.1>
11.68393466,12.22916840,7.19436218,-0.97579730,1.16978344,-2.18003606

>  <Name>
ligand

>  <RI>
0

>  <Rbt.Current_Directory>
/home/itssahil/PROJECTS/Mol_Feturizer/New_Systems/rnas/4FEO

>  <Rbt.Executable>
rbdock ($Id: //depot/dev/client3/rdock/2013.1/src/exe/rbdock.cxx#4 $)

>  <Rbt.Library>
libRbt.so (2013.1, Build901 2013/11/27)

>  <Rbt.Parameter_File>
/export/apps/rDock/src/rDock_2013.1_src/data/scripts/dock_solv.prm

>  <Rbt.Receptor>
prm/pocket_docking_7.prm

>  <SCORE>
-11.2059

>  <SCORE.INTER>
-11.2059

>  <SCORE.INTER.CONST>
1

>  <SCORE.INTER.POLAR>
0

>  <SCORE.INTER.ROT>
0

>  <SCORE.INTER.SOLV>
19.209

>  <SCORE.INTER.VDW>
-17.4736

>  <SCORE.INTER.norm>
-1.01872

>  <SCORE.INTRA>
0

>  <SCORE.INTRA.DIHEDRAL>
0

>  <SCORE.INTRA.DIHEDRAL.0>
0

>  <SCORE.INTRA.POLAR>
0

>  <SCORE.INTRA.POLAR.0>
0

>  <SCORE.INTRA.REPUL>
0

>  <SCORE.INTRA.REPUL.0>
0

>  <SCORE.INTRA.SOLV>
0

>  <SCORE.INTRA.SOLV.lig_0>
-48.9252

>  <SCORE.INTRA.VDW>
0

>  <SCORE.INTRA.VDW.0>
0

>  <SCORE.INTRA.norm>
0

>  <SCORE.RESTR>
0

>  <SCORE.RESTR.CAVITY>
0

>  <SCORE.RESTR.norm>
0

>  <SCORE.SYSTEM>
0

>  <SCORE.SYSTEM.CONST>
0

>  <SCORE.SYSTEM.DIHEDRAL>
0

>  <SCORE.SYSTEM.SOLV>
0

>  <SCORE.SYSTEM.norm>
0

>  <SCORE.heavy>
11

>  <SCORE.norm>
-1.01872

>  <RMSD>
0.575

$$$$
ligand
 OpenBabel11021811493D
libRbt.so/2013.1/901 2013/11/27
 11 12  0  0  0  0  0  0  0  0999 V2000
   12.2944   11.5496    8.7267 N   0  0  0  0  0  0  0  0  0  0  0  0
   11.9283   12.8295    8.9232 C   0  0  0  0  0  0  0  0  0  0  0  0
   12.0532   13.3857   10.1881 N   0  0  0  0  0  0  0  0  0  0  0  0
   11.4429   13.5814    7.9227 N   0  0  0  0  0  0  0  0  0  0  0  0
   11.2974   13.0856    6.6837 C   0  0  0  0  0  0  0  0  0  0  0  0
   11.6672   11.7473    6.4214 C   0  0  0  0  0  0  0  0  0  0  0  0
   12.1843   10.9762    7.5092 C   0  0  0  0  0  0  0  0  0  0  0  0
   12.5649    9.6693    7.3257 N   0  0  0  0  0  0  0  0  0  0  0  0
   11.4167   11.5108    5.1019 N   0  0  0  0  0  0  0  0  0  0  0  0
   10.9291   12.5862    4.5601 C   0  0  0  0  0  0  0  0  0  0  0  0
   10.8378   13.5891    5.4918 N   0  0  0  0  0  0  0  0  0  0  0  0
  1  7  2  0  0  0  0
  1  2  1  0  0  0  0
  2  3  1  0  0  0  0
  2  4  2  0  0  0  0
  4  5  1  0  0  0  0
  5  6  2  0  0  0  0
  5 11  1  0  0  0  0
  6  7  1  0  0  0  0
  6  9  1  0  0  0  0
  7  8  1  0  0  0  0
  9 10  1  0  0  0  0
 10 11  2  0  0  0  0
M  END
>  <CHROM.1>
11.69868013,12.22708643,7.19278703,-0.95143192,1.18361511,-2.21775521

>  <Name>
ligand

>  <RI>
0

>  <Rbt.Current_Directory>
/home/itssahil/PROJECTS/Mol_Feturizer/New_Systems/rnas/4FEO

>  <Rbt.Executable>
rbdock ($Id: //depot/dev/client3/rdock/2013.1/src/exe/rbdock.cxx#4 $)

>  <Rbt.Library>
libRbt.so (2013.1, Build901 2013/11/27)

>  <Rbt.Parameter_File>
/export/apps/rDock/src/rDock_2013.1_src/data/scripts/dock_solv.prm

>  <Rbt.Receptor>
prm/blind_docking_80.prm

>  <SCORE>
-11.1853

>  <SCORE.INTER>
-11.1853

>  <SCORE.INTER.CONST>
1

>  <SCORE.INTER.POLAR>
0

>  <SCORE.INTER.ROT>
0

>  <SCORE.INTER.SOLV>
19.3314

>  <SCORE.INTER.VDW>
-17.5007

>  <SCORE.INTER.norm>
-1.01684

>  <SCORE.INTRA>
0

>  <SCORE.INTRA.DIHEDRAL>
0

>  <SCORE.INTRA.DIHEDRAL.0>
0

>  <SCORE.INTRA.POLAR>
0

>  <SCORE.INTRA.POLAR.0>
0

>  <SCORE.INTRA.REPUL>
0

>  <SCORE.INTRA.REPUL.0>
0

>  <SCORE.INTRA.SOLV>
0

>  <SCORE.INTRA.SOLV.lig_0>
-48.9252

>  <SCORE.INTRA.VDW>
0

>  <SCORE.INTRA.VDW.0>
0

>  <SCORE.INTRA.norm>
0

>  <SCORE.RESTR>
0

>  <SCORE.RESTR.CAVITY>
0

>  <SCORE.RESTR.norm>
0

>  <SCORE.SYSTEM>
0

>  <SCORE.SYSTEM.CONST>
0

>  <SCORE.SYSTEM.DIHEDRAL>
0

>  <SCORE.SYSTEM.SOLV>
0

>  <SCORE.SYSTEM.norm>
0

>  <SCORE.heavy>
11

>  <SCORE.norm>
-1.01684

>  <RMSD>
0.576

$$$$
ligand
 OpenBabel11021811493D
libRbt.so/2013.1/901 2013/11/27
 11 12  0  0  0  0  0  0  0  0999 V2000
   12.3106   11.5385    8.7189 N   0  0  0  0  0  0  0  0  0  0  0  0
   11.9325   12.8120    8.9335 C   0  0  0  0  0  0  0  0  0  0  0  0
   12.0647   13.3556   10.2031 N   0  0  0  0  0  0  0  0  0  0  0  0
   11.4282   13.5694    7.9466 N   0  0  0  0  0  0  0  0  0  0  0  0
   11.2751   13.0857    6.7037 C   0  0  0  0  0  0  0  0  0  0  0  0
   11.6569   11.7546    6.4227 C   0  0  0  0  0  0  0  0  0  0  0  0
   12.1940   10.9774    7.4963 C   0  0  0  0  0  0  0  0  0  0  0  0
   12.5870    9.6770    7.2943 N   0  0  0  0  0  0  0  0  0  0  0  0
   11.3950   11.5299    5.1032 N   0  0  0  0  0  0  0  0  0  0  0  0
   10.8898   12.6057    4.5786 C   0  0  0  0  0  0  0  0  0  0  0  0
   10.7974   13.5972    5.5224 N   0  0  0  0  0  0  0  0  0  0  0  0
  1  7  2  0  0  0  0
  1  2  1  0  0  0  0
  2  3  1  0  0  0  0
  2  4  2  0  0  0  0
  4  5  1  0  0  0  0
  5  6  2  0  0  0  0
  5 11  1  0  0  0  0
  6  7  1  0  0  0  0
  6  9  1  0  0  0  0
  7  8  1  0  0  0  0
  9 10  1  0  0  0  0
 10 11  2  0  0  0  0
M  END
>  <CHROM.1>
11.69121285,12.22618893,7.19894233,-0.94684958,1.16841000,-2.21089540

>  <Name>
ligand

>  <RI>
0

>  <Rbt.Current_Directory>
/home/itssahil/PROJECTS/Mol_Feturizer/New_Systems/rnas/4FEO

>  <Rbt.Executable>
rbdock ($Id: //depot/dev/client3/rdock/2013.1/src/exe/rbdock.cxx#4 $)

>  <Rbt.Library>
libRbt.so (2013.1, Build901 2013/11/27)

>  <Rbt.Parameter_File>
/export/apps/rDock/src/rDock_2013.1_src/data/scripts/dock_solv.prm

>  <Rbt.Receptor>
prm/pocket_docking_5.prm

>  <SCORE>
-11.2075

>  <SCORE.INTER>
-11.2075

>  <SCORE.INTER.CONST>
1

>  <SCORE.INTER.POLAR>
0

>  <SCORE.INTER.ROT>
0

>  <SCORE.INTER.SOLV>
19.187

>  <SCORE.INTER.VDW>
-17.4673

>  <SCORE.INTER.norm>
-1.01886

>  <SCORE.INTRA>
0

>  <SCORE.INTRA.DIHEDRAL>
0

>  <SCORE.INTRA.DIHEDRAL.0>
0

>  <SCORE.INTRA.POLAR>
0

>  <SCORE.INTRA.POLAR.0>
0

>  <SCORE.INTRA.REPUL>
0

>  <SCORE.INTRA.REPUL.0>
0

>  <SCORE.INTRA.SOLV>
0

>  <SCORE.INTRA.SOLV.lig_0>
-48.9252

>  <SCORE.INTRA.VDW>
0

>  <SCORE.INTRA.VDW.0>
0

>  <SCORE.INTRA.norm>
0

>  <SCORE.RESTR>
0

>  <SCORE.RESTR.CAVITY>
0

>  <SCORE.RESTR.norm>
0

>  <SCORE.SYSTEM>
0

>  <SCORE.SYSTEM.CONST>
0

>  <SCORE.SYSTEM.DIHEDRAL>
0

>  <SCORE.SYSTEM.SOLV>
0

>  <SCORE.SYSTEM.norm>
0

>  <SCORE.heavy>
11

>  <SCORE.norm>
-1.01886

>  <RMSD>
0.576

$$$$
ligand
 OpenBabel11021811493D
libRbt.so/2013.1/901 2013/11/27
 11 12  0  0  0  0  0  0  0  0999 V2000
   12.2901   11.5303    8.7158 N   0  0  0  0  0  0  0  0  0  0  0  0
   11.9004   12.7994    8.9356 C   0  0  0  0  0  0  0  0  0  0  0  0
   12.0132   13.3340   10.2109 N   0  0  0  0  0  0  0  0  0  0  0  0
   11.4028   13.5610    7.9485 N   0  0  0  0  0  0  0  0  0  0  0  0
   11.2683   13.0859    6.7001 C   0  0  0  0  0  0  0  0  0  0  0  0
   11.6629   11.7597    6.4135 C   0  0  0  0  0  0  0  0  0  0  0  0
   12.1924   10.9779    7.4876 C   0  0  0  0  0  0  0  0  0  0  0  0
   12.5970    9.6819    7.2803 N   0  0  0  0  0  0  0  0  0  0  0  0
   11.4188   11.5435    5.0893 N   0  0  0  0  0  0  0  0  0  0  0  0
   10.9124   12.6198    4.5668 C   0  0  0  0  0  0  0  0  0  0  0  0
   10.8014   13.6033    5.5170 N   0  0  0  0  0  0  0  0  0  0  0  0
  1  7  2  0  0  0  0
  1  2  1  0  0  0  0
  2  3  1  0  0  0  0
  2  4  2  0  0  0  0
  4  5  1  0  0  0  0
  5  6  2  0  0  0  0
  5 11  1  0  0  0  0
  6  7  1  0  0  0  0
  6  9  1  0  0  0  0
  7  8  1  0  0  0  0
  9 10  1  0  0  0  0
 10 11  2  0  0  0  0
M  END
>  <CHROM.1>
11.68443821,12.22547299,7.19375327,-0.98275184,1.16975865,-2.17008116

>  <Name>
ligand

>  <RI>
0

>  <Rbt.Current_Directory>
/home/itssahil/PROJECTS/Mol_Feturizer/New_Systems/rnas/4FEO

>  <Rbt.Executable>
rbdock ($Id: //depot/dev/client3/rdock/2013.1/src/exe/rbdock.cxx#4 $)

>  <Rbt.Library>
libRbt.so (2013.1, Build901 2013/11/27)

>  <Rbt.Parameter_File>
/export/apps/rDock/src/rDock_2013.1_src/data/scripts/dock_solv.prm

>  <Rbt.Receptor>
prm/pocket_docking_5.prm

>  <SCORE>
-11.2016

>  <SCORE.INTER>
-11.2016

>  <SCORE.INTER.CONST>
1

>  <SCORE.INTER.POLAR>
0

>  <SCORE.INTER.ROT>
0

>  <SCORE.INTER.SOLV>
19.1955

>  <SCORE.INTER.VDW>
-17.4662

>  <SCORE.INTER.norm>
-1.01833

>  <SCORE.INTRA>
0

>  <SCORE.INTRA.DIHEDRAL>
0

>  <SCORE.INTRA.DIHEDRAL.0>
0

>  <SCORE.INTRA.POLAR>
0

>  <SCORE.INTRA.POLAR.0>
0

>  <SCORE.INTRA.REPUL>
0

>  <SCORE.INTRA.REPUL.0>
0

>  <SCORE.INTRA.SOLV>
0

>  <SCORE.INTRA.SOLV.lig_0>
-48.9252

>  <SCORE.INTRA.VDW>
0

>  <SCORE.INTRA.VDW.0>
0

>  <SCORE.INTRA.norm>
0

>  <SCORE.RESTR>
0

>  <SCORE.RESTR.CAVITY>
0

>  <SCORE.RESTR.norm>
0

>  <SCORE.SYSTEM>
0

>  <SCORE.SYSTEM.CONST>
0

>  <SCORE.SYSTEM.DIHEDRAL>
0

>  <SCORE.SYSTEM.SOLV>
0

>  <SCORE.SYSTEM.norm>
0

>  <SCORE.heavy>
11

>  <SCORE.norm>
-1.01833

>  <RMSD>
0.576

$$$$
ligand
 OpenBabel11021811493D
libRbt.so/2013.1/901 2013/11/27
 11 12  0  0  0  0  0  0  0  0999 V2000
   12.2902   11.5474    8.7198 N   0  0  0  0  0  0  0  0  0  0  0  0
   11.9089   12.8211    8.9265 C   0  0  0  0  0  0  0  0  0  0  0  0
   12.0258   13.3682   10.1962 N   0  0  0  0  0  0  0  0  0  0  0  0
   11.4158   13.5757    7.9318 N   0  0  0  0  0  0  0  0  0  0  0  0
   11.2775   13.0886    6.6885 C   0  0  0  0  0  0  0  0  0  0  0  0
   11.6634   11.7569    6.4154 C   0  0  0  0  0  0  0  0  0  0  0  0
   12.1883   10.9829    7.4974 C   0  0  0  0  0  0  0  0  0  0  0  0
   12.5845    9.6822    7.3034 N   0  0  0  0  0  0  0  0  0  0  0  0
   11.4172   11.5286    5.0936 N   0  0  0  0  0  0  0  0  0  0  0  0
   10.9175   12.6027    4.5603 C   0  0  0  0  0  0  0  0  0  0  0  0
   10.8134   13.5966    5.5003 N   0  0  0  0  0  0  0  0  0  0  0  0
  1  7  2  0  0  0  0
  1  2  1  0  0  0  0
  2  3  1  0  0  0  0
  2  4  2  0  0  0  0
  4  5  1  0  0  0  0
  5  6  2  0  0  0  0
  5 11  1  0  0  0  0
  6  7  1  0  0  0  0
  6  9  1  0  0  0  0
  7  8  1  0  0  0  0
  9 10  1  0  0  0  0
 10 11  2  0  0  0  0
M  END
>  <CHROM.1>
11.68834152,12.23063136,7.19082305,-0.97218615,1.17480331,-2.19019217

>  <Name>
ligand

>  <RI>
0

>  <Rbt.Current_Directory>
/home/itssahil/PROJECTS/Mol_Feturizer/New_Systems/rnas/4FEO

>  <Rbt.Executable>
rbdock ($Id: //depot/dev/client3/rdock/2013.1/src/exe/rbdock.cxx#4 $)

>  <Rbt.Library>
libRbt.so (2013.1, Build901 2013/11/27)

>  <Rbt.Parameter_File>
/export/apps/rDock/src/rDock_2013.1_src/data/scripts/dock_solv.prm

>  <Rbt.Receptor>
prm/pocket_docking_8.prm

>  <SCORE>
-11.1937

>  <SCORE.INTER>
-11.1937

>  <SCORE.INTER.CONST>
1

>  <SCORE.INTER.POLAR>
0

>  <SCORE.INTER.ROT>
0

>  <SCORE.INTER.SOLV>
19.253

>  <SCORE.INTER.VDW>
-17.4801

>  <SCORE.INTER.norm>
-1.01761

>  <SCORE.INTRA>
0

>  <SCORE.INTRA.DIHEDRAL>
0

>  <SCORE.INTRA.DIHEDRAL.0>
0

>  <SCORE.INTRA.POLAR>
0

>  <SCORE.INTRA.POLAR.0>
0

>  <SCORE.INTRA.REPUL>
0

>  <SCORE.INTRA.REPUL.0>
0

>  <SCORE.INTRA.SOLV>
0

>  <SCORE.INTRA.SOLV.lig_0>
-48.9252

>  <SCORE.INTRA.VDW>
0

>  <SCORE.INTRA.VDW.0>
0

>  <SCORE.INTRA.norm>
0

>  <SCORE.RESTR>
0

>  <SCORE.RESTR.CAVITY>
0

>  <SCORE.RESTR.norm>
0

>  <SCORE.SYSTEM>
0

>  <SCORE.SYSTEM.CONST>
0

>  <SCORE.SYSTEM.DIHEDRAL>
0

>  <SCORE.SYSTEM.SOLV>
0

>  <SCORE.SYSTEM.norm>
0

>  <SCORE.heavy>
11

>  <SCORE.norm>
-1.01761

>  <RMSD>
0.576

$$$$
ligand
 OpenBabel11021811493D
libRbt.so/2013.1/901 2013/11/27
 11 12  0  0  0  0  0  0  0  0999 V2000
   12.3174   11.5352    8.7174 N   0  0  0  0  0  0  0  0  0  0  0  0
   11.9374   12.8085    8.9295 C   0  0  0  0  0  0  0  0  0  0  0  0
   12.0705   13.3555   10.1976 N   0  0  0  0  0  0  0  0  0  0  0  0
   11.4304   13.5627    7.9415 N   0  0  0  0  0  0  0  0  0  0  0  0
   11.2764   13.0758    6.7000 C   0  0  0  0  0  0  0  0  0  0  0  0
   11.6600   11.7446    6.4216 C   0  0  0  0  0  0  0  0  0  0  0  0
   12.2000   10.9709    7.4964 C   0  0  0  0  0  0  0  0  0  0  0  0
   12.5950    9.6707    7.2969 N   0  0  0  0  0  0  0  0  0  0  0  0
   11.3967   11.5162    5.1031 N   0  0  0  0  0  0  0  0  0  0  0  0
   10.8889   12.5900    4.5766 C   0  0  0  0  0  0  0  0  0  0  0  0
   10.7961   13.5836    5.5181 N   0  0  0  0  0  0  0  0  0  0  0  0
  1  7  2  0  0  0  0
  1  2  1  0  0  0  0
  2  3  1  0  0  0  0
  2  4  2  0  0  0  0
  4  5  1  0  0  0  0
  5  6  2  0  0  0  0
  5 11  1  0  0  0  0
  6  7  1  0  0  0  0
  6  9  1  0  0  0  0
  7  8  1  0  0  0  0
  9 10  1  0  0  0  0
 10 11  2  0  0  0  0
M  END
>  <CHROM.1>
11.69467851,12.21813514,7.19669188,-0.94656228,1.16617630,-2.21357474

>  <Name>
ligand

>  <RI>
0

>  <Rbt.Current_Directory>
/home/itssahil/PROJECTS/Mol_Feturizer/New_Systems/rnas/4FEO

>  <Rbt.Executable>
rbdock ($Id: //depot/dev/client3/rdock/2013.1/src/exe/rbdock.cxx#4 $)

>  <Rbt.Library>
libRbt.so (2013.1, Build901 2013/11/27)

>  <Rbt.Parameter_File>
/export/apps/rDock/src/rDock_2013.1_src/data/scripts/dock_solv.prm

>  <Rbt.Receptor>
prm/pocket_docking_4.prm

>  <SCORE>
-11.2088

>  <SCORE.INTER>
-11.2088

>  <SCORE.INTER.CONST>
1

>  <SCORE.INTER.POLAR>
0

>  <SCORE.INTER.ROT>
0

>  <SCORE.INTER.SOLV>
19.154

>  <SCORE.INTER.VDW>
-17.4572

>  <SCORE.INTER.norm>
-1.01898

>  <SCORE.INTRA>
0

>  <SCORE.INTRA.DIHEDRAL>
0

>  <SCORE.INTRA.DIHEDRAL.0>
0

>  <SCORE.INTRA.POLAR>
0

>  <SCORE.INTRA.POLAR.0>
0

>  <SCORE.INTRA.REPUL>
0

>  <SCORE.INTRA.REPUL.0>
0

>  <SCORE.INTRA.SOLV>
0

>  <SCORE.INTRA.SOLV.lig_0>
-48.9252

>  <SCORE.INTRA.VDW>
0

>  <SCORE.INTRA.VDW.0>
0

>  <SCORE.INTRA.norm>
0

>  <SCORE.RESTR>
0

>  <SCORE.RESTR.CAVITY>
0

>  <SCORE.RESTR.norm>
0

>  <SCORE.SYSTEM>
0

>  <SCORE.SYSTEM.CONST>
0

>  <SCORE.SYSTEM.DIHEDRAL>
0

>  <SCORE.SYSTEM.SOLV>
0

>  <SCORE.SYSTEM.norm>
0

>  <SCORE.heavy>
11

>  <SCORE.norm>
-1.01898

>  <RMSD>
0.577

$$$$
ligand
 OpenBabel11021811493D
libRbt.so/2013.1/901 2013/11/27
 11 12  0  0  0  0  0  0  0  0999 V2000
   12.2920   11.5492    8.7178 N   0  0  0  0  0  0  0  0  0  0  0  0
   11.9097   12.8231    8.9217 C   0  0  0  0  0  0  0  0  0  0  0  0
   12.0185   13.3705   10.1920 N   0  0  0  0  0  0  0  0  0  0  0  0
   11.4235   13.5776    7.9235 N   0  0  0  0  0  0  0  0  0  0  0  0
   11.2932   13.0902    6.6795 C   0  0  0  0  0  0  0  0  0  0  0  0
   11.6804   11.7584    6.4094 C   0  0  0  0  0  0  0  0  0  0  0  0
   12.1980   10.9845    7.4949 C   0  0  0  0  0  0  0  0  0  0  0  0
   12.5949    9.6836    7.3039 N   0  0  0  0  0  0  0  0  0  0  0  0
   11.4429   11.5298    5.0860 N   0  0  0  0  0  0  0  0  0  0  0  0
   10.9471   12.6040    4.5491 C   0  0  0  0  0  0  0  0  0  0  0  0
   10.8371   13.5981    5.4881 N   0  0  0  0  0  0  0  0  0  0  0  0
  1  7  2  0  0  0  0
  1  2  1  0  0  0  0
  2  3  1  0  0  0  0
  2  4  2  0  0  0  0
  4  5  1  0  0  0  0
  5  6  2  0  0  0  0
  5 11  1  0  0  0  0
  6  7  1  0  0  0  0
  6  9  1  0  0  0  0
  7  8  1  0  0  0  0
  9 10  1  0  0  0  0
 10 11  2  0  0  0  0
M  END
>  <CHROM.1>
11.70044708,12.23226003,7.18475968,-0.98572583,1.17889272,-2.17794659

>  <Name>
ligand

>  <RI>
0

>  <Rbt.Current_Directory>
/home/itssahil/PROJECTS/Mol_Feturizer/New_Systems/rnas/4FEO

>  <Rbt.Executable>
rbdock ($Id: //depot/dev/client3/rdock/2013.1/src/exe/rbdock.cxx#4 $)

>  <Rbt.Library>
libRbt.so (2013.1, Build901 2013/11/27)

>  <Rbt.Parameter_File>
/export/apps/rDock/src/rDock_2013.1_src/data/scripts/dock_solv.prm

>  <Rbt.Receptor>
prm/pocket_docking_3.prm

>  <SCORE>
-11.2183

>  <SCORE.INTER>
-11.2183

>  <SCORE.INTER.CONST>
1

>  <SCORE.INTER.POLAR>
0

>  <SCORE.INTER.ROT>
0

>  <SCORE.INTER.SOLV>
19.2403

>  <SCORE.INTER.VDW>
-17.4923

>  <SCORE.INTER.norm>
-1.01984

>  <SCORE.INTRA>
0

>  <SCORE.INTRA.DIHEDRAL>
0

>  <SCORE.INTRA.DIHEDRAL.0>
0

>  <SCORE.INTRA.POLAR>
0

>  <SCORE.INTRA.POLAR.0>
0

>  <SCORE.INTRA.REPUL>
0

>  <SCORE.INTRA.REPUL.0>
0

>  <SCORE.INTRA.SOLV>
0

>  <SCORE.INTRA.SOLV.lig_0>
-48.9252

>  <SCORE.INTRA.VDW>
0

>  <SCORE.INTRA.VDW.0>
0

>  <SCORE.INTRA.norm>
0

>  <SCORE.RESTR>
0

>  <SCORE.RESTR.CAVITY>
0

>  <SCORE.RESTR.norm>
0

>  <SCORE.SYSTEM>
0

>  <SCORE.SYSTEM.CONST>
0

>  <SCORE.SYSTEM.DIHEDRAL>
0

>  <SCORE.SYSTEM.SOLV>
0

>  <SCORE.SYSTEM.norm>
0

>  <SCORE.heavy>
11

>  <SCORE.norm>
-1.01984

>  <RMSD>
0.581

$$$$
ligand
 OpenBabel11021811493D
libRbt.so/2013.1/901 2013/11/27
 11 12  0  0  0  0  0  0  0  0999 V2000
   12.3141   11.5360    8.7099 N   0  0  0  0  0  0  0  0  0  0  0  0
   11.9229   12.8045    8.9307 C   0  0  0  0  0  0  0  0  0  0  0  0
   12.0424   13.3407   10.2048 N   0  0  0  0  0  0  0  0  0  0  0  0
   11.4176   13.5639    7.9458 N   0  0  0  0  0  0  0  0  0  0  0  0
   11.2765   13.0872    6.6989 C   0  0  0  0  0  0  0  0  0  0  0  0
   11.6723   11.7616    6.4112 C   0  0  0  0  0  0  0  0  0  0  0  0
   12.2101   10.9821    7.4829 C   0  0  0  0  0  0  0  0  0  0  0  0
   12.6163    9.6868    7.2745 N   0  0  0  0  0  0  0  0  0  0  0  0
   11.4205   11.5434    5.0887 N   0  0  0  0  0  0  0  0  0  0  0  0
   10.9085   12.6181    4.5683 C   0  0  0  0  0  0  0  0  0  0  0  0
   10.8012   13.6023    5.5181 N   0  0  0  0  0  0  0  0  0  0  0  0
  1  7  2  0  0  0  0
  1  2  1  0  0  0  0
  2  3  1  0  0  0  0
  2  4  2  0  0  0  0
  4  5  1  0  0  0  0
  5  6  2  0  0  0  0
  5 11  1  0  0  0  0
  6  7  1  0  0  0  0
  6  9  1  0  0  0  0
  7  8  1  0  0  0  0
  9 10  1  0  0  0  0
 10 11  2  0  0  0  0
M  END
>  <CHROM.1>
11.69757733,12.22823159,7.19082240,-0.97309683,1.16444549,-2.18002066

>  <Name>
ligand

>  <RI>
0

>  <Rbt.Current_Directory>
/home/itssahil/PROJECTS/Mol_Feturizer/New_Systems/rnas/4FEO

>  <Rbt.Executable>
rbdock ($Id: //depot/dev/client3/rdock/2013.1/src/exe/rbdock.cxx#4 $)

>  <Rbt.Library>
libRbt.so (2013.1, Build901 2013/11/27)

>  <Rbt.Parameter_File>
/export/apps/rDock/src/rDock_2013.1_src/data/scripts/dock_solv.prm

>  <Rbt.Receptor>
prm/blind_docking_60.prm

>  <SCORE>
-11.1945

>  <SCORE.INTER>
-11.1945

>  <SCORE.INTER.CONST>
1

>  <SCORE.INTER.POLAR>
0

>  <SCORE.INTER.ROT>
0

>  <SCORE.INTER.SOLV>
19.1189

>  <SCORE.INTER.VDW>
-17.436

>  <SCORE.INTER.norm>
-1.01768

>  <SCORE.INTRA>
0

>  <SCORE.INTRA.DIHEDRAL>
0

>  <SCORE.INTRA.DIHEDRAL.0>
0

>  <SCORE.INTRA.POLAR>
0

>  <SCORE.INTRA.POLAR.0>
0

>  <SCORE.INTRA.REPUL>
0

>  <SCORE.INTRA.REPUL.0>
0

>  <SCORE.INTRA.SOLV>
0

>  <SCORE.INTRA.SOLV.lig_0>
-48.9252

>  <SCORE.INTRA.VDW>
0

>  <SCORE.INTRA.VDW.0>
0

>  <SCORE.INTRA.norm>
0

>  <SCORE.RESTR>
0

>  <SCORE.RESTR.CAVITY>
0

>  <SCORE.RESTR.norm>
0

>  <SCORE.SYSTEM>
0

>  <SCORE.SYSTEM.CONST>
0

>  <SCORE.SYSTEM.DIHEDRAL>
0

>  <SCORE.SYSTEM.SOLV>
0

>  <SCORE.SYSTEM.norm>
0

>  <SCORE.heavy>
11

>  <SCORE.norm>
-1.01768

>  <RMSD>
0.582

$$$$
ligand
 OpenBabel11021811493D
libRbt.so/2013.1/901 2013/11/27
 11 12  0  0  0  0  0  0  0  0999 V2000
   12.3019   11.5567    8.7150 N   0  0  0  0  0  0  0  0  0  0  0  0
   11.9215   12.8304    8.9240 C   0  0  0  0  0  0  0  0  0  0  0  0
   12.0448   13.3771   10.1932 N   0  0  0  0  0  0  0  0  0  0  0  0
   11.4233   13.5851    7.9319 N   0  0  0  0  0  0  0  0  0  0  0  0
   11.2789   13.0983    6.6892 C   0  0  0  0  0  0  0  0  0  0  0  0
   11.6635   11.7668    6.4139 C   0  0  0  0  0  0  0  0  0  0  0  0
   12.1939   10.9925    7.4930 C   0  0  0  0  0  0  0  0  0  0  0  0
   12.5892    9.6919    7.2967 N   0  0  0  0  0  0  0  0  0  0  0  0
   11.4107   11.5388    5.0933 N   0  0  0  0  0  0  0  0  0  0  0  0
   10.9082   12.6130    4.5627 C   0  0  0  0  0  0  0  0  0  0  0  0
   10.8087   13.6066    5.5035 N   0  0  0  0  0  0  0  0  0  0  0  0
  1  7  2  0  0  0  0
  1  2  1  0  0  0  0
  2  3  1  0  0  0  0
  2  4  2  0  0  0  0
  4  5  1  0  0  0  0
  5  6  2  0  0  0  0
  5 11  1  0  0  0  0
  6  7  1  0  0  0  0
  6  9  1  0  0  0  0
  7  8  1  0  0  0  0
  9 10  1  0  0  0  0
 10 11  2  0  0  0  0
M  END
>  <CHROM.1>
11.69229364,12.24027000,7.18928299,-0.96180177,1.17179963,-2.19950841

>  <Name>
ligand

>  <RI>
0

>  <Rbt.Current_Directory>
/home/itssahil/PROJECTS/Mol_Feturizer/New_Systems/rnas/4FEO

>  <Rbt.Executable>
rbdock ($Id: //depot/dev/client3/rdock/2013.1/src/exe/rbdock.cxx#4 $)

>  <Rbt.Library>
libRbt.so (2013.1, Build901 2013/11/27)

>  <Rbt.Parameter_File>
/export/apps/rDock/src/rDock_2013.1_src/data/scripts/dock_solv.prm

>  <Rbt.Receptor>
prm/pocket_docking_3.prm

>  <SCORE>
-11.2013

>  <SCORE.INTER>
-11.2013

>  <SCORE.INTER.CONST>
1

>  <SCORE.INTER.POLAR>
0

>  <SCORE.INTER.ROT>
0

>  <SCORE.INTER.SOLV>
19.243

>  <SCORE.INTER.VDW>
-17.4819

>  <SCORE.INTER.norm>
-1.0183

>  <SCORE.INTRA>
0

>  <SCORE.INTRA.DIHEDRAL>
0

>  <SCORE.INTRA.DIHEDRAL.0>
0

>  <SCORE.INTRA.POLAR>
0

>  <SCORE.INTRA.POLAR.0>
0

>  <SCORE.INTRA.REPUL>
0

>  <SCORE.INTRA.REPUL.0>
0

>  <SCORE.INTRA.SOLV>
0

>  <SCORE.INTRA.SOLV.lig_0>
-48.9252

>  <SCORE.INTRA.VDW>
0

>  <SCORE.INTRA.VDW.0>
0

>  <SCORE.INTRA.norm>
0

>  <SCORE.RESTR>
0

>  <SCORE.RESTR.CAVITY>
0

>  <SCORE.RESTR.norm>
0

>  <SCORE.SYSTEM>
0

>  <SCORE.SYSTEM.CONST>
0

>  <SCORE.SYSTEM.DIHEDRAL>
0

>  <SCORE.SYSTEM.SOLV>
0

>  <SCORE.SYSTEM.norm>
0

>  <SCORE.heavy>
11

>  <SCORE.norm>
-1.0183

>  <RMSD>
0.582

$$$$
ligand
 OpenBabel11021811493D
libRbt.so/2013.1/901 2013/11/27
 11 12  0  0  0  0  0  0  0  0999 V2000
   12.3100   11.5356    8.7108 N   0  0  0  0  0  0  0  0  0  0  0  0
   11.9256   12.8064    8.9296 C   0  0  0  0  0  0  0  0  0  0  0  0
   12.0500   13.3447   10.2024 N   0  0  0  0  0  0  0  0  0  0  0  0
   11.4223   13.5663    7.9441 N   0  0  0  0  0  0  0  0  0  0  0  0
   11.2765   13.0878    6.6984 C   0  0  0  0  0  0  0  0  0  0  0  0
   11.6651   11.7596    6.4128 C   0  0  0  0  0  0  0  0  0  0  0  0
   12.2010   10.9797    7.4851 C   0  0  0  0  0  0  0  0  0  0  0  0
   12.6004    9.6819    7.2787 N   0  0  0  0  0  0  0  0  0  0  0  0
   11.4099   11.5399    5.0912 N   0  0  0  0  0  0  0  0  0  0  0  0
   10.9023   12.6160    4.5695 C   0  0  0  0  0  0  0  0  0  0  0  0
   10.8016   13.6027    5.5174 N   0  0  0  0  0  0  0  0  0  0  0  0
  1  7  2  0  0  0  0
  1  2  1  0  0  0  0
  2  3  1  0  0  0  0
  2  4  2  0  0  0  0
  4  5  1  0  0  0  0
  5  6  2  0  0  0  0
  5 11  1  0  0  0  0
  6  7  1  0  0  0  0
  6  9  1  0  0  0  0
  7  8  1  0  0  0  0
  9 10  1  0  0  0  0
 10 11  2  0  0  0  0
M  END
>  <CHROM.1>
11.69417193,12.22770340,7.19139590,-0.96202238,1.16748126,-2.19229143

>  <Name>
ligand

>  <RI>
0

>  <Rbt.Current_Directory>
/home/itssahil/PROJECTS/Mol_Feturizer/New_Systems/rnas/4FEO

>  <Rbt.Executable>
rbdock ($Id: //depot/dev/client3/rdock/2013.1/src/exe/rbdock.cxx#4 $)

>  <Rbt.Library>
libRbt.so (2013.1, Build901 2013/11/27)

>  <Rbt.Parameter_File>
/export/apps/rDock/src/rDock_2013.1_src/data/scripts/dock_solv.prm

>  <Rbt.Receptor>
prm/pocket_docking_3.prm

>  <SCORE>
-11.2315

>  <SCORE.INTER>
-11.2315

>  <SCORE.INTER.CONST>
1

>  <SCORE.INTER.POLAR>
0

>  <SCORE.INTER.ROT>
0

>  <SCORE.INTER.SOLV>
19.1619

>  <SCORE.INTER.VDW>
-17.475

>  <SCORE.INTER.norm>
-1.02105

>  <SCORE.INTRA>
0

>  <SCORE.INTRA.DIHEDRAL>
0

>  <SCORE.INTRA.DIHEDRAL.0>
0

>  <SCORE.INTRA.POLAR>
0

>  <SCORE.INTRA.POLAR.0>
0

>  <SCORE.INTRA.REPUL>
0

>  <SCORE.INTRA.REPUL.0>
0

>  <SCORE.INTRA.SOLV>
0

>  <SCORE.INTRA.SOLV.lig_0>
-48.9252

>  <SCORE.INTRA.VDW>
0

>  <SCORE.INTRA.VDW.0>
0

>  <SCORE.INTRA.norm>
0

>  <SCORE.RESTR>
0

>  <SCORE.RESTR.CAVITY>
0

>  <SCORE.RESTR.norm>
0

>  <SCORE.SYSTEM>
0

>  <SCORE.SYSTEM.CONST>
0

>  <SCORE.SYSTEM.DIHEDRAL>
0

>  <SCORE.SYSTEM.SOLV>
0

>  <SCORE.SYSTEM.norm>
0

>  <SCORE.heavy>
11

>  <SCORE.norm>
-1.02105

>  <RMSD>
0.582

$$$$
ligand
 OpenBabel11021811493D
libRbt.so/2013.1/901 2013/11/27
 11 12  0  0  0  0  0  0  0  0999 V2000
   12.2970   11.5563    8.7218 N   0  0  0  0  0  0  0  0  0  0  0  0
   11.9369   12.8378    8.9188 C   0  0  0  0  0  0  0  0  0  0  0  0
   12.0693   13.3945   10.1827 N   0  0  0  0  0  0  0  0  0  0  0  0
   11.4503   13.5908    7.9197 N   0  0  0  0  0  0  0  0  0  0  0  0
   11.2977   13.0946    6.6817 C   0  0  0  0  0  0  0  0  0  0  0  0
   11.6611   11.7546    6.4190 C   0  0  0  0  0  0  0  0  0  0  0  0
   12.1796   10.9823    7.5053 C   0  0  0  0  0  0  0  0  0  0  0  0
   12.5542    9.6738    7.3213 N   0  0  0  0  0  0  0  0  0  0  0  0
   11.4042   11.5180    5.1007 N   0  0  0  0  0  0  0  0  0  0  0  0
   10.9186   12.5950    4.5600 C   0  0  0  0  0  0  0  0  0  0  0  0
   10.8352   13.5990    5.4913 N   0  0  0  0  0  0  0  0  0  0  0  0
  1  7  2  0  0  0  0
  1  2  1  0  0  0  0
  2  3  1  0  0  0  0
  2  4  2  0  0  0  0
  4  5  1  0  0  0  0
  5  6  2  0  0  0  0
  5 11  1  0  0  0  0
  6  7  1  0  0  0  0
  6  9  1  0  0  0  0
  7  8  1  0  0  0  0
  9 10  1  0  0  0  0
 10 11  2  0  0  0  0
M  END
>  <CHROM.1>
11.69768164,12.23491234,7.18981620,-0.93624374,1.18424735,-2.23263583

>  <Name>
ligand

>  <RI>
0

>  <Rbt.Current_Directory>
/home/itssahil/PROJECTS/Mol_Feturizer/New_Systems/rnas/4FEO

>  <Rbt.Executable>
rbdock ($Id: //depot/dev/client3/rdock/2013.1/src/exe/rbdock.cxx#4 $)

>  <Rbt.Library>
libRbt.so (2013.1, Build901 2013/11/27)

>  <Rbt.Parameter_File>
/export/apps/rDock/src/rDock_2013.1_src/data/scripts/dock_solv.prm

>  <Rbt.Receptor>
prm/pocket_docking_7.prm

>  <SCORE>
-11.2048

>  <SCORE.INTER>
-11.2048

>  <SCORE.INTER.CONST>
1

>  <SCORE.INTER.POLAR>
0

>  <SCORE.INTER.ROT>
0

>  <SCORE.INTER.SOLV>
19.3703

>  <SCORE.INTER.VDW>
-17.5266

>  <SCORE.INTER.norm>
-1.01862

>  <SCORE.INTRA>
0

>  <SCORE.INTRA.DIHEDRAL>
0

>  <SCORE.INTRA.DIHEDRAL.0>
0

>  <SCORE.INTRA.POLAR>
0

>  <SCORE.INTRA.POLAR.0>
0

>  <SCORE.INTRA.REPUL>
0

>  <SCORE.INTRA.REPUL.0>
0

>  <SCORE.INTRA.SOLV>
0

>  <SCORE.INTRA.SOLV.lig_0>
-48.9252

>  <SCORE.INTRA.VDW>
0

>  <SCORE.INTRA.VDW.0>
0

>  <SCORE.INTRA.norm>
0

>  <SCORE.RESTR>
0

>  <SCORE.RESTR.CAVITY>
0

>  <SCORE.RESTR.norm>
0

>  <SCORE.SYSTEM>
0

>  <SCORE.SYSTEM.CONST>
0

>  <SCORE.SYSTEM.DIHEDRAL>
0

>  <SCORE.SYSTEM.SOLV>
0

>  <SCORE.SYSTEM.norm>
0

>  <SCORE.heavy>
11

>  <SCORE.norm>
-1.01862

>  <RMSD>
0.582

$$$$
ligand
 OpenBabel11021811493D
libRbt.so/2013.1/901 2013/11/27
 11 12  0  0  0  0  0  0  0  0999 V2000
   12.2279   11.5986    8.7197 N   0  0  0  0  0  0  0  0  0  0  0  0
   11.8410   12.8746    8.9010 C   0  0  0  0  0  0  0  0  0  0  0  0
   11.9316   13.4393   10.1650 N   0  0  0  0  0  0  0  0  0  0  0  0
   11.3673   13.6146    7.8861 N   0  0  0  0  0  0  0  0  0  0  0  0
   11.2548   13.1101    6.6471 C   0  0  0  0  0  0  0  0  0  0  0  0
   11.6476   11.7754    6.4004 C   0  0  0  0  0  0  0  0  0  0  0  0
   12.1514   11.0172    7.5034 C   0  0  0  0  0  0  0  0  0  0  0  0
   12.5529    9.7145    7.3356 N   0  0  0  0  0  0  0  0  0  0  0  0
   11.4285   11.5284    5.0772 N   0  0  0  0  0  0  0  0  0  0  0  0
   10.9385   12.5943    4.5190 C   0  0  0  0  0  0  0  0  0  0  0  0
   10.8142   13.6010    5.4429 N   0  0  0  0  0  0  0  0  0  0  0  0
  1  7  2  0  0  0  0
  1  2  1  0  0  0  0
  2  3  1  0  0  0  0
  2  4  2  0  0  0  0
  4  5  1  0  0  0  0
  5  6  2  0  0  0  0
  5 11  1  0  0  0  0
  6  7  1  0  0  0  0
  6  9  1  0  0  0  0
  7  8  1  0  0  0  0
  9 10  1  0  0  0  0
 10 11  2  0  0  0  0
M  END
>  <CHROM.1>
11.65632473,12.25978186,7.16953053,-1.01781657,1.18527504,-2.16185915

>  <Name>
ligand

>  <RI>
0

>  <Rbt.Current_Directory>
/home/itssahil/PROJECTS/Mol_Feturizer/New_Systems/rnas/4FEO

>  <Rbt.Executable>
rbdock ($Id: //depot/dev/client3/rdock/2013.1/src/exe/rbdock.cxx#4 $)

>  <Rbt.Library>
libRbt.so (2013.1, Build901 2013/11/27)

>  <Rbt.Parameter_File>
/export/apps/rDock/src/rDock_2013.1_src/data/scripts/dock_solv.prm

>  <Rbt.Receptor>
prm/blind_docking_100.prm

>  <SCORE>
-11.1405

>  <SCORE.INTER>
-11.1405

>  <SCORE.INTER.CONST>
1

>  <SCORE.INTER.POLAR>
0

>  <SCORE.INTER.ROT>
0

>  <SCORE.INTER.SOLV>
19.5439

>  <SCORE.INTER.VDW>
-17.5417

>  <SCORE.INTER.norm>
-1.01278

>  <SCORE.INTRA>
0

>  <SCORE.INTRA.DIHEDRAL>
0

>  <SCORE.INTRA.DIHEDRAL.0>
0

>  <SCORE.INTRA.POLAR>
0

>  <SCORE.INTRA.POLAR.0>
0

>  <SCORE.INTRA.REPUL>
0

>  <SCORE.INTRA.REPUL.0>
0

>  <SCORE.INTRA.SOLV>
0

>  <SCORE.INTRA.SOLV.lig_0>
-48.9252

>  <SCORE.INTRA.VDW>
0

>  <SCORE.INTRA.VDW.0>
0

>  <SCORE.INTRA.norm>
0

>  <SCORE.RESTR>
0

>  <SCORE.RESTR.CAVITY>
0

>  <SCORE.RESTR.norm>
0

>  <SCORE.SYSTEM>
0

>  <SCORE.SYSTEM.CONST>
0

>  <SCORE.SYSTEM.DIHEDRAL>
0

>  <SCORE.SYSTEM.SOLV>
0

>  <SCORE.SYSTEM.norm>
0

>  <SCORE.heavy>
11

>  <SCORE.norm>
-1.01278

>  <RMSD>
0.583

$$$$
ligand
 OpenBabel11021811493D
libRbt.so/2013.1/901 2013/11/27
 11 12  0  0  0  0  0  0  0  0999 V2000
   12.2971   11.5489    8.7124 N   0  0  0  0  0  0  0  0  0  0  0  0
   11.9160   12.8224    8.9213 C   0  0  0  0  0  0  0  0  0  0  0  0
   12.0354   13.3680   10.1914 N   0  0  0  0  0  0  0  0  0  0  0  0
   11.4209   13.5779    7.9284 N   0  0  0  0  0  0  0  0  0  0  0  0
   11.2803   13.0922    6.6848 C   0  0  0  0  0  0  0  0  0  0  0  0
   11.6658   11.7610    6.4095 C   0  0  0  0  0  0  0  0  0  0  0  0
   12.1929   10.9858    7.4896 C   0  0  0  0  0  0  0  0  0  0  0  0
   12.5889    9.6854    7.2934 N   0  0  0  0  0  0  0  0  0  0  0  0
   11.4171   11.5341    5.0880 N   0  0  0  0  0  0  0  0  0  0  0  0
   10.9162   12.6087    4.5568 C   0  0  0  0  0  0  0  0  0  0  0  0
   10.8138   13.6016    5.4981 N   0  0  0  0  0  0  0  0  0  0  0  0
  1  7  2  0  0  0  0
  1  2  1  0  0  0  0
  2  3  1  0  0  0  0
  2  4  2  0  0  0  0
  4  5  1  0  0  0  0
  5  6  2  0  0  0  0
  5 11  1  0  0  0  0
  6  7  1  0  0  0  0
  6  9  1  0  0  0  0
  7  8  1  0  0  0  0
  9 10  1  0  0  0  0
 10 11  2  0  0  0  0
M  END
>  <CHROM.1>
11.69219703,12.23377662,7.18540459,-0.96831461,1.17356886,-2.19263830

>  <Name>
ligand

>  <RI>
0

>  <Rbt.Current_Directory>
/home/itssahil/PROJECTS/Mol_Feturizer/New_Systems/rnas/4FEO

>  <Rbt.Executable>
rbdock ($Id: //depot/dev/client3/rdock/2013.1/src/exe/rbdock.cxx#4 $)

>  <Rbt.Library>
libRbt.so (2013.1, Build901 2013/11/27)

>  <Rbt.Parameter_File>
/export/apps/rDock/src/rDock_2013.1_src/data/scripts/dock_solv.prm

>  <Rbt.Receptor>
prm/pocket_docking_3.prm

>  <SCORE>
-11.246

>  <SCORE.INTER>
-11.246

>  <SCORE.INTER.CONST>
1

>  <SCORE.INTER.POLAR>
0

>  <SCORE.INTER.ROT>
0

>  <SCORE.INTER.SOLV>
19.2397

>  <SCORE.INTER.VDW>
-17.5106

>  <SCORE.INTER.norm>
-1.02236

>  <SCORE.INTRA>
0

>  <SCORE.INTRA.DIHEDRAL>
0

>  <SCORE.INTRA.DIHEDRAL.0>
0

>  <SCORE.INTRA.POLAR>
0

>  <SCORE.INTRA.POLAR.0>
0

>  <SCORE.INTRA.REPUL>
0

>  <SCORE.INTRA.REPUL.0>
0

>  <SCORE.INTRA.SOLV>
0

>  <SCORE.INTRA.SOLV.lig_0>
-48.9252

>  <SCORE.INTRA.VDW>
0

>  <SCORE.INTRA.VDW.0>
0

>  <SCORE.INTRA.norm>
0

>  <SCORE.RESTR>
0

>  <SCORE.RESTR.CAVITY>
0

>  <SCORE.RESTR.norm>
0

>  <SCORE.SYSTEM>
0

>  <SCORE.SYSTEM.CONST>
0

>  <SCORE.SYSTEM.DIHEDRAL>
0

>  <SCORE.SYSTEM.SOLV>
0

>  <SCORE.SYSTEM.norm>
0

>  <SCORE.heavy>
11

>  <SCORE.norm>
-1.02236

>  <RMSD>
0.583

$$$$
ligand
 OpenBabel11021811493D
libRbt.so/2013.1/901 2013/11/27
 11 12  0  0  0  0  0  0  0  0999 V2000
   12.2983   11.5455    8.7108 N   0  0  0  0  0  0  0  0  0  0  0  0
   11.9071   12.8161    8.9188 C   0  0  0  0  0  0  0  0  0  0  0  0
   12.0160   13.3615   10.1899 N   0  0  0  0  0  0  0  0  0  0  0  0
   11.4118   13.5690    7.9239 N   0  0  0  0  0  0  0  0  0  0  0  0
   11.2811   13.0834    6.6792 C   0  0  0  0  0  0  0  0  0  0  0  0
   11.6774   11.7551    6.4049 C   0  0  0  0  0  0  0  0  0  0  0  0
   12.2044   10.9828    7.4870 C   0  0  0  0  0  0  0  0  0  0  0  0
   12.6105    9.6853    7.2918 N   0  0  0  0  0  0  0  0  0  0  0  0
   11.4371   11.5276    5.0818 N   0  0  0  0  0  0  0  0  0  0  0  0
   10.9315   12.5991    4.5489 C   0  0  0  0  0  0  0  0  0  0  0  0
   10.8171   13.5904    5.4905 N   0  0  0  0  0  0  0  0  0  0  0  0
  1  7  2  0  0  0  0
  1  2  1  0  0  0  0
  2  3  1  0  0  0  0
  2  4  2  0  0  0  0
  4  5  1  0  0  0  0
  5  6  2  0  0  0  0
  5 11  1  0  0  0  0
  6  7  1  0  0  0  0
  6  9  1  0  0  0  0
  7  8  1  0  0  0  0
  9 10  1  0  0  0  0
 10 11  2  0  0  0  0
M  END
>  <CHROM.1>
11.69642989,12.22741577,7.18125133,-0.98969530,1.17076763,-2.17209871

>  <Name>
ligand

>  <RI>
0

>  <Rbt.Current_Directory>
/home/itssahil/PROJECTS/Mol_Feturizer/New_Systems/rnas/4FEO

>  <Rbt.Executable>
rbdock ($Id: //depot/dev/client3/rdock/2013.1/src/exe/rbdock.cxx#4 $)

>  <Rbt.Library>
libRbt.so (2013.1, Build901 2013/11/27)

>  <Rbt.Parameter_File>
/export/apps/rDock/src/rDock_2013.1_src/data/scripts/dock_solv.prm

>  <Rbt.Receptor>
prm/pocket_docking_4.prm

>  <SCORE>
-11.2117

>  <SCORE.INTER>
-11.2117

>  <SCORE.INTER.CONST>
1

>  <SCORE.INTER.POLAR>
0

>  <SCORE.INTER.ROT>
0

>  <SCORE.INTER.SOLV>
19.1853

>  <SCORE.INTER.VDW>
-17.4696

>  <SCORE.INTER.norm>
-1.01924

>  <SCORE.INTRA>
0

>  <SCORE.INTRA.DIHEDRAL>
0

>  <SCORE.INTRA.DIHEDRAL.0>
0

>  <SCORE.INTRA.POLAR>
0

>  <SCORE.INTRA.POLAR.0>
0

>  <SCORE.INTRA.REPUL>
0

>  <SCORE.INTRA.REPUL.0>
0

>  <SCORE.INTRA.SOLV>
0

>  <SCORE.INTRA.SOLV.lig_0>
-48.9252

>  <SCORE.INTRA.VDW>
0

>  <SCORE.INTRA.VDW.0>
0

>  <SCORE.INTRA.norm>
0

>  <SCORE.RESTR>
0

>  <SCORE.RESTR.CAVITY>
0

>  <SCORE.RESTR.norm>
0

>  <SCORE.SYSTEM>
0

>  <SCORE.SYSTEM.CONST>
0

>  <SCORE.SYSTEM.DIHEDRAL>
0

>  <SCORE.SYSTEM.SOLV>
0

>  <SCORE.SYSTEM.norm>
0

>  <SCORE.heavy>
11

>  <SCORE.norm>
-1.01924

>  <RMSD>
0.583

$$$$
ligand
 OpenBabel11021811493D
libRbt.so/2013.1/901 2013/11/27
 11 12  0  0  0  0  0  0  0  0999 V2000
   12.2931   11.5481    8.7125 N   0  0  0  0  0  0  0  0  0  0  0  0
   11.9101   12.8213    8.9196 C   0  0  0  0  0  0  0  0  0  0  0  0
   12.0244   13.3675   10.1899 N   0  0  0  0  0  0  0  0  0  0  0  0
   11.4177   13.5761    7.9247 N   0  0  0  0  0  0  0  0  0  0  0  0
   11.2820   13.0899    6.6808 C   0  0  0  0  0  0  0  0  0  0  0  0
   11.6697   11.7589    6.4073 C   0  0  0  0  0  0  0  0  0  0  0  0
   12.1938   10.9845    7.4895 C   0  0  0  0  0  0  0  0  0  0  0  0
   12.5916    9.6844    7.2951 N   0  0  0  0  0  0  0  0  0  0  0  0
   11.4259   11.5313    5.0850 N   0  0  0  0  0  0  0  0  0  0  0  0
   10.9260   12.6053    4.5516 C   0  0  0  0  0  0  0  0  0  0  0  0
   10.8192   13.5984    5.4923 N   0  0  0  0  0  0  0  0  0  0  0  0
  1  7  2  0  0  0  0
  1  2  1  0  0  0  0
  2  3  1  0  0  0  0
  2  4  2  0  0  0  0
  4  5  1  0  0  0  0
  5  6  2  0  0  0  0
  5 11  1  0  0  0  0
  6  7  1  0  0  0  0
  6  9  1  0  0  0  0
  7  8  1  0  0  0  0
  9 10  1  0  0  0  0
 10 11  2  0  0  0  0
M  END
>  <CHROM.1>
11.69294559,12.23194507,7.18312972,-0.97719357,1.17486164,-2.18477677

>  <Name>
ligand

>  <RI>
0

>  <Rbt.Current_Directory>
/home/itssahil/PROJECTS/Mol_Feturizer/New_Systems/rnas/4FEO

>  <Rbt.Executable>
rbdock ($Id: //depot/dev/client3/rdock/2013.1/src/exe/rbdock.cxx#4 $)

>  <Rbt.Library>
libRbt.so (2013.1, Build901 2013/11/27)

>  <Rbt.Parameter_File>
/export/apps/rDock/src/rDock_2013.1_src/data/scripts/dock_solv.prm

>  <Rbt.Receptor>
prm/pocket_docking_4.prm

>  <SCORE>
-11.2516

>  <SCORE.INTER>
-11.2516

>  <SCORE.INTER.CONST>
1

>  <SCORE.INTER.POLAR>
0

>  <SCORE.INTER.ROT>
0

>  <SCORE.INTER.SOLV>
19.2392

>  <SCORE.INTER.VDW>
-17.5141

>  <SCORE.INTER.norm>
-1.02287

>  <SCORE.INTRA>
0

>  <SCORE.INTRA.DIHEDRAL>
0

>  <SCORE.INTRA.DIHEDRAL.0>
0

>  <SCORE.INTRA.POLAR>
0

>  <SCORE.INTRA.POLAR.0>
0

>  <SCORE.INTRA.REPUL>
0

>  <SCORE.INTRA.REPUL.0>
0

>  <SCORE.INTRA.SOLV>
0

>  <SCORE.INTRA.SOLV.lig_0>
-48.9252

>  <SCORE.INTRA.VDW>
0

>  <SCORE.INTRA.VDW.0>
0

>  <SCORE.INTRA.norm>
0

>  <SCORE.RESTR>
0

>  <SCORE.RESTR.CAVITY>
0

>  <SCORE.RESTR.norm>
0

>  <SCORE.SYSTEM>
0

>  <SCORE.SYSTEM.CONST>
0

>  <SCORE.SYSTEM.DIHEDRAL>
0

>  <SCORE.SYSTEM.SOLV>
0

>  <SCORE.SYSTEM.norm>
0

>  <SCORE.heavy>
11

>  <SCORE.norm>
-1.02287

>  <RMSD>
0.583

$$$$
ligand
 OpenBabel11021811493D
libRbt.so/2013.1/901 2013/11/27
 11 12  0  0  0  0  0  0  0  0999 V2000
   12.2917   11.5464    8.7128 N   0  0  0  0  0  0  0  0  0  0  0  0
   11.9100   12.8201    8.9195 C   0  0  0  0  0  0  0  0  0  0  0  0
   12.0240   13.3663   10.1899 N   0  0  0  0  0  0  0  0  0  0  0  0
   11.4195   13.5755    7.9241 N   0  0  0  0  0  0  0  0  0  0  0  0
   11.2842   13.0893    6.6802 C   0  0  0  0  0  0  0  0  0  0  0  0
   11.6706   11.7578    6.4071 C   0  0  0  0  0  0  0  0  0  0  0  0
   12.1927   10.9829    7.4898 C   0  0  0  0  0  0  0  0  0  0  0  0
   12.5891    9.6823    7.2958 N   0  0  0  0  0  0  0  0  0  0  0  0
   11.4276   11.5304    5.0846 N   0  0  0  0  0  0  0  0  0  0  0  0
   10.9294   12.6050    4.5507 C   0  0  0  0  0  0  0  0  0  0  0  0
   10.8231   13.5983    5.4912 N   0  0  0  0  0  0  0  0  0  0  0  0
  1  7  2  0  0  0  0
  1  2  1  0  0  0  0
  2  3  1  0  0  0  0
  2  4  2  0  0  0  0
  4  5  1  0  0  0  0
  5  6  2  0  0  0  0
  5 11  1  0  0  0  0
  6  7  1  0  0  0  0
  6  9  1  0  0  0  0
  7  8  1  0  0  0  0
  9 10  1  0  0  0  0
 10 11  2  0  0  0  0
M  END
>  <CHROM.1>
11.69368546,12.23091593,7.18289877,-0.97716070,1.17636859,-2.18487988

>  <Name>
ligand

>  <RI>
0

>  <Rbt.Current_Directory>
/home/itssahil/PROJECTS/Mol_Feturizer/New_Systems/rnas/4FEO

>  <Rbt.Executable>
rbdock ($Id: //depot/dev/client3/rdock/2013.1/src/exe/rbdock.cxx#4 $)

>  <Rbt.Library>
libRbt.so (2013.1, Build901 2013/11/27)

>  <Rbt.Parameter_File>
/export/apps/rDock/src/rDock_2013.1_src/data/scripts/dock_solv.prm

>  <Rbt.Receptor>
prm/pocket_docking_5.prm

>  <SCORE>
-11.253

>  <SCORE.INTER>
-11.253

>  <SCORE.INTER.CONST>
1

>  <SCORE.INTER.POLAR>
0

>  <SCORE.INTER.ROT>
0

>  <SCORE.INTER.SOLV>
19.2461

>  <SCORE.INTER.VDW>
-17.5173

>  <SCORE.INTER.norm>
-1.023

>  <SCORE.INTRA>
0

>  <SCORE.INTRA.DIHEDRAL>
0

>  <SCORE.INTRA.DIHEDRAL.0>
0

>  <SCORE.INTRA.POLAR>
0

>  <SCORE.INTRA.POLAR.0>
0

>  <SCORE.INTRA.REPUL>
0

>  <SCORE.INTRA.REPUL.0>
0

>  <SCORE.INTRA.SOLV>
0

>  <SCORE.INTRA.SOLV.lig_0>
-48.9252

>  <SCORE.INTRA.VDW>
0

>  <SCORE.INTRA.VDW.0>
0

>  <SCORE.INTRA.norm>
0

>  <SCORE.RESTR>
0

>  <SCORE.RESTR.CAVITY>
0

>  <SCORE.RESTR.norm>
0

>  <SCORE.SYSTEM>
0

>  <SCORE.SYSTEM.CONST>
0

>  <SCORE.SYSTEM.DIHEDRAL>
0

>  <SCORE.SYSTEM.SOLV>
0

>  <SCORE.SYSTEM.norm>
0

>  <SCORE.heavy>
11

>  <SCORE.norm>
-1.023

>  <RMSD>
0.584

$$$$
ligand
 OpenBabel11021811493D
libRbt.so/2013.1/901 2013/11/27
 11 12  0  0  0  0  0  0  0  0999 V2000
   12.2937   11.5426    8.7116 N   0  0  0  0  0  0  0  0  0  0  0  0
   11.9152   12.8170    8.9200 C   0  0  0  0  0  0  0  0  0  0  0  0
   12.0328   13.3619   10.1906 N   0  0  0  0  0  0  0  0  0  0  0  0
   11.4243   13.5741    7.9261 N   0  0  0  0  0  0  0  0  0  0  0  0
   11.2855   13.0892    6.6821 C   0  0  0  0  0  0  0  0  0  0  0  0
   11.6684   11.7570    6.4073 C   0  0  0  0  0  0  0  0  0  0  0  0
   12.1910   10.9802    7.4884 C   0  0  0  0  0  0  0  0  0  0  0  0
   12.5842    9.6789    7.2927 N   0  0  0  0  0  0  0  0  0  0  0  0
   11.4223   11.5312    5.0851 N   0  0  0  0  0  0  0  0  0  0  0  0
   10.9254   12.6073    4.5530 C   0  0  0  0  0  0  0  0  0  0  0  0
   10.8232   13.6000    5.4944 N   0  0  0  0  0  0  0  0  0  0  0  0
  1  7  2  0  0  0  0
  1  2  1  0  0  0  0
  2  3  1  0  0  0  0
  2  4  2  0  0  0  0
  4  5  1  0  0  0  0
  5  6  2  0  0  0  0
  5 11  1  0  0  0  0
  6  7  1  0  0  0  0
  6  9  1  0  0  0  0
  7  8  1  0  0  0  0
  9 10  1  0  0  0  0
 10 11  2  0  0  0  0
M  END
>  <CHROM.1>
11.69410634,12.22951924,7.18337869,-0.96965010,1.17700343,-2.19107787

>  <Name>
ligand

>  <RI>
0

>  <Rbt.Current_Directory>
/home/itssahil/PROJECTS/Mol_Feturizer/New_Systems/rnas/4FEO

>  <Rbt.Executable>
rbdock ($Id: //depot/dev/client3/rdock/2013.1/src/exe/rbdock.cxx#4 $)

>  <Rbt.Library>
libRbt.so (2013.1, Build901 2013/11/27)

>  <Rbt.Parameter_File>
/export/apps/rDock/src/rDock_2013.1_src/data/scripts/dock_solv.prm

>  <Rbt.Receptor>
prm/pocket_docking_7.prm

>  <SCORE>
-11.2507

>  <SCORE.INTER>
-11.2507

>  <SCORE.INTER.CONST>
1

>  <SCORE.INTER.POLAR>
0

>  <SCORE.INTER.ROT>
0

>  <SCORE.INTER.SOLV>
19.2489

>  <SCORE.INTER.VDW>
-17.5168

>  <SCORE.INTER.norm>
-1.02279

>  <SCORE.INTRA>
0

>  <SCORE.INTRA.DIHEDRAL>
0

>  <SCORE.INTRA.DIHEDRAL.0>
0

>  <SCORE.INTRA.POLAR>
0

>  <SCORE.INTRA.POLAR.0>
0

>  <SCORE.INTRA.REPUL>
0

>  <SCORE.INTRA.REPUL.0>
0

>  <SCORE.INTRA.SOLV>
0

>  <SCORE.INTRA.SOLV.lig_0>
-48.9252

>  <SCORE.INTRA.VDW>
0

>  <SCORE.INTRA.VDW.0>
0

>  <SCORE.INTRA.norm>
0

>  <SCORE.RESTR>
0

>  <SCORE.RESTR.CAVITY>
0

>  <SCORE.RESTR.norm>
0

>  <SCORE.SYSTEM>
0

>  <SCORE.SYSTEM.CONST>
0

>  <SCORE.SYSTEM.DIHEDRAL>
0

>  <SCORE.SYSTEM.SOLV>
0

>  <SCORE.SYSTEM.norm>
0

>  <SCORE.heavy>
11

>  <SCORE.norm>
-1.02279

>  <RMSD>
0.585

$$$$
ligand
 OpenBabel11021811493D
libRbt.so/2013.1/901 2013/11/27
 11 12  0  0  0  0  0  0  0  0999 V2000
   12.2894   11.5438    8.7118 N   0  0  0  0  0  0  0  0  0  0  0  0
   11.9072   12.8172    8.9191 C   0  0  0  0  0  0  0  0  0  0  0  0
   12.0180   13.3619   10.1903 N   0  0  0  0  0  0  0  0  0  0  0  0
   11.4190   13.5736    7.9233 N   0  0  0  0  0  0  0  0  0  0  0  0
   11.2868   13.0889    6.6785 C   0  0  0  0  0  0  0  0  0  0  0  0
   11.6738   11.7577    6.4049 C   0  0  0  0  0  0  0  0  0  0  0  0
   12.1934   10.9816    7.4879 C   0  0  0  0  0  0  0  0  0  0  0  0
   12.5903    9.6812    7.2935 N   0  0  0  0  0  0  0  0  0  0  0  0
   11.4340   11.5318    5.0815 N   0  0  0  0  0  0  0  0  0  0  0  0
   10.9371   12.6070    4.5477 C   0  0  0  0  0  0  0  0  0  0  0  0
   10.8285   13.5992    5.4890 N   0  0  0  0  0  0  0  0  0  0  0  0
  1  7  2  0  0  0  0
  1  2  1  0  0  0  0
  2  3  1  0  0  0  0
  2  4  2  0  0  0  0
  4  5  1  0  0  0  0
  5  6  2  0  0  0  0
  5 11  1  0  0  0  0
  6  7  1  0  0  0  0
  6  9  1  0  0  0  0
  7  8  1  0  0  0  0
  9 10  1  0  0  0  0
 10 11  2  0  0  0  0
M  END
>  <CHROM.1>
11.69505769,12.22994699,7.18124530,-0.98236838,1.17771117,-2.17893976

>  <Name>
ligand

>  <RI>
0

>  <Rbt.Current_Directory>
/home/itssahil/PROJECTS/Mol_Feturizer/New_Systems/rnas/4FEO

>  <Rbt.Executable>
rbdock ($Id: //depot/dev/client3/rdock/2013.1/src/exe/rbdock.cxx#4 $)

>  <Rbt.Library>
libRbt.so (2013.1, Build901 2013/11/27)

>  <Rbt.Parameter_File>
/export/apps/rDock/src/rDock_2013.1_src/data/scripts/dock_solv.prm

>  <Rbt.Receptor>
prm/pocket_docking_8.prm

>  <SCORE>
-11.2524

>  <SCORE.INTER>
-11.2524

>  <SCORE.INTER.CONST>
1

>  <SCORE.INTER.POLAR>
0

>  <SCORE.INTER.ROT>
0

>  <SCORE.INTER.SOLV>
19.2455

>  <SCORE.INTER.VDW>
-17.5168

>  <SCORE.INTER.norm>
-1.02294

>  <SCORE.INTRA>
0

>  <SCORE.INTRA.DIHEDRAL>
0

>  <SCORE.INTRA.DIHEDRAL.0>
0

>  <SCORE.INTRA.POLAR>
0

>  <SCORE.INTRA.POLAR.0>
0

>  <SCORE.INTRA.REPUL>
0

>  <SCORE.INTRA.REPUL.0>
0

>  <SCORE.INTRA.SOLV>
0

>  <SCORE.INTRA.SOLV.lig_0>
-48.9252

>  <SCORE.INTRA.VDW>
0

>  <SCORE.INTRA.VDW.0>
0

>  <SCORE.INTRA.norm>
0

>  <SCORE.RESTR>
0

>  <SCORE.RESTR.CAVITY>
0

>  <SCORE.RESTR.norm>
0

>  <SCORE.SYSTEM>
0

>  <SCORE.SYSTEM.CONST>
0

>  <SCORE.SYSTEM.DIHEDRAL>
0

>  <SCORE.SYSTEM.SOLV>
0

>  <SCORE.SYSTEM.norm>
0

>  <SCORE.heavy>
11

>  <SCORE.norm>
-1.02294

>  <RMSD>
0.585

$$$$
ligand
 OpenBabel11021811493D
libRbt.so/2013.1/901 2013/11/27
 11 12  0  0  0  0  0  0  0  0999 V2000
   12.2965   11.5501    8.7098 N   0  0  0  0  0  0  0  0  0  0  0  0
   11.9129   12.8235    8.9148 C   0  0  0  0  0  0  0  0  0  0  0  0
   12.0257   13.3713   10.1846 N   0  0  0  0  0  0  0  0  0  0  0  0
   11.4214   13.5768    7.9184 N   0  0  0  0  0  0  0  0  0  0  0  0
   11.2872   13.0890    6.6750 C   0  0  0  0  0  0  0  0  0  0  0  0
   11.6756   11.7577    6.4037 C   0  0  0  0  0  0  0  0  0  0  0  0
   12.1987   10.9850    7.4874 C   0  0  0  0  0  0  0  0  0  0  0  0
   12.5971    9.6847    7.2951 N   0  0  0  0  0  0  0  0  0  0  0  0
   11.4333   11.5284    5.0813 N   0  0  0  0  0  0  0  0  0  0  0  0
   10.9336   12.6016    4.5461 C   0  0  0  0  0  0  0  0  0  0  0  0
   10.8255   13.5958    5.4853 N   0  0  0  0  0  0  0  0  0  0  0  0
  1  7  2  0  0  0  0
  1  2  1  0  0  0  0
  2  3  1  0  0  0  0
  2  4  2  0  0  0  0
  4  5  1  0  0  0  0
  5  6  2  0  0  0  0
  5 11  1  0  0  0  0
  6  7  1  0  0  0  0
  6  9  1  0  0  0  0
  7  8  1  0  0  0  0
  9 10  1  0  0  0  0
 10 11  2  0  0  0  0
M  END
>  <CHROM.1>
11.69781030,12.23181500,7.17886505,-0.97993312,1.17525605,-2.18353820

>  <Name>
ligand

>  <RI>
0

>  <Rbt.Current_Directory>
/home/itssahil/PROJECTS/Mol_Feturizer/New_Systems/rnas/4FEO

>  <Rbt.Executable>
rbdock ($Id: //depot/dev/client3/rdock/2013.1/src/exe/rbdock.cxx#4 $)

>  <Rbt.Library>
libRbt.so (2013.1, Build901 2013/11/27)

>  <Rbt.Parameter_File>
/export/apps/rDock/src/rDock_2013.1_src/data/scripts/dock_solv.prm

>  <Rbt.Receptor>
prm/pocket_docking_4.prm

>  <SCORE>
-11.2476

>  <SCORE.INTER>
-11.2476

>  <SCORE.INTER.CONST>
1

>  <SCORE.INTER.POLAR>
0

>  <SCORE.INTER.ROT>
0

>  <SCORE.INTER.SOLV>
19.2329

>  <SCORE.INTER.VDW>
-17.5094

>  <SCORE.INTER.norm>
-1.02251

>  <SCORE.INTRA>
0

>  <SCORE.INTRA.DIHEDRAL>
0

>  <SCORE.INTRA.DIHEDRAL.0>
0

>  <SCORE.INTRA.POLAR>
0

>  <SCORE.INTRA.POLAR.0>
0

>  <SCORE.INTRA.REPUL>
0

>  <SCORE.INTRA.REPUL.0>
0

>  <SCORE.INTRA.SOLV>
0

>  <SCORE.INTRA.SOLV.lig_0>
-48.9252

>  <SCORE.INTRA.VDW>
0

>  <SCORE.INTRA.VDW.0>
0

>  <SCORE.INTRA.norm>
0

>  <SCORE.RESTR>
0

>  <SCORE.RESTR.CAVITY>
0

>  <SCORE.RESTR.norm>
0

>  <SCORE.SYSTEM>
0

>  <SCORE.SYSTEM.CONST>
0

>  <SCORE.SYSTEM.DIHEDRAL>
0

>  <SCORE.SYSTEM.SOLV>
0

>  <SCORE.SYSTEM.norm>
0

>  <SCORE.heavy>
11

>  <SCORE.norm>
-1.02251

>  <RMSD>
0.587

$$$$
ligand
 OpenBabel11021811493D
libRbt.so/2013.1/901 2013/11/27
 11 12  0  0  0  0  0  0  0  0999 V2000
   12.2983   11.5468    8.7040 N   0  0  0  0  0  0  0  0  0  0  0  0
   11.9053   12.8162    8.9156 C   0  0  0  0  0  0  0  0  0  0  0  0
   12.0153   13.3588   10.1878 N   0  0  0  0  0  0  0  0  0  0  0  0
   11.4071   13.5706    7.9233 N   0  0  0  0  0  0  0  0  0  0  0  0
   11.2752   13.0877    6.6777 C   0  0  0  0  0  0  0  0  0  0  0  0
   11.6734   11.7607    6.3996 C   0  0  0  0  0  0  0  0  0  0  0  0
   12.2034   10.9867    7.4791 C   0  0  0  0  0  0  0  0  0  0  0  0
   12.6114    9.6905    7.2802 N   0  0  0  0  0  0  0  0  0  0  0  0
   11.4314   11.5359    5.0764 N   0  0  0  0  0  0  0  0  0  0  0  0
   10.9231   12.6078    4.5468 C   0  0  0  0  0  0  0  0  0  0  0  0
   10.8085   13.5967    5.4909 N   0  0  0  0  0  0  0  0  0  0  0  0
  1  7  2  0  0  0  0
  1  2  1  0  0  0  0
  2  3  1  0  0  0  0
  2  4  2  0  0  0  0
  4  5  1  0  0  0  0
  5  6  2  0  0  0  0
  5 11  1  0  0  0  0
  6  7  1  0  0  0  0
  6  9  1  0  0  0  0
  7  8  1  0  0  0  0
  9 10  1  0  0  0  0
 10 11  2  0  0  0  0
M  END
>  <CHROM.1>
11.69285094,12.23125095,7.17704129,-0.98877523,1.16846497,-2.17060278

>  <Name>
ligand

>  <RI>
0

>  <Rbt.Current_Directory>
/home/itssahil/PROJECTS/Mol_Feturizer/New_Systems/rnas/4FEO

>  <Rbt.Executable>
rbdock ($Id: //depot/dev/client3/rdock/2013.1/src/exe/rbdock.cxx#4 $)

>  <Rbt.Library>
libRbt.so (2013.1, Build901 2013/11/27)

>  <Rbt.Parameter_File>
/export/apps/rDock/src/rDock_2013.1_src/data/scripts/dock_solv.prm

>  <Rbt.Receptor>
prm/blind_docking_80.prm

>  <SCORE>
-11.2359

>  <SCORE.INTER>
-11.2359

>  <SCORE.INTER.CONST>
1

>  <SCORE.INTER.POLAR>
0

>  <SCORE.INTER.ROT>
0

>  <SCORE.INTER.SOLV>
19.1915

>  <SCORE.INTER.VDW>
-17.4878

>  <SCORE.INTER.norm>
-1.02144

>  <SCORE.INTRA>
0

>  <SCORE.INTRA.DIHEDRAL>
0

>  <SCORE.INTRA.DIHEDRAL.0>
0

>  <SCORE.INTRA.POLAR>
0

>  <SCORE.INTRA.POLAR.0>
0

>  <SCORE.INTRA.REPUL>
0

>  <SCORE.INTRA.REPUL.0>
0

>  <SCORE.INTRA.SOLV>
0

>  <SCORE.INTRA.SOLV.lig_0>
-48.9252

>  <SCORE.INTRA.VDW>
0

>  <SCORE.INTRA.VDW.0>
0

>  <SCORE.INTRA.norm>
0

>  <SCORE.RESTR>
0

>  <SCORE.RESTR.CAVITY>
0

>  <SCORE.RESTR.norm>
0

>  <SCORE.SYSTEM>
0

>  <SCORE.SYSTEM.CONST>
0

>  <SCORE.SYSTEM.DIHEDRAL>
0

>  <SCORE.SYSTEM.SOLV>
0

>  <SCORE.SYSTEM.norm>
0

>  <SCORE.heavy>
11

>  <SCORE.norm>
-1.02144

>  <RMSD>
0.588

$$$$
ligand
 OpenBabel11021811493D
libRbt.so/2013.1/901 2013/11/27
 11 12  0  0  0  0  0  0  0  0999 V2000
   12.3105   11.5324    8.7076 N   0  0  0  0  0  0  0  0  0  0  0  0
   11.9300   12.8057    8.9189 C   0  0  0  0  0  0  0  0  0  0  0  0
   12.0483   13.3484   10.1904 N   0  0  0  0  0  0  0  0  0  0  0  0
   11.4366   13.5639    7.9271 N   0  0  0  0  0  0  0  0  0  0  0  0
   11.2970   13.0811    6.6823 C   0  0  0  0  0  0  0  0  0  0  0  0
   11.6819   11.7502    6.4045 C   0  0  0  0  0  0  0  0  0  0  0  0
   12.2073   10.9722    7.4834 C   0  0  0  0  0  0  0  0  0  0  0  0
   12.6025    9.6719    7.2846 N   0  0  0  0  0  0  0  0  0  0  0  0
   11.4345   11.5265    5.0821 N   0  0  0  0  0  0  0  0  0  0  0  0
   10.9351   12.6027    4.5528 C   0  0  0  0  0  0  0  0  0  0  0  0
   10.8322   13.5935    5.4962 N   0  0  0  0  0  0  0  0  0  0  0  0
  1  7  2  0  0  0  0
  1  2  1  0  0  0  0
  2  3  1  0  0  0  0
  2  4  2  0  0  0  0
  4  5  1  0  0  0  0
  5  6  2  0  0  0  0
  5 11  1  0  0  0  0
  6  7  1  0  0  0  0
  6  9  1  0  0  0  0
  7  8  1  0  0  0  0
  9 10  1  0  0  0  0
 10 11  2  0  0  0  0
M  END
>  <CHROM.1>
11.70776481,12.22122471,7.18142127,-0.96963543,1.17481053,-2.18915684

>  <Name>
ligand

>  <RI>
0

>  <Rbt.Current_Directory>
/home/itssahil/PROJECTS/Mol_Feturizer/New_Systems/rnas/4FEO

>  <Rbt.Executable>
rbdock ($Id: //depot/dev/client3/rdock/2013.1/src/exe/rbdock.cxx#4 $)

>  <Rbt.Library>
libRbt.so (2013.1, Build901 2013/11/27)

>  <Rbt.Parameter_File>
/export/apps/rDock/src/rDock_2013.1_src/data/scripts/dock_solv.prm

>  <Rbt.Receptor>
prm/pocket_docking_4.prm

>  <SCORE>
-11.2071

>  <SCORE.INTER>
-11.2071

>  <SCORE.INTER.CONST>
1

>  <SCORE.INTER.POLAR>
0

>  <SCORE.INTER.ROT>
0

>  <SCORE.INTER.SOLV>
19.1702

>  <SCORE.INTER.VDW>
-17.4615

>  <SCORE.INTER.norm>
-1.01883

>  <SCORE.INTRA>
0

>  <SCORE.INTRA.DIHEDRAL>
0

>  <SCORE.INTRA.DIHEDRAL.0>
0

>  <SCORE.INTRA.POLAR>
0

>  <SCORE.INTRA.POLAR.0>
0

>  <SCORE.INTRA.REPUL>
0

>  <SCORE.INTRA.REPUL.0>
0

>  <SCORE.INTRA.SOLV>
0

>  <SCORE.INTRA.SOLV.lig_0>
-48.9252

>  <SCORE.INTRA.VDW>
0

>  <SCORE.INTRA.VDW.0>
0

>  <SCORE.INTRA.norm>
0

>  <SCORE.RESTR>
0

>  <SCORE.RESTR.CAVITY>
0

>  <SCORE.RESTR.norm>
0

>  <SCORE.SYSTEM>
0

>  <SCORE.SYSTEM.CONST>
0

>  <SCORE.SYSTEM.DIHEDRAL>
0

>  <SCORE.SYSTEM.SOLV>
0

>  <SCORE.SYSTEM.norm>
0

>  <SCORE.heavy>
11

>  <SCORE.norm>
-1.01883

>  <RMSD>
0.589

$$$$
ligand
 OpenBabel11021811493D
libRbt.so/2013.1/901 2013/11/27
 11 12  0  0  0  0  0  0  0  0999 V2000
   12.2967   11.5441    8.7078 N   0  0  0  0  0  0  0  0  0  0  0  0
   11.9205   12.8199    8.9115 C   0  0  0  0  0  0  0  0  0  0  0  0
   12.0380   13.3689   10.1803 N   0  0  0  0  0  0  0  0  0  0  0  0
   11.4321   13.5746    7.9146 N   0  0  0  0  0  0  0  0  0  0  0  0
   11.2935   13.0858    6.6721 C   0  0  0  0  0  0  0  0  0  0  0  0
   11.6741   11.7520    6.4022 C   0  0  0  0  0  0  0  0  0  0  0  0
   12.1942   10.9778    7.4863 C   0  0  0  0  0  0  0  0  0  0  0  0
   12.5850    9.6750    7.2954 N   0  0  0  0  0  0  0  0  0  0  0  0
   11.4288   11.5221    5.0804 N   0  0  0  0  0  0  0  0  0  0  0  0
   10.9345   12.5974    4.5443 C   0  0  0  0  0  0  0  0  0  0  0  0
   10.8333   13.5935    5.4822 N   0  0  0  0  0  0  0  0  0  0  0  0
  1  7  2  0  0  0  0
  1  2  1  0  0  0  0
  2  3  1  0  0  0  0
  2  4  2  0  0  0  0
  4  5  1  0  0  0  0
  5  6  2  0  0  0  0
  5 11  1  0  0  0  0
  6  7  1  0  0  0  0
  6  9  1  0  0  0  0
  7  8  1  0  0  0  0
  9 10  1  0  0  0  0
 10 11  2  0  0  0  0
M  END
>  <CHROM.1>
11.69995541,12.22702948,7.17666444,-0.96877351,1.17912829,-2.19526424

>  <Name>
ligand

>  <RI>
0

>  <Rbt.Current_Directory>
/home/itssahil/PROJECTS/Mol_Feturizer/New_Systems/rnas/4FEO

>  <Rbt.Executable>
rbdock ($Id: //depot/dev/client3/rdock/2013.1/src/exe/rbdock.cxx#4 $)

>  <Rbt.Library>
libRbt.so (2013.1, Build901 2013/11/27)

>  <Rbt.Parameter_File>
/export/apps/rDock/src/rDock_2013.1_src/data/scripts/dock_solv.prm

>  <Rbt.Receptor>
prm/pocket_docking_4.prm

>  <SCORE>
-11.219

>  <SCORE.INTER>
-11.219

>  <SCORE.INTER.CONST>
1

>  <SCORE.INTER.POLAR>
0

>  <SCORE.INTER.ROT>
0

>  <SCORE.INTER.SOLV>
19.2592

>  <SCORE.INTER.VDW>
-17.4991

>  <SCORE.INTER.norm>
-1.01991

>  <SCORE.INTRA>
0

>  <SCORE.INTRA.DIHEDRAL>
0

>  <SCORE.INTRA.DIHEDRAL.0>
0

>  <SCORE.INTRA.POLAR>
0

>  <SCORE.INTRA.POLAR.0>
0

>  <SCORE.INTRA.REPUL>
0

>  <SCORE.INTRA.REPUL.0>
0

>  <SCORE.INTRA.SOLV>
0

>  <SCORE.INTRA.SOLV.lig_0>
-48.9252

>  <SCORE.INTRA.VDW>
0

>  <SCORE.INTRA.VDW.0>
0

>  <SCORE.INTRA.norm>
0

>  <SCORE.RESTR>
0

>  <SCORE.RESTR.CAVITY>
0

>  <SCORE.RESTR.norm>
0

>  <SCORE.SYSTEM>
0

>  <SCORE.SYSTEM.CONST>
0

>  <SCORE.SYSTEM.DIHEDRAL>
0

>  <SCORE.SYSTEM.SOLV>
0

>  <SCORE.SYSTEM.norm>
0

>  <SCORE.heavy>
11

>  <SCORE.norm>
-1.01991

>  <RMSD>
0.590

$$$$
ligand
 OpenBabel11021811493D
libRbt.so/2013.1/901 2013/11/27
 11 12  0  0  0  0  0  0  0  0999 V2000
   12.5081   11.6792    8.7182 N   0  0  0  0  0  0  0  0  0  0  0  0
   11.9701   12.8869    8.9689 C   0  0  0  0  0  0  0  0  0  0  0  0
   12.0450   13.4114   10.2512 N   0  0  0  0  0  0  0  0  0  0  0  0
   11.3604   13.5964    8.0062 N   0  0  0  0  0  0  0  0  0  0  0  0
   11.2573   13.1279    6.7525 C   0  0  0  0  0  0  0  0  0  0  0  0
   11.8056   11.8651    6.4337 C   0  0  0  0  0  0  0  0  0  0  0  0
   12.4514   11.1381    7.4823 C   0  0  0  0  0  0  0  0  0  0  0  0
   13.0078    9.9054    7.2433 N   0  0  0  0  0  0  0  0  0  0  0  0
   11.5602   11.6410    5.1110 N   0  0  0  0  0  0  0  0  0  0  0  0
   10.9134   12.6546    4.6187 C   0  0  0  0  0  0  0  0  0  0  0  0
   10.7037   13.6019    5.5888 N   0  0  0  0  0  0  0  0  0  0  0  0
  1  7  2  0  0  0  0
  1  2  1  0  0  0  0
  2  3  1  0  0  0  0
  2  4  2  0  0  0  0
  4  5  1  0  0  0  0
  5  6  2  0  0  0  0
  5 11  1  0  0  0  0
  6  7  1  0  0  0  0
  6  9  1  0  0  0  0
  7  8  1  0  0  0  0
  9 10  1  0  0  0  0
 10 11  2  0  0  0  0
M  END
>  <CHROM.1>
11.78725627,12.31782425,7.22170882,-1.08554663,1.05269303,-2.06083728

>  <Name>
ligand

>  <RI>
0

>  <Rbt.Current_Directory>
/home/itssahil/PROJECTS/Mol_Feturizer/New_Systems/rnas/4FEO

>  <Rbt.Executable>
rbdock ($Id: //depot/dev/client3/rdock/2013.1/src/exe/rbdock.cxx#4 $)

>  <Rbt.Library>
libRbt.so (2013.1, Build901 2013/11/27)

>  <Rbt.Parameter_File>
/export/apps/rDock/src/rDock_2013.1_src/data/scripts/dock_solv.prm

>  <Rbt.Receptor>
prm/pocket_docking_5.prm

>  <SCORE>
-11.0856

>  <SCORE.INTER>
-11.0856

>  <SCORE.INTER.CONST>
1

>  <SCORE.INTER.POLAR>
0

>  <SCORE.INTER.ROT>
0

>  <SCORE.INTER.SOLV>
18.1798

>  <SCORE.INTER.VDW>
-17.0503

>  <SCORE.INTER.norm>
-1.00778

>  <SCORE.INTRA>
0

>  <SCORE.INTRA.DIHEDRAL>
0

>  <SCORE.INTRA.DIHEDRAL.0>
0

>  <SCORE.INTRA.POLAR>
0

>  <SCORE.INTRA.POLAR.0>
0

>  <SCORE.INTRA.REPUL>
0

>  <SCORE.INTRA.REPUL.0>
0

>  <SCORE.INTRA.SOLV>
0

>  <SCORE.INTRA.SOLV.lig_0>
-48.9252

>  <SCORE.INTRA.VDW>
0

>  <SCORE.INTRA.VDW.0>
0

>  <SCORE.INTRA.norm>
0

>  <SCORE.RESTR>
0

>  <SCORE.RESTR.CAVITY>
0

>  <SCORE.RESTR.norm>
0

>  <SCORE.SYSTEM>
0

>  <SCORE.SYSTEM.CONST>
0

>  <SCORE.SYSTEM.DIHEDRAL>
0

>  <SCORE.SYSTEM.SOLV>
0

>  <SCORE.SYSTEM.norm>
0

>  <SCORE.heavy>
11

>  <SCORE.norm>
-1.00778

>  <RMSD>
0.592

$$$$
ligand
 OpenBabel11021811493D
libRbt.so/2013.1/901 2013/11/27
 11 12  0  0  0  0  0  0  0  0999 V2000
   12.3090   11.5221    8.6879 N   0  0  0  0  0  0  0  0  0  0  0  0
   11.9030   12.7836    8.9217 C   0  0  0  0  0  0  0  0  0  0  0  0
   12.0092   13.3054   10.2029 N   0  0  0  0  0  0  0  0  0  0  0  0
   11.3956   13.5496    7.9430 N   0  0  0  0  0  0  0  0  0  0  0  0
   11.2670   13.0867    6.6895 C   0  0  0  0  0  0  0  0  0  0  0  0
   11.6786   11.7689    6.3882 C   0  0  0  0  0  0  0  0  0  0  0  0
   12.2182   10.9822    7.4536 C   0  0  0  0  0  0  0  0  0  0  0  0
   12.6395    9.6938    7.2320 N   0  0  0  0  0  0  0  0  0  0  0  0
   11.4371   11.5643    5.0617 N   0  0  0  0  0  0  0  0  0  0  0  0
   10.9169   12.6397    4.5512 C   0  0  0  0  0  0  0  0  0  0  0  0
   10.7933   13.6110    5.5122 N   0  0  0  0  0  0  0  0  0  0  0  0
  1  7  2  0  0  0  0
  1  2  1  0  0  0  0
  2  3  1  0  0  0  0
  2  4  2  0  0  0  0
  4  5  1  0  0  0  0
  5  6  2  0  0  0  0
  5 11  1  0  0  0  0
  6  7  1  0  0  0  0
  6  9  1  0  0  0  0
  7  8  1  0  0  0  0
  9 10  1  0  0  0  0
 10 11  2  0  0  0  0
M  END
>  <CHROM.1>
11.69426588,12.22625036,7.17359444,-1.00060803,1.15901970,-2.14260663

>  <Name>
ligand

>  <RI>
0

>  <Rbt.Current_Directory>
/home/itssahil/PROJECTS/Mol_Feturizer/New_Systems/rnas/4FEO

>  <Rbt.Executable>
rbdock ($Id: //depot/dev/client3/rdock/2013.1/src/exe/rbdock.cxx#4 $)

>  <Rbt.Library>
libRbt.so (2013.1, Build901 2013/11/27)

>  <Rbt.Parameter_File>
/export/apps/rDock/src/rDock_2013.1_src/data/scripts/dock_solv.prm

>  <Rbt.Receptor>
prm/pocket_docking_3.prm

>  <SCORE>
-11.1454

>  <SCORE.INTER>
-11.1454

>  <SCORE.INTER.CONST>
1

>  <SCORE.INTER.POLAR>
0

>  <SCORE.INTER.ROT>
0

>  <SCORE.INTER.SOLV>
19.0851

>  <SCORE.INTER.VDW>
-17.392

>  <SCORE.INTER.norm>
-1.01322

>  <SCORE.INTRA>
0

>  <SCORE.INTRA.DIHEDRAL>
0

>  <SCORE.INTRA.DIHEDRAL.0>
0

>  <SCORE.INTRA.POLAR>
0

>  <SCORE.INTRA.POLAR.0>
0

>  <SCORE.INTRA.REPUL>
0

>  <SCORE.INTRA.REPUL.0>
0

>  <SCORE.INTRA.SOLV>
0

>  <SCORE.INTRA.SOLV.lig_0>
-48.9252

>  <SCORE.INTRA.VDW>
0

>  <SCORE.INTRA.VDW.0>
0

>  <SCORE.INTRA.norm>
0

>  <SCORE.RESTR>
0

>  <SCORE.RESTR.CAVITY>
0

>  <SCORE.RESTR.norm>
0

>  <SCORE.SYSTEM>
0

>  <SCORE.SYSTEM.CONST>
0

>  <SCORE.SYSTEM.DIHEDRAL>
0

>  <SCORE.SYSTEM.SOLV>
0

>  <SCORE.SYSTEM.norm>
0

>  <SCORE.heavy>
11

>  <SCORE.norm>
-1.01322

>  <RMSD>
0.598

$$$$
ligand
 OpenBabel11021811493D
libRbt.so/2013.1/901 2013/11/27
 11 12  0  0  0  0  0  0  0  0999 V2000
   12.3531   11.5397    8.6900 N   0  0  0  0  0  0  0  0  0  0  0  0
   11.9607   12.8076    8.9116 C   0  0  0  0  0  0  0  0  0  0  0  0
   12.0945   13.3484   10.1823 N   0  0  0  0  0  0  0  0  0  0  0  0
   11.4405   13.5621    7.9307 N   0  0  0  0  0  0  0  0  0  0  0  0
   11.2852   13.0808    6.6872 C   0  0  0  0  0  0  0  0  0  0  0  0
   11.6816   11.7555    6.3989 C   0  0  0  0  0  0  0  0  0  0  0  0
   12.2354   10.9814    7.4662 C   0  0  0  0  0  0  0  0  0  0  0  0
   12.6432    9.6866    7.2570 N   0  0  0  0  0  0  0  0  0  0  0  0
   11.4139   11.5322    5.0804 N   0  0  0  0  0  0  0  0  0  0  0  0
   10.8919   12.6035    4.5630 C   0  0  0  0  0  0  0  0  0  0  0  0
   10.7934   13.5904    5.5108 N   0  0  0  0  0  0  0  0  0  0  0  0
  1  7  2  0  0  0  0
  1  2  1  0  0  0  0
  2  3  1  0  0  0  0
  2  4  2  0  0  0  0
  4  5  1  0  0  0  0
  5  6  2  0  0  0  0
  5 11  1  0  0  0  0
  6  7  1  0  0  0  0
  6  9  1  0  0  0  0
  7  8  1  0  0  0  0
  9 10  1  0  0  0  0
 10 11  2  0  0  0  0
M  END
>  <CHROM.1>
11.71524757,12.22484055,7.17660542,-0.95209245,1.15449373,-2.20257276

>  <Name>
ligand

>  <RI>
0

>  <Rbt.Current_Directory>
/home/itssahil/PROJECTS/Mol_Feturizer/New_Systems/rnas/4FEO

>  <Rbt.Executable>
rbdock ($Id: //depot/dev/client3/rdock/2013.1/src/exe/rbdock.cxx#4 $)

>  <Rbt.Library>
libRbt.so (2013.1, Build901 2013/11/27)

>  <Rbt.Parameter_File>
/export/apps/rDock/src/rDock_2013.1_src/data/scripts/dock_solv.prm

>  <Rbt.Receptor>
prm/pocket_docking_6.prm

>  <SCORE>
-11.1526

>  <SCORE.INTER>
-11.1526

>  <SCORE.INTER.CONST>
1

>  <SCORE.INTER.POLAR>
0

>  <SCORE.INTER.ROT>
0

>  <SCORE.INTER.SOLV>
19.0312

>  <SCORE.INTER.VDW>
-17.3788

>  <SCORE.INTER.norm>
-1.01388

>  <SCORE.INTRA>
0

>  <SCORE.INTRA.DIHEDRAL>
0

>  <SCORE.INTRA.DIHEDRAL.0>
0

>  <SCORE.INTRA.POLAR>
0

>  <SCORE.INTRA.POLAR.0>
0

>  <SCORE.INTRA.REPUL>
0

>  <SCORE.INTRA.REPUL.0>
0

>  <SCORE.INTRA.SOLV>
0

>  <SCORE.INTRA.SOLV.lig_0>
-48.9252

>  <SCORE.INTRA.VDW>
0

>  <SCORE.INTRA.VDW.0>
0

>  <SCORE.INTRA.norm>
0

>  <SCORE.RESTR>
0

>  <SCORE.RESTR.CAVITY>
0

>  <SCORE.RESTR.norm>
0

>  <SCORE.SYSTEM>
0

>  <SCORE.SYSTEM.CONST>
0

>  <SCORE.SYSTEM.DIHEDRAL>
0

>  <SCORE.SYSTEM.SOLV>
0

>  <SCORE.SYSTEM.norm>
0

>  <SCORE.heavy>
11

>  <SCORE.norm>
-1.01388

>  <RMSD>
0.601

$$$$
ligand
 OpenBabel11021811493D
libRbt.so/2013.1/901 2013/11/27
 11 12  0  0  0  0  0  0  0  0999 V2000
   12.1173   11.6819    8.7267 N   0  0  0  0  0  0  0  0  0  0  0  0
   11.7840   12.9780    8.8673 C   0  0  0  0  0  0  0  0  0  0  0  0
   11.8682   13.5695   10.1195 N   0  0  0  0  0  0  0  0  0  0  0  0
   11.3700   13.7127    7.8230 N   0  0  0  0  0  0  0  0  0  0  0  0
   11.2661   13.1830    6.5939 C   0  0  0  0  0  0  0  0  0  0  0  0
   11.6042   11.8263    6.3895 C   0  0  0  0  0  0  0  0  0  0  0  0
   12.0453   11.0742    7.5231 C   0  0  0  0  0  0  0  0  0  0  0  0
   12.3915    9.7511    7.3969 N   0  0  0  0  0  0  0  0  0  0  0  0
   11.4076   11.5564    5.0672 N   0  0  0  0  0  0  0  0  0  0  0  0
   10.9806   12.6289    4.4711 C   0  0  0  0  0  0  0  0  0  0  0  0
   10.8787   13.6628    5.3671 N   0  0  0  0  0  0  0  0  0  0  0  0
  1  7  2  0  0  0  0
  1  2  1  0  0  0  0
  2  3  1  0  0  0  0
  2  4  2  0  0  0  0
  4  5  1  0  0  0  0
  5  6  2  0  0  0  0
  5 11  1  0  0  0  0
  6  7  1  0  0  0  0
  6  9  1  0  0  0  0
  7  8  1  0  0  0  0
  9 10  1  0  0  0  0
 10 11  2  0  0  0  0
M  END
>  <CHROM.1>
11.61546516,12.32894427,7.14678390,-1.00479386,1.23687071,-2.19847379

>  <Name>
ligand

>  <RI>
0

>  <Rbt.Current_Directory>
/home/itssahil/PROJECTS/Mol_Feturizer/New_Systems/rnas/4FEO

>  <Rbt.Executable>
rbdock ($Id: //depot/dev/client3/rdock/2013.1/src/exe/rbdock.cxx#4 $)

>  <Rbt.Library>
libRbt.so (2013.1, Build901 2013/11/27)

>  <Rbt.Parameter_File>
/export/apps/rDock/src/rDock_2013.1_src/data/scripts/dock_solv.prm

>  <Rbt.Receptor>
prm/pocket_docking_3.prm

>  <SCORE>
-11.1204

>  <SCORE.INTER>
-11.1204

>  <SCORE.INTER.CONST>
1

>  <SCORE.INTER.POLAR>
0

>  <SCORE.INTER.ROT>
0

>  <SCORE.INTER.SOLV>
20.4041

>  <SCORE.INTER.VDW>
-17.8149

>  <SCORE.INTER.norm>
-1.01094

>  <SCORE.INTRA>
0

>  <SCORE.INTRA.DIHEDRAL>
0

>  <SCORE.INTRA.DIHEDRAL.0>
0

>  <SCORE.INTRA.POLAR>
0

>  <SCORE.INTRA.POLAR.0>
0

>  <SCORE.INTRA.REPUL>
0

>  <SCORE.INTRA.REPUL.0>
0

>  <SCORE.INTRA.SOLV>
0

>  <SCORE.INTRA.SOLV.lig_0>
-48.9252

>  <SCORE.INTRA.VDW>
0

>  <SCORE.INTRA.VDW.0>
0

>  <SCORE.INTRA.norm>
0

>  <SCORE.RESTR>
0

>  <SCORE.RESTR.CAVITY>
0

>  <SCORE.RESTR.norm>
0

>  <SCORE.SYSTEM>
0

>  <SCORE.SYSTEM.CONST>
0

>  <SCORE.SYSTEM.DIHEDRAL>
0

>  <SCORE.SYSTEM.SOLV>
0

>  <SCORE.SYSTEM.norm>
0

>  <SCORE.heavy>
11

>  <SCORE.norm>
-1.01094

>  <RMSD>
0.619

$$$$
ligand
 OpenBabel11021811493D
libRbt.so/2013.1/901 2013/11/27
 11 12  0  0  0  0  0  0  0  0999 V2000
   11.0783   13.4391    8.7392 N   0  0  0  0  0  0  0  0  0  0  0  0
   11.6978   12.9037    9.8071 C   0  0  0  0  0  0  0  0  0  0  0  0
   11.7574   13.6251   10.9907 N   0  0  0  0  0  0  0  0  0  0  0  0
   12.2615   11.6866    9.7534 N   0  0  0  0  0  0  0  0  0  0  0  0
   12.2353   10.9539    8.6289 C   0  0  0  0  0  0  0  0  0  0  0  0
   11.5970   11.4677    7.4777 C   0  0  0  0  0  0  0  0  0  0  0  0
   11.0035   12.7655    7.5713 C   0  0  0  0  0  0  0  0  0  0  0  0
   10.3654   13.3258    6.4919 N   0  0  0  0  0  0  0  0  0  0  0  0
   11.7195   10.5292    6.4958 N   0  0  0  0  0  0  0  0  0  0  0  0
   12.3752    9.5081    6.9600 C   0  0  0  0  0  0  0  0  0  0  0  0
   12.7143    9.7172    8.2729 N   0  0  0  0  0  0  0  0  0  0  0  0
  1  7  2  0  0  0  0
  1  2  1  0  0  0  0
  2  3  1  0  0  0  0
  2  4  2  0  0  0  0
  4  5  1  0  0  0  0
  5  6  2  0  0  0  0
  5 11  1  0  0  0  0
  6  7  1  0  0  0  0
  6  9  1  0  0  0  0
  7  8  1  0  0  0  0
  9 10  1  0  0  0  0
 10 11  2  0  0  0  0
M  END
>  <CHROM.1>
11.70455017,11.83125387,8.30380622,1.86196312,-1.03736102,0.95707479

>  <Name>
ligand

>  <RI>
0

>  <Rbt.Current_Directory>
/home/itssahil/PROJECTS/Mol_Feturizer/New_Systems/rnas/4FEO

>  <Rbt.Executable>
rbdock ($Id: //depot/dev/client3/rdock/2013.1/src/exe/rbdock.cxx#4 $)

>  <Rbt.Library>
libRbt.so (2013.1, Build901 2013/11/27)

>  <Rbt.Parameter_File>
/export/apps/rDock/src/rDock_2013.1_src/data/scripts/dock_solv.prm

>  <Rbt.Receptor>
prm/blind_docking_80.prm

>  <SCORE>
-6.45464

>  <SCORE.INTER>
-6.47973

>  <SCORE.INTER.CONST>
1

>  <SCORE.INTER.POLAR>
0

>  <SCORE.INTER.ROT>
0

>  <SCORE.INTER.SOLV>
20.7423

>  <SCORE.INTER.VDW>
-14.8339

>  <SCORE.INTER.norm>
-0.589067

>  <SCORE.INTRA>
0

>  <SCORE.INTRA.DIHEDRAL>
0

>  <SCORE.INTRA.DIHEDRAL.0>
0

>  <SCORE.INTRA.POLAR>
0

>  <SCORE.INTRA.POLAR.0>
0

>  <SCORE.INTRA.REPUL>
0

>  <SCORE.INTRA.REPUL.0>
0

>  <SCORE.INTRA.SOLV>
0

>  <SCORE.INTRA.SOLV.lig_0>
-48.9252

>  <SCORE.INTRA.VDW>
0

>  <SCORE.INTRA.VDW.0>
0

>  <SCORE.INTRA.norm>
0

>  <SCORE.RESTR>
0.0250951

>  <SCORE.RESTR.CAVITY>
0.0250951

>  <SCORE.RESTR.norm>
0.00228137

>  <SCORE.SYSTEM>
0

>  <SCORE.SYSTEM.CONST>
0

>  <SCORE.SYSTEM.DIHEDRAL>
0

>  <SCORE.SYSTEM.SOLV>
0

>  <SCORE.SYSTEM.norm>
0

>  <SCORE.heavy>
11

>  <SCORE.norm>
-0.586785

>  <RMSD>
2.748

$$$$
ligand
 OpenBabel11021811493D
libRbt.so/2013.1/901 2013/11/27
 11 12  0  0  0  0  0  0  0  0999 V2000
   11.7575   11.4657    8.5058 N   0  0  0  0  0  0  0  0  0  0  0  0
   12.3430   10.4738    7.8101 C   0  0  0  0  0  0  0  0  0  0  0  0
   13.0181    9.4717    8.4920 N   0  0  0  0  0  0  0  0  0  0  0  0
   12.2902   10.4319    6.4694 N   0  0  0  0  0  0  0  0  0  0  0  0
   11.6547   11.3819    5.7655 C   0  0  0  0  0  0  0  0  0  0  0  0
   11.0216   12.4464    6.4459 C   0  0  0  0  0  0  0  0  0  0  0  0
   11.0941   12.4576    7.8741 C   0  0  0  0  0  0  0  0  0  0  0  0
   10.5002   13.4611    8.5999 N   0  0  0  0  0  0  0  0  0  0  0  0
   10.4632   13.2545    5.4998 N   0  0  0  0  0  0  0  0  0  0  0  0
   10.7111   12.7672    4.3213 C   0  0  0  0  0  0  0  0  0  0  0  0
   11.4404   11.6101    4.4285 N   0  0  0  0  0  0  0  0  0  0  0  0
  1  7  2  0  0  0  0
  1  2  1  0  0  0  0
  2  3  1  0  0  0  0
  2  4  2  0  0  0  0
  4  5  1  0  0  0  0
  5  6  2  0  0  0  0
  5 11  1  0  0  0  0
  6  7  1  0  0  0  0
  6  9  1  0  0  0  0
  7  8  1  0  0  0  0
  9 10  1  0  0  0  0
 10 11  2  0  0  0  0
M  END
>  <CHROM.1>
11.48935424,11.73649433,6.76757527,0.81146747,-1.00620588,1.48407867

>  <Name>
ligand

>  <RI>
0

>  <Rbt.Current_Directory>
/home/itssahil/PROJECTS/Mol_Feturizer/New_Systems/rnas/4FEO

>  <Rbt.Executable>
rbdock ($Id: //depot/dev/client3/rdock/2013.1/src/exe/rbdock.cxx#4 $)

>  <Rbt.Library>
libRbt.so (2013.1, Build901 2013/11/27)

>  <Rbt.Parameter_File>
/export/apps/rDock/src/rDock_2013.1_src/data/scripts/dock_solv.prm

>  <Rbt.Receptor>
prm/blind_docking_20.prm

>  <SCORE>
-6.10244

>  <SCORE.INTER>
-6.10257

>  <SCORE.INTER.CONST>
1

>  <SCORE.INTER.POLAR>
0

>  <SCORE.INTER.ROT>
0

>  <SCORE.INTER.SOLV>
19.861

>  <SCORE.INTER.VDW>
-14.2887

>  <SCORE.INTER.norm>
-0.554779

>  <SCORE.INTRA>
0

>  <SCORE.INTRA.DIHEDRAL>
0

>  <SCORE.INTRA.DIHEDRAL.0>
0

>  <SCORE.INTRA.POLAR>
0

>  <SCORE.INTRA.POLAR.0>
0

>  <SCORE.INTRA.REPUL>
0

>  <SCORE.INTRA.REPUL.0>
0

>  <SCORE.INTRA.SOLV>
0

>  <SCORE.INTRA.SOLV.lig_0>
-48.9252

>  <SCORE.INTRA.VDW>
0

>  <SCORE.INTRA.VDW.0>
0

>  <SCORE.INTRA.norm>
0

>  <SCORE.RESTR>
0.000125811

>  <SCORE.RESTR.CAVITY>
0.000125811

>  <SCORE.RESTR.norm>
1.14374e-05

>  <SCORE.SYSTEM>
0

>  <SCORE.SYSTEM.CONST>
0

>  <SCORE.SYSTEM.DIHEDRAL>
0

>  <SCORE.SYSTEM.SOLV>
0

>  <SCORE.SYSTEM.norm>
0

>  <SCORE.heavy>
11

>  <SCORE.norm>
-0.554768

>  <RMSD>
2.806

$$$$
ligand
 OpenBabel11021811493D
libRbt.so/2013.1/901 2013/11/27
 11 12  0  0  0  0  0  0  0  0999 V2000
   11.7625   11.4436    8.5008 N   0  0  0  0  0  0  0  0  0  0  0  0
   12.3532   10.4564    7.8027 C   0  0  0  0  0  0  0  0  0  0  0  0
   13.0307    9.4544    8.4825 N   0  0  0  0  0  0  0  0  0  0  0  0
   12.3034   10.4191    6.4618 N   0  0  0  0  0  0  0  0  0  0  0  0
   11.6656   11.3693    5.7600 C   0  0  0  0  0  0  0  0  0  0  0  0
   11.0272   12.4289    6.4429 C   0  0  0  0  0  0  0  0  0  0  0  0
   11.0967   12.4353    7.8713 C   0  0  0  0  0  0  0  0  0  0  0  0
   10.4975   13.4339    8.5994 N   0  0  0  0  0  0  0  0  0  0  0  0
   10.4677   13.2383    5.4986 N   0  0  0  0  0  0  0  0  0  0  0  0
   10.7198   12.7561    4.3188 C   0  0  0  0  0  0  0  0  0  0  0  0
   11.4533   11.6014    4.4234 N   0  0  0  0  0  0  0  0  0  0  0  0
  1  7  2  0  0  0  0
  1  2  1  0  0  0  0
  2  3  1  0  0  0  0
  2  4  2  0  0  0  0
  4  5  1  0  0  0  0
  5  6  2  0  0  0  0
  5 11  1  0  0  0  0
  6  7  1  0  0  0  0
  6  9  1  0  0  0  0
  7  8  1  0  0  0  0
  9 10  1  0  0  0  0
 10 11  2  0  0  0  0
M  END
>  <CHROM.1>
11.49692727,11.71963217,6.76300557,0.81591368,-1.00261551,1.49141781

>  <Name>
ligand

>  <RI>
0

>  <Rbt.Current_Directory>
/home/itssahil/PROJECTS/Mol_Feturizer/New_Systems/rnas/4FEO

>  <Rbt.Executable>
rbdock ($Id: //depot/dev/client3/rdock/2013.1/src/exe/rbdock.cxx#4 $)

>  <Rbt.Library>
libRbt.so (2013.1, Build901 2013/11/27)

>  <Rbt.Parameter_File>
/export/apps/rDock/src/rDock_2013.1_src/data/scripts/dock_solv.prm

>  <Rbt.Receptor>
prm/blind_docking_20.prm

>  <SCORE>
-6.10274

>  <SCORE.INTER>
-6.10274

>  <SCORE.INTER.CONST>
1

>  <SCORE.INTER.POLAR>
0

>  <SCORE.INTER.ROT>
0

>  <SCORE.INTER.SOLV>
19.7635

>  <SCORE.INTER.VDW>
-14.2563

>  <SCORE.INTER.norm>
-0.554794

>  <SCORE.INTRA>
0

>  <SCORE.INTRA.DIHEDRAL>
0

>  <SCORE.INTRA.DIHEDRAL.0>
0

>  <SCORE.INTRA.POLAR>
0

>  <SCORE.INTRA.POLAR.0>
0

>  <SCORE.INTRA.REPUL>
0

>  <SCORE.INTRA.REPUL.0>
0

>  <SCORE.INTRA.SOLV>
0

>  <SCORE.INTRA.SOLV.lig_0>
-48.9252

>  <SCORE.INTRA.VDW>
0

>  <SCORE.INTRA.VDW.0>
0

>  <SCORE.INTRA.norm>
0

>  <SCORE.RESTR>
0

>  <SCORE.RESTR.CAVITY>
0

>  <SCORE.RESTR.norm>
0

>  <SCORE.SYSTEM>
0

>  <SCORE.SYSTEM.CONST>
0

>  <SCORE.SYSTEM.DIHEDRAL>
0

>  <SCORE.SYSTEM.SOLV>
0

>  <SCORE.SYSTEM.norm>
0

>  <SCORE.heavy>
11

>  <SCORE.norm>
-0.554794

>  <RMSD>
2.810

$$$$
ligand
 OpenBabel11021811493D
libRbt.so/2013.1/901 2013/11/27
 11 12  0  0  0  0  0  0  0  0999 V2000
   12.0800   10.8080    8.6926 N   0  0  0  0  0  0  0  0  0  0  0  0
   12.3451    9.9661    7.6769 C   0  0  0  0  0  0  0  0  0  0  0  0
   12.8462    8.7025    7.9545 N   0  0  0  0  0  0  0  0  0  0  0  0
   12.1370   10.3214    6.3992 N   0  0  0  0  0  0  0  0  0  0  0  0
   11.6599   11.5351    6.0808 C   0  0  0  0  0  0  0  0  0  0  0  0
   11.3636   12.4585    7.1085 C   0  0  0  0  0  0  0  0  0  0  0  0
   11.5934   12.0456    8.4583 C   0  0  0  0  0  0  0  0  0  0  0  0
   11.3262   12.8913    9.5070 N   0  0  0  0  0  0  0  0  0  0  0  0
   10.9023   13.5938    6.5101 N   0  0  0  0  0  0  0  0  0  0  0  0
   10.9020   13.4278    5.2215 C   0  0  0  0  0  0  0  0  0  0  0  0
   11.3572   12.1733    4.9033 N   0  0  0  0  0  0  0  0  0  0  0  0
  1  7  2  0  0  0  0
  1  2  1  0  0  0  0
  2  3  1  0  0  0  0
  2  4  2  0  0  0  0
  4  5  1  0  0  0  0
  5  6  2  0  0  0  0
  5 11  1  0  0  0  0
  6  7  1  0  0  0  0
  6  9  1  0  0  0  0
  7  8  1  0  0  0  0
  9 10  1  0  0  0  0
 10 11  2  0  0  0  0
M  END
>  <CHROM.1>
11.69063353,11.61158225,7.15333118,0.44315925,-1.20352981,1.43285046

>  <Name>
ligand

>  <RI>
0

>  <Rbt.Current_Directory>
/home/itssahil/PROJECTS/Mol_Feturizer/New_Systems/rnas/4FEO

>  <Rbt.Executable>
rbdock ($Id: //depot/dev/client3/rdock/2013.1/src/exe/rbdock.cxx#4 $)

>  <Rbt.Library>
libRbt.so (2013.1, Build901 2013/11/27)

>  <Rbt.Parameter_File>
/export/apps/rDock/src/rDock_2013.1_src/data/scripts/dock_solv.prm

>  <Rbt.Receptor>
prm/blind_docking_20.prm

>  <SCORE>
-8.03734

>  <SCORE.INTER>
-8.60547

>  <SCORE.INTER.CONST>
1

>  <SCORE.INTER.POLAR>
0

>  <SCORE.INTER.ROT>
0

>  <SCORE.INTER.SOLV>
18.3224

>  <SCORE.INTER.VDW>
-15.4444

>  <SCORE.INTER.norm>
-0.782315

>  <SCORE.INTRA>
0

>  <SCORE.INTRA.DIHEDRAL>
0

>  <SCORE.INTRA.DIHEDRAL.0>
0

>  <SCORE.INTRA.POLAR>
0

>  <SCORE.INTRA.POLAR.0>
0

>  <SCORE.INTRA.REPUL>
0

>  <SCORE.INTRA.REPUL.0>
0

>  <SCORE.INTRA.SOLV>
0

>  <SCORE.INTRA.SOLV.lig_0>
-48.9252

>  <SCORE.INTRA.VDW>
0

>  <SCORE.INTRA.VDW.0>
0

>  <SCORE.INTRA.norm>
0

>  <SCORE.RESTR>
0.568132

>  <SCORE.RESTR.CAVITY>
0.568132

>  <SCORE.RESTR.norm>
0.0516484

>  <SCORE.SYSTEM>
0

>  <SCORE.SYSTEM.CONST>
0

>  <SCORE.SYSTEM.DIHEDRAL>
0

>  <SCORE.SYSTEM.SOLV>
0

>  <SCORE.SYSTEM.norm>
0

>  <SCORE.heavy>
11

>  <SCORE.norm>
-0.730667

>  <RMSD>
2.855

$$$$
ligand
 OpenBabel11021811493D
libRbt.so/2013.1/901 2013/11/27
 11 12  0  0  0  0  0  0  0  0999 V2000
   12.0888   10.8046    8.6899 N   0  0  0  0  0  0  0  0  0  0  0  0
   12.3518    9.9630    7.6735 C   0  0  0  0  0  0  0  0  0  0  0  0
   12.8513    8.6984    7.9499 N   0  0  0  0  0  0  0  0  0  0  0  0
   12.1433   10.3194    6.3962 N   0  0  0  0  0  0  0  0  0  0  0  0
   11.6678   11.5340    6.0789 C   0  0  0  0  0  0  0  0  0  0  0  0
   11.3736   12.4571    7.1074 C   0  0  0  0  0  0  0  0  0  0  0  0
   11.6038   12.0430    8.4568 C   0  0  0  0  0  0  0  0  0  0  0  0
   11.3386   12.8884    9.5062 N   0  0  0  0  0  0  0  0  0  0  0  0
   10.9136   13.5936    6.5101 N   0  0  0  0  0  0  0  0  0  0  0  0
   10.9120   13.4284    5.2215 C   0  0  0  0  0  0  0  0  0  0  0  0
   11.3651   12.1734    4.9020 N   0  0  0  0  0  0  0  0  0  0  0  0
  1  7  2  0  0  0  0
  1  2  1  0  0  0  0
  2  3  1  0  0  0  0
  2  4  2  0  0  0  0
  4  5  1  0  0  0  0
  5  6  2  0  0  0  0
  5 11  1  0  0  0  0
  6  7  1  0  0  0  0
  6  9  1  0  0  0  0
  7  8  1  0  0  0  0
  9 10  1  0  0  0  0
 10 11  2  0  0  0  0
M  END
>  <CHROM.1>
11.69940274,11.60973369,7.15146189,0.44050763,-1.20489933,1.43103127

>  <Name>
ligand

>  <RI>
0

>  <Rbt.Current_Directory>
/home/itssahil/PROJECTS/Mol_Feturizer/New_Systems/rnas/4FEO

>  <Rbt.Executable>
rbdock ($Id: //depot/dev/client3/rdock/2013.1/src/exe/rbdock.cxx#4 $)

>  <Rbt.Library>
libRbt.so (2013.1, Build901 2013/11/27)

>  <Rbt.Parameter_File>
/export/apps/rDock/src/rDock_2013.1_src/data/scripts/dock_solv.prm

>  <Rbt.Receptor>
prm/blind_docking_20.prm

>  <SCORE>
-8.03388

>  <SCORE.INTER>
-8.60018

>  <SCORE.INTER.CONST>
1

>  <SCORE.INTER.POLAR>
0

>  <SCORE.INTER.ROT>
0

>  <SCORE.INTER.SOLV>
18.2709

>  <SCORE.INTER.VDW>
-15.4237

>  <SCORE.INTER.norm>
-0.781834

>  <SCORE.INTRA>
0

>  <SCORE.INTRA.DIHEDRAL>
0

>  <SCORE.INTRA.DIHEDRAL.0>
0

>  <SCORE.INTRA.POLAR>
0

>  <SCORE.INTRA.POLAR.0>
0

>  <SCORE.INTRA.REPUL>
0

>  <SCORE.INTRA.REPUL.0>
0

>  <SCORE.INTRA.SOLV>
0

>  <SCORE.INTRA.SOLV.lig_0>
-48.9252

>  <SCORE.INTRA.VDW>
0

>  <SCORE.INTRA.VDW.0>
0

>  <SCORE.INTRA.norm>
0

>  <SCORE.RESTR>
0.566296

>  <SCORE.RESTR.CAVITY>
0.566296

>  <SCORE.RESTR.norm>
0.0514814

>  <SCORE.SYSTEM>
0

>  <SCORE.SYSTEM.CONST>
0

>  <SCORE.SYSTEM.DIHEDRAL>
0

>  <SCORE.SYSTEM.SOLV>
0

>  <SCORE.SYSTEM.norm>
0

>  <SCORE.heavy>
11

>  <SCORE.norm>
-0.730353

>  <RMSD>
2.857

$$$$
ligand
 OpenBabel11021811493D
libRbt.so/2013.1/901 2013/11/27
 11 12  0  0  0  0  0  0  0  0999 V2000
   12.0750   10.7939    8.6886 N   0  0  0  0  0  0  0  0  0  0  0  0
   12.3050    9.9398    7.6746 C   0  0  0  0  0  0  0  0  0  0  0  0
   12.7774    8.6653    7.9533 N   0  0  0  0  0  0  0  0  0  0  0  0
   12.0891   10.2929    6.3977 N   0  0  0  0  0  0  0  0  0  0  0  0
   11.6389   11.5166    6.0781 C   0  0  0  0  0  0  0  0  0  0  0  0
   11.3798   12.4531    7.1041 C   0  0  0  0  0  0  0  0  0  0  0  0
   11.6170   12.0421    8.4532 C   0  0  0  0  0  0  0  0  0  0  0  0
   11.3853   12.9004    9.5002 N   0  0  0  0  0  0  0  0  0  0  0  0
   10.9398   13.5964    6.5049 N   0  0  0  0  0  0  0  0  0  0  0  0
   10.9181   13.4231    5.2175 C   0  0  0  0  0  0  0  0  0  0  0  0
   11.3370   12.1555    4.9009 N   0  0  0  0  0  0  0  0  0  0  0  0
  1  7  2  0  0  0  0
  1  2  1  0  0  0  0
  2  3  1  0  0  0  0
  2  4  2  0  0  0  0
  4  5  1  0  0  0  0
  5  6  2  0  0  0  0
  5 11  1  0  0  0  0
  6  7  1  0  0  0  0
  6  9  1  0  0  0  0
  7  8  1  0  0  0  0
  9 10  1  0  0  0  0
 10 11  2  0  0  0  0
M  END
>  <CHROM.1>
11.68577915,11.59836951,7.14974195,0.39383669,-1.22656070,1.38073143

>  <Name>
ligand

>  <RI>
0

>  <Rbt.Current_Directory>
/home/itssahil/PROJECTS/Mol_Feturizer/New_Systems/rnas/4FEO

>  <Rbt.Executable>
rbdock ($Id: //depot/dev/client3/rdock/2013.1/src/exe/rbdock.cxx#4 $)

>  <Rbt.Library>
libRbt.so (2013.1, Build901 2013/11/27)

>  <Rbt.Parameter_File>
/export/apps/rDock/src/rDock_2013.1_src/data/scripts/dock_solv.prm

>  <Rbt.Receptor>
prm/blind_docking_20.prm

>  <SCORE>
-8.07512

>  <SCORE.INTER>
-8.64112

>  <SCORE.INTER.CONST>
1

>  <SCORE.INTER.POLAR>
0

>  <SCORE.INTER.ROT>
0

>  <SCORE.INTER.SOLV>
18.3643

>  <SCORE.INTER.VDW>
-15.4822

>  <SCORE.INTER.norm>
-0.785556

>  <SCORE.INTRA>
0

>  <SCORE.INTRA.DIHEDRAL>
0

>  <SCORE.INTRA.DIHEDRAL.0>
0

>  <SCORE.INTRA.POLAR>
0

>  <SCORE.INTRA.POLAR.0>
0

>  <SCORE.INTRA.REPUL>
0

>  <SCORE.INTRA.REPUL.0>
0

>  <SCORE.INTRA.SOLV>
0

>  <SCORE.INTRA.SOLV.lig_0>
-48.9252

>  <SCORE.INTRA.VDW>
0

>  <SCORE.INTRA.VDW.0>
0

>  <SCORE.INTRA.norm>
0

>  <SCORE.RESTR>
0.565996

>  <SCORE.RESTR.CAVITY>
0.565996

>  <SCORE.RESTR.norm>
0.0514542

>  <SCORE.SYSTEM>
0

>  <SCORE.SYSTEM.CONST>
0

>  <SCORE.SYSTEM.DIHEDRAL>
0

>  <SCORE.SYSTEM.SOLV>
0

>  <SCORE.SYSTEM.norm>
0

>  <SCORE.heavy>
11

>  <SCORE.norm>
-0.734102

>  <RMSD>
2.859

$$$$
ligand
 OpenBabel11021811493D
libRbt.so/2013.1/901 2013/11/27
 11 12  0  0  0  0  0  0  0  0999 V2000
   12.0774   10.7937    8.6869 N   0  0  0  0  0  0  0  0  0  0  0  0
   12.3032    9.9397    7.6718 C   0  0  0  0  0  0  0  0  0  0  0  0
   12.7790    8.6660    7.9480 N   0  0  0  0  0  0  0  0  0  0  0  0
   12.0800   10.2924    6.3959 N   0  0  0  0  0  0  0  0  0  0  0  0
   11.6263   11.5154    6.0787 C   0  0  0  0  0  0  0  0  0  0  0  0
   11.3714   12.4516    7.1059 C   0  0  0  0  0  0  0  0  0  0  0  0
   11.6164   12.0412    8.4538 C   0  0  0  0  0  0  0  0  0  0  0  0
   11.3891   12.8992    9.5019 N   0  0  0  0  0  0  0  0  0  0  0  0
   10.9265   13.5942    6.5090 N   0  0  0  0  0  0  0  0  0  0  0  0
   10.8981   13.4207    5.2217 C   0  0  0  0  0  0  0  0  0  0  0  0
   11.3171   12.1537    4.9030 N   0  0  0  0  0  0  0  0  0  0  0  0
  1  7  2  0  0  0  0
  1  2  1  0  0  0  0
  2  3  1  0  0  0  0
  2  4  2  0  0  0  0
  4  5  1  0  0  0  0
  5  6  2  0  0  0  0
  5 11  1  0  0  0  0
  6  7  1  0  0  0  0
  6  9  1  0  0  0  0
  7  8  1  0  0  0  0
  9 10  1  0  0  0  0
 10 11  2  0  0  0  0
M  END
>  <CHROM.1>
11.67881997,11.59735616,7.15000397,0.37913314,-1.22408324,1.36678097

>  <Name>
ligand

>  <RI>
0

>  <Rbt.Current_Directory>
/home/itssahil/PROJECTS/Mol_Feturizer/New_Systems/rnas/4FEO

>  <Rbt.Executable>
rbdock ($Id: //depot/dev/client3/rdock/2013.1/src/exe/rbdock.cxx#4 $)

>  <Rbt.Library>
libRbt.so (2013.1, Build901 2013/11/27)

>  <Rbt.Parameter_File>
/export/apps/rDock/src/rDock_2013.1_src/data/scripts/dock_solv.prm

>  <Rbt.Receptor>
prm/blind_docking_20.prm

>  <SCORE>
-8.08011

>  <SCORE.INTER>
-8.64726

>  <SCORE.INTER.CONST>
1

>  <SCORE.INTER.POLAR>
0

>  <SCORE.INTER.ROT>
0

>  <SCORE.INTER.SOLV>
18.343

>  <SCORE.INTER.VDW>
-15.4792

>  <SCORE.INTER.norm>
-0.786115

>  <SCORE.INTRA>
0

>  <SCORE.INTRA.DIHEDRAL>
0

>  <SCORE.INTRA.DIHEDRAL.0>
0

>  <SCORE.INTRA.POLAR>
0

>  <SCORE.INTRA.POLAR.0>
0

>  <SCORE.INTRA.REPUL>
0

>  <SCORE.INTRA.REPUL.0>
0

>  <SCORE.INTRA.SOLV>
0

>  <SCORE.INTRA.SOLV.lig_0>
-48.9252

>  <SCORE.INTRA.VDW>
0

>  <SCORE.INTRA.VDW.0>
0

>  <SCORE.INTRA.norm>
0

>  <SCORE.RESTR>
0.567157

>  <SCORE.RESTR.CAVITY>
0.567157

>  <SCORE.RESTR.norm>
0.0515598

>  <SCORE.SYSTEM>
0

>  <SCORE.SYSTEM.CONST>
0

>  <SCORE.SYSTEM.DIHEDRAL>
0

>  <SCORE.SYSTEM.SOLV>
0

>  <SCORE.SYSTEM.norm>
0

>  <SCORE.heavy>
11

>  <SCORE.norm>
-0.734555

>  <RMSD>
2.859

$$$$
ligand
 OpenBabel11021811493D
libRbt.so/2013.1/901 2013/11/27
 11 12  0  0  0  0  0  0  0  0999 V2000
   12.0612   10.7929    8.6895 N   0  0  0  0  0  0  0  0  0  0  0  0
   12.3008    9.9417    7.6752 C   0  0  0  0  0  0  0  0  0  0  0  0
   12.7746    8.6678    7.9543 N   0  0  0  0  0  0  0  0  0  0  0  0
   12.0931   10.2973    6.3975 N   0  0  0  0  0  0  0  0  0  0  0  0
   11.6420   11.5205    6.0776 C   0  0  0  0  0  0  0  0  0  0  0  0
   11.3731   12.4539    7.1038 C   0  0  0  0  0  0  0  0  0  0  0  0
   11.6016   12.0404    8.4537 C   0  0  0  0  0  0  0  0  0  0  0  0
   11.3601   12.8956    9.5009 N   0  0  0  0  0  0  0  0  0  0  0  0
   10.9343   13.5974    6.5041 N   0  0  0  0  0  0  0  0  0  0  0  0
   10.9223   13.4270    5.2162 C   0  0  0  0  0  0  0  0  0  0  0  0
   11.3468   12.1613    4.8997 N   0  0  0  0  0  0  0  0  0  0  0  0
  1  7  2  0  0  0  0
  1  2  1  0  0  0  0
  2  3  1  0  0  0  0
  2  4  2  0  0  0  0
  4  5  1  0  0  0  0
  5  6  2  0  0  0  0
  5 11  1  0  0  0  0
  6  7  1  0  0  0  0
  6  9  1  0  0  0  0
  7  8  1  0  0  0  0
  9 10  1  0  0  0  0
 10 11  2  0  0  0  0
M  END
>  <CHROM.1>
11.68095780,11.59987537,7.14968939,0.41613922,-1.22522070,1.40403387

>  <Name>
ligand

>  <RI>
0

>  <Rbt.Current_Directory>
/home/itssahil/PROJECTS/Mol_Feturizer/New_Systems/rnas/4FEO

>  <Rbt.Executable>
rbdock ($Id: //depot/dev/client3/rdock/2013.1/src/exe/rbdock.cxx#4 $)

>  <Rbt.Library>
libRbt.so (2013.1, Build901 2013/11/27)

>  <Rbt.Parameter_File>
/export/apps/rDock/src/rDock_2013.1_src/data/scripts/dock_solv.prm

>  <Rbt.Receptor>
prm/blind_docking_20.prm

>  <SCORE>
-8.02647

>  <SCORE.INTER>
-8.59132

>  <SCORE.INTER.CONST>
1

>  <SCORE.INTER.POLAR>
0

>  <SCORE.INTER.ROT>
0

>  <SCORE.INTER.SOLV>
18.4246

>  <SCORE.INTER.VDW>
-15.4691

>  <SCORE.INTER.norm>
-0.781029

>  <SCORE.INTRA>
0

>  <SCORE.INTRA.DIHEDRAL>
0

>  <SCORE.INTRA.DIHEDRAL.0>
0

>  <SCORE.INTRA.POLAR>
0

>  <SCORE.INTRA.POLAR.0>
0

>  <SCORE.INTRA.REPUL>
0

>  <SCORE.INTRA.REPUL.0>
0

>  <SCORE.INTRA.SOLV>
0

>  <SCORE.INTRA.SOLV.lig_0>
-48.9252

>  <SCORE.INTRA.VDW>
0

>  <SCORE.INTRA.VDW.0>
0

>  <SCORE.INTRA.norm>
0

>  <SCORE.RESTR>
0.564849

>  <SCORE.RESTR.CAVITY>
0.564849

>  <SCORE.RESTR.norm>
0.0513499

>  <SCORE.SYSTEM>
0

>  <SCORE.SYSTEM.CONST>
0

>  <SCORE.SYSTEM.DIHEDRAL>
0

>  <SCORE.SYSTEM.SOLV>
0

>  <SCORE.SYSTEM.norm>
0

>  <SCORE.heavy>
11

>  <SCORE.norm>
-0.729679

>  <RMSD>
2.859

$$$$
ligand
 OpenBabel11021811493D
libRbt.so/2013.1/901 2013/11/27
 11 12  0  0  0  0  0  0  0  0999 V2000
   12.0703   10.7930    8.6855 N   0  0  0  0  0  0  0  0  0  0  0  0
   12.3118    9.9440    7.6699 C   0  0  0  0  0  0  0  0  0  0  0  0
   12.7919    8.6720    7.9467 N   0  0  0  0  0  0  0  0  0  0  0  0
   12.1002   10.3000    6.3930 N   0  0  0  0  0  0  0  0  0  0  0  0
   11.6429   11.5214    6.0752 C   0  0  0  0  0  0  0  0  0  0  0  0
   11.3716   12.4525    7.1029 C   0  0  0  0  0  0  0  0  0  0  0  0
   11.6046   12.0387    8.4518 C   0  0  0  0  0  0  0  0  0  0  0  0
   11.3612   12.8917    9.5004 N   0  0  0  0  0  0  0  0  0  0  0  0
   10.9265   13.5947    6.5052 N   0  0  0  0  0  0  0  0  0  0  0  0
   10.9129   13.4256    5.2171 C   0  0  0  0  0  0  0  0  0  0  0  0
   11.3426   12.1622    4.8985 N   0  0  0  0  0  0  0  0  0  0  0  0
  1  7  2  0  0  0  0
  1  2  1  0  0  0  0
  2  3  1  0  0  0  0
  2  4  2  0  0  0  0
  4  5  1  0  0  0  0
  5  6  2  0  0  0  0
  5 11  1  0  0  0  0
  6  7  1  0  0  0  0
  6  9  1  0  0  0  0
  7  8  1  0  0  0  0
  9 10  1  0  0  0  0
 10 11  2  0  0  0  0
M  END
>  <CHROM.1>
11.68348036,11.59988857,7.14726554,0.41297755,-1.22042411,1.40211564

>  <Name>
ligand

>  <RI>
0

>  <Rbt.Current_Directory>
/home/itssahil/PROJECTS/Mol_Feturizer/New_Systems/rnas/4FEO

>  <Rbt.Executable>
rbdock ($Id: //depot/dev/client3/rdock/2013.1/src/exe/rbdock.cxx#4 $)

>  <Rbt.Library>
libRbt.so (2013.1, Build901 2013/11/27)

>  <Rbt.Parameter_File>
/export/apps/rDock/src/rDock_2013.1_src/data/scripts/dock_solv.prm

>  <Rbt.Receptor>
prm/blind_docking_20.prm

>  <SCORE>
-8.04131

>  <SCORE.INTER>
-8.60393

>  <SCORE.INTER.CONST>
1

>  <SCORE.INTER.POLAR>
0

>  <SCORE.INTER.ROT>
0

>  <SCORE.INTER.SOLV>
18.3575

>  <SCORE.INTER.VDW>
-15.4551

>  <SCORE.INTER.norm>
-0.782176

>  <SCORE.INTRA>
0

>  <SCORE.INTRA.DIHEDRAL>
0

>  <SCORE.INTRA.DIHEDRAL.0>
0

>  <SCORE.INTRA.POLAR>
0

>  <SCORE.INTRA.POLAR.0>
0

>  <SCORE.INTRA.REPUL>
0

>  <SCORE.INTRA.REPUL.0>
0

>  <SCORE.INTRA.SOLV>
0

>  <SCORE.INTRA.SOLV.lig_0>
-48.9252

>  <SCORE.INTRA.VDW>
0

>  <SCORE.INTRA.VDW.0>
0

>  <SCORE.INTRA.norm>
0

>  <SCORE.RESTR>
0.562622

>  <SCORE.RESTR.CAVITY>
0.562622

>  <SCORE.RESTR.norm>
0.0511475

>  <SCORE.SYSTEM>
0

>  <SCORE.SYSTEM.CONST>
0

>  <SCORE.SYSTEM.DIHEDRAL>
0

>  <SCORE.SYSTEM.SOLV>
0

>  <SCORE.SYSTEM.norm>
0

>  <SCORE.heavy>
11

>  <SCORE.norm>
-0.731028

>  <RMSD>
2.860

$$$$
ligand
 OpenBabel11021811493D
libRbt.so/2013.1/901 2013/11/27
 11 12  0  0  0  0  0  0  0  0999 V2000
   12.0537   10.7838    8.6862 N   0  0  0  0  0  0  0  0  0  0  0  0
   12.2780    9.9291    7.6714 C   0  0  0  0  0  0  0  0  0  0  0  0
   12.7413    8.6510    7.9488 N   0  0  0  0  0  0  0  0  0  0  0  0
   12.0650   10.2851    6.3947 N   0  0  0  0  0  0  0  0  0  0  0  0
   11.6235   11.5122    6.0763 C   0  0  0  0  0  0  0  0  0  0  0  0
   11.3708   12.4495    7.1031 C   0  0  0  0  0  0  0  0  0  0  0  0
   11.6046   12.0355    8.4519 C   0  0  0  0  0  0  0  0  0  0  0  0
   11.3787   12.8942    9.4997 N   0  0  0  0  0  0  0  0  0  0  0  0
   10.9390   13.5965    6.5050 N   0  0  0  0  0  0  0  0  0  0  0  0
   10.9164   13.4246    5.2174 C   0  0  0  0  0  0  0  0  0  0  0  0
   11.3264   12.1545    4.8996 N   0  0  0  0  0  0  0  0  0  0  0  0
  1  7  2  0  0  0  0
  1  2  1  0  0  0  0
  2  3  1  0  0  0  0
  2  4  2  0  0  0  0
  4  5  1  0  0  0  0
  5  6  2  0  0  0  0
  5 11  1  0  0  0  0
  6  7  1  0  0  0  0
  6  9  1  0  0  0  0
  7  8  1  0  0  0  0
  9 10  1  0  0  0  0
 10 11  2  0  0  0  0
M  END
>  <CHROM.1>
11.67065360,11.59255785,7.14798637,0.39067239,-1.23353685,1.37877977

>  <Name>
ligand

>  <RI>
0

>  <Rbt.Current_Directory>
/home/itssahil/PROJECTS/Mol_Feturizer/New_Systems/rnas/4FEO

>  <Rbt.Executable>
rbdock ($Id: //depot/dev/client3/rdock/2013.1/src/exe/rbdock.cxx#4 $)

>  <Rbt.Library>
libRbt.so (2013.1, Build901 2013/11/27)

>  <Rbt.Parameter_File>
/export/apps/rDock/src/rDock_2013.1_src/data/scripts/dock_solv.prm

>  <Rbt.Receptor>
prm/blind_docking_20.prm

>  <SCORE>
-8.06123

>  <SCORE.INTER>
-8.62436

>  <SCORE.INTER.CONST>
1

>  <SCORE.INTER.POLAR>
0

>  <SCORE.INTER.ROT>
0

>  <SCORE.INTER.SOLV>
18.4518

>  <SCORE.INTER.VDW>
-15.5002

>  <SCORE.INTER.norm>
-0.784032

>  <SCORE.INTRA>
0

>  <SCORE.INTRA.DIHEDRAL>
0

>  <SCORE.INTRA.DIHEDRAL.0>
0

>  <SCORE.INTRA.POLAR>
0

>  <SCORE.INTRA.POLAR.0>
0

>  <SCORE.INTRA.REPUL>
0

>  <SCORE.INTRA.REPUL.0>
0

>  <SCORE.INTRA.SOLV>
0

>  <SCORE.INTRA.SOLV.lig_0>
-48.9252

>  <SCORE.INTRA.VDW>
0

>  <SCORE.INTRA.VDW.0>
0

>  <SCORE.INTRA.norm>
0

>  <SCORE.RESTR>
0.563125

>  <SCORE.RESTR.CAVITY>
0.563125

>  <SCORE.RESTR.norm>
0.0511932

>  <SCORE.SYSTEM>
0

>  <SCORE.SYSTEM.CONST>
0

>  <SCORE.SYSTEM.DIHEDRAL>
0

>  <SCORE.SYSTEM.SOLV>
0

>  <SCORE.SYSTEM.norm>
0

>  <SCORE.heavy>
11

>  <SCORE.norm>
-0.732839

>  <RMSD>
2.862

$$$$
ligand
 OpenBabel11021811493D
libRbt.so/2013.1/901 2013/11/27
 11 12  0  0  0  0  0  0  0  0999 V2000
   12.0342   10.7749    8.6917 N   0  0  0  0  0  0  0  0  0  0  0  0
   12.2414    9.9142    7.6783 C   0  0  0  0  0  0  0  0  0  0  0  0
   12.6906    8.6314    7.9570 N   0  0  0  0  0  0  0  0  0  0  0  0
   12.0247   10.2687    6.4018 N   0  0  0  0  0  0  0  0  0  0  0  0
   11.5965   11.5002    6.0822 C   0  0  0  0  0  0  0  0  0  0  0  0
   11.3620   12.4438    7.1075 C   0  0  0  0  0  0  0  0  0  0  0  0
   11.5992   12.0313    8.4561 C   0  0  0  0  0  0  0  0  0  0  0  0
   11.3906   12.8962    9.5025 N   0  0  0  0  0  0  0  0  0  0  0  0
   10.9406   13.5942    6.5083 N   0  0  0  0  0  0  0  0  0  0  0  0
   10.9078   13.4184    5.2215 C   0  0  0  0  0  0  0  0  0  0  0  0
   11.3000   12.1423    4.9053 N   0  0  0  0  0  0  0  0  0  0  0  0
  1  7  2  0  0  0  0
  1  2  1  0  0  0  0
  2  3  1  0  0  0  0
  2  4  2  0  0  0  0
  4  5  1  0  0  0  0
  5  6  2  0  0  0  0
  5 11  1  0  0  0  0
  6  7  1  0  0  0  0
  6  9  1  0  0  0  0
  7  8  1  0  0  0  0
  9 10  1  0  0  0  0
 10 11  2  0  0  0  0
M  END
>  <CHROM.1>
11.65146411,11.58338641,7.15329982,0.36382070,-1.24439911,1.35013486

>  <Name>
ligand

>  <RI>
0

>  <Rbt.Current_Directory>
/home/itssahil/PROJECTS/Mol_Feturizer/New_Systems/rnas/4FEO

>  <Rbt.Executable>
rbdock ($Id: //depot/dev/client3/rdock/2013.1/src/exe/rbdock.cxx#4 $)

>  <Rbt.Library>
libRbt.so (2013.1, Build901 2013/11/27)

>  <Rbt.Parameter_File>
/export/apps/rDock/src/rDock_2013.1_src/data/scripts/dock_solv.prm

>  <Rbt.Receptor>
prm/blind_docking_20.prm

>  <SCORE>
-8.06596

>  <SCORE.INTER>
-8.63219

>  <SCORE.INTER.CONST>
1

>  <SCORE.INTER.POLAR>
0

>  <SCORE.INTER.ROT>
0

>  <SCORE.INTER.SOLV>
18.5794

>  <SCORE.INTER.VDW>
-15.5479

>  <SCORE.INTER.norm>
-0.784744

>  <SCORE.INTRA>
0

>  <SCORE.INTRA.DIHEDRAL>
0

>  <SCORE.INTRA.DIHEDRAL.0>
0

>  <SCORE.INTRA.POLAR>
0

>  <SCORE.INTRA.POLAR.0>
0

>  <SCORE.INTRA.REPUL>
0

>  <SCORE.INTRA.REPUL.0>
0

>  <SCORE.INTRA.SOLV>
0

>  <SCORE.INTRA.SOLV.lig_0>
-48.9252

>  <SCORE.INTRA.VDW>
0

>  <SCORE.INTRA.VDW.0>
0

>  <SCORE.INTRA.norm>
0

>  <SCORE.RESTR>
0.566227

>  <SCORE.RESTR.CAVITY>
0.566227

>  <SCORE.RESTR.norm>
0.0514752

>  <SCORE.SYSTEM>
0

>  <SCORE.SYSTEM.CONST>
0

>  <SCORE.SYSTEM.DIHEDRAL>
0

>  <SCORE.SYSTEM.SOLV>
0

>  <SCORE.SYSTEM.norm>
0

>  <SCORE.heavy>
11

>  <SCORE.norm>
-0.733269

>  <RMSD>
2.862

$$$$
ligand
 OpenBabel11021811493D
libRbt.so/2013.1/901 2013/11/27
 11 12  0  0  0  0  0  0  0  0999 V2000
   12.1371   10.7906    8.6830 N   0  0  0  0  0  0  0  0  0  0  0  0
   12.3303    9.9273    7.6691 C   0  0  0  0  0  0  0  0  0  0  0  0
   12.7960    8.6495    7.9437 N   0  0  0  0  0  0  0  0  0  0  0  0
   12.0839   10.2744    6.3960 N   0  0  0  0  0  0  0  0  0  0  0  0
   11.6388   11.5009    6.0803 C   0  0  0  0  0  0  0  0  0  0  0  0
   11.4178   12.4470    7.1063 C   0  0  0  0  0  0  0  0  0  0  0  0
   11.6867   12.0423    8.4514 C   0  0  0  0  0  0  0  0  0  0  0  0
   11.4928   12.9099    9.4983 N   0  0  0  0  0  0  0  0  0  0  0  0
   10.9744   13.5912    6.5113 N   0  0  0  0  0  0  0  0  0  0  0  0
   10.9161   13.4096    5.2262 C   0  0  0  0  0  0  0  0  0  0  0  0
   11.3123   12.1354    4.9072 N   0  0  0  0  0  0  0  0  0  0  0  0
  1  7  2  0  0  0  0
  1  2  1  0  0  0  0
  2  3  1  0  0  0  0
  2  4  2  0  0  0  0
  4  5  1  0  0  0  0
  5  6  2  0  0  0  0
  5 11  1  0  0  0  0
  6  7  1  0  0  0  0
  6  9  1  0  0  0  0
  7  8  1  0  0  0  0
  9 10  1  0  0  0  0
 10 11  2  0  0  0  0
M  END
>  <CHROM.1>
11.71543349,11.58921124,7.14962113,0.30801655,-1.23112503,1.29314348

>  <Name>
ligand

>  <RI>
0

>  <Rbt.Current_Directory>
/home/itssahil/PROJECTS/Mol_Feturizer/New_Systems/rnas/4FEO

>  <Rbt.Executable>
rbdock ($Id: //depot/dev/client3/rdock/2013.1/src/exe/rbdock.cxx#4 $)

>  <Rbt.Library>
libRbt.so (2013.1, Build901 2013/11/27)

>  <Rbt.Parameter_File>
/export/apps/rDock/src/rDock_2013.1_src/data/scripts/dock_solv.prm

>  <Rbt.Receptor>
prm/blind_docking_20.prm

>  <SCORE>
-8.00238

>  <SCORE.INTER>
-8.57128

>  <SCORE.INTER.CONST>
1

>  <SCORE.INTER.POLAR>
0

>  <SCORE.INTER.ROT>
0

>  <SCORE.INTER.SOLV>
18.1166

>  <SCORE.INTER.VDW>
-15.3531

>  <SCORE.INTER.norm>
-0.779208

>  <SCORE.INTRA>
0

>  <SCORE.INTRA.DIHEDRAL>
0

>  <SCORE.INTRA.DIHEDRAL.0>
0

>  <SCORE.INTRA.POLAR>
0

>  <SCORE.INTRA.POLAR.0>
0

>  <SCORE.INTRA.REPUL>
0

>  <SCORE.INTRA.REPUL.0>
0

>  <SCORE.INTRA.SOLV>
0

>  <SCORE.INTRA.SOLV.lig_0>
-48.9252

>  <SCORE.INTRA.VDW>
0

>  <SCORE.INTRA.VDW.0>
0

>  <SCORE.INTRA.norm>
0

>  <SCORE.RESTR>
0.568907

>  <SCORE.RESTR.CAVITY>
0.568907

>  <SCORE.RESTR.norm>
0.0517188

>  <SCORE.SYSTEM>
0

>  <SCORE.SYSTEM.CONST>
0

>  <SCORE.SYSTEM.DIHEDRAL>
0

>  <SCORE.SYSTEM.SOLV>
0

>  <SCORE.SYSTEM.norm>
0

>  <SCORE.heavy>
11

>  <SCORE.norm>
-0.727489

>  <RMSD>
2.862

$$$$
ligand
 OpenBabel11021811493D
libRbt.so/2013.1/901 2013/11/27
 11 12  0  0  0  0  0  0  0  0999 V2000
   12.4906   10.7521    8.7423 N   0  0  0  0  0  0  0  0  0  0  0  0
   12.3961    9.9750    7.6478 C   0  0  0  0  0  0  0  0  0  0  0  0
   12.7760    8.6428    7.7251 N   0  0  0  0  0  0  0  0  0  0  0  0
   11.9434   10.4597    6.4807 N   0  0  0  0  0  0  0  0  0  0  0  0
   11.5704   11.7431    6.3552 C   0  0  0  0  0  0  0  0  0  0  0  0
   11.6484   12.6034    7.4734 C   0  0  0  0  0  0  0  0  0  0  0  0
   12.1313   12.0530    8.7019 C   0  0  0  0  0  0  0  0  0  0  0  0
   12.2319   12.8314    9.8291 N   0  0  0  0  0  0  0  0  0  0  0  0
   11.2146   13.8314    7.0687 N   0  0  0  0  0  0  0  0  0  0  0  0
   10.8903   13.7771    5.8118 C   0  0  0  0  0  0  0  0  0  0  0  0
   11.0876   12.5101    5.3237 N   0  0  0  0  0  0  0  0  0  0  0  0
  1  7  2  0  0  0  0
  1  2  1  0  0  0  0
  2  3  1  0  0  0  0
  2  4  2  0  0  0  0
  4  5  1  0  0  0  0
  5  6  2  0  0  0  0
  5 11  1  0  0  0  0
  6  7  1  0  0  0  0
  6  9  1  0  0  0  0
  7  8  1  0  0  0  0
  9 10  1  0  0  0  0
 10 11  2  0  0  0  0
M  END
>  <CHROM.1>
11.86146245,11.72367476,7.39063371,-0.33664273,-1.20673088,0.77157773

>  <Name>
ligand

>  <RI>
0

>  <Rbt.Current_Directory>
/home/itssahil/PROJECTS/Mol_Feturizer/New_Systems/rnas/4FEO

>  <Rbt.Executable>
rbdock ($Id: //depot/dev/client3/rdock/2013.1/src/exe/rbdock.cxx#4 $)

>  <Rbt.Library>
libRbt.so (2013.1, Build901 2013/11/27)

>  <Rbt.Parameter_File>
/export/apps/rDock/src/rDock_2013.1_src/data/scripts/dock_solv.prm

>  <Rbt.Receptor>
prm/blind_docking_100.prm

>  <SCORE>
-9.89805

>  <SCORE.INTER>
-9.90234

>  <SCORE.INTER.CONST>
1

>  <SCORE.INTER.POLAR>
0

>  <SCORE.INTER.ROT>
0

>  <SCORE.INTER.SOLV>
17.4424

>  <SCORE.INTER.VDW>
-16.0157

>  <SCORE.INTER.norm>
-0.900213

>  <SCORE.INTRA>
0

>  <SCORE.INTRA.DIHEDRAL>
0

>  <SCORE.INTRA.DIHEDRAL.0>
0

>  <SCORE.INTRA.POLAR>
0

>  <SCORE.INTRA.POLAR.0>
0

>  <SCORE.INTRA.REPUL>
0

>  <SCORE.INTRA.REPUL.0>
0

>  <SCORE.INTRA.SOLV>
0

>  <SCORE.INTRA.SOLV.lig_0>
-48.9252

>  <SCORE.INTRA.VDW>
0

>  <SCORE.INTRA.VDW.0>
0

>  <SCORE.INTRA.norm>
0

>  <SCORE.RESTR>
0.00429346

>  <SCORE.RESTR.CAVITY>
0.00429346

>  <SCORE.RESTR.norm>
0.000390314

>  <SCORE.SYSTEM>
0

>  <SCORE.SYSTEM.CONST>
0

>  <SCORE.SYSTEM.DIHEDRAL>
0

>  <SCORE.SYSTEM.SOLV>
0

>  <SCORE.SYSTEM.norm>
0

>  <SCORE.heavy>
11

>  <SCORE.norm>
-0.899823

>  <RMSD>
2.863

$$$$
ligand
 OpenBabel11021811493D
libRbt.so/2013.1/901 2013/11/27
 11 12  0  0  0  0  0  0  0  0999 V2000
   12.0346   10.7775    8.6807 N   0  0  0  0  0  0  0  0  0  0  0  0
   12.2558    9.9228    7.6652 C   0  0  0  0  0  0  0  0  0  0  0  0
   12.7102    8.6414    7.9419 N   0  0  0  0  0  0  0  0  0  0  0  0
   12.0483   10.2820    6.3885 N   0  0  0  0  0  0  0  0  0  0  0  0
   11.6156   11.5124    6.0708 C   0  0  0  0  0  0  0  0  0  0  0  0
   11.3664   12.4498    7.0984 C   0  0  0  0  0  0  0  0  0  0  0  0
   11.5943   12.0324    8.4471 C   0  0  0  0  0  0  0  0  0  0  0  0
   11.3713   12.8911    9.4956 N   0  0  0  0  0  0  0  0  0  0  0  0
   10.9435   13.6005    6.5008 N   0  0  0  0  0  0  0  0  0  0  0  0
   10.9231   13.4306    5.2130 C   0  0  0  0  0  0  0  0  0  0  0  0
   11.3256   12.1583    4.8943 N   0  0  0  0  0  0  0  0  0  0  0  0
  1  7  2  0  0  0  0
  1  2  1  0  0  0  0
  2  3  1  0  0  0  0
  2  4  2  0  0  0  0
  4  5  1  0  0  0  0
  5  6  2  0  0  0  0
  5 11  1  0  0  0  0
  6  7  1  0  0  0  0
  6  9  1  0  0  0  0
  7  8  1  0  0  0  0
  9 10  1  0  0  0  0
 10 11  2  0  0  0  0
M  END
>  <CHROM.1>
11.66061915,11.59092367,7.14271833,0.39431509,-1.24038152,1.38365981

>  <Name>
ligand

>  <RI>
0

>  <Rbt.Current_Directory>
/home/itssahil/PROJECTS/Mol_Feturizer/New_Systems/rnas/4FEO

>  <Rbt.Executable>
rbdock ($Id: //depot/dev/client3/rdock/2013.1/src/exe/rbdock.cxx#4 $)

>  <Rbt.Library>
libRbt.so (2013.1, Build901 2013/11/27)

>  <Rbt.Parameter_File>
/export/apps/rDock/src/rDock_2013.1_src/data/scripts/dock_solv.prm

>  <Rbt.Receptor>
prm/blind_docking_20.prm

>  <SCORE>
-8.09687

>  <SCORE.INTER>
-8.65752

>  <SCORE.INTER.CONST>
1

>  <SCORE.INTER.POLAR>
0

>  <SCORE.INTER.ROT>
0

>  <SCORE.INTER.SOLV>
18.5197

>  <SCORE.INTER.VDW>
-15.5449

>  <SCORE.INTER.norm>
-0.787047

>  <SCORE.INTRA>
0

>  <SCORE.INTRA.DIHEDRAL>
0

>  <SCORE.INTRA.DIHEDRAL.0>
0

>  <SCORE.INTRA.POLAR>
0

>  <SCORE.INTRA.POLAR.0>
0

>  <SCORE.INTRA.REPUL>
0

>  <SCORE.INTRA.REPUL.0>
0

>  <SCORE.INTRA.SOLV>
0

>  <SCORE.INTRA.SOLV.lig_0>
-48.9252

>  <SCORE.INTRA.VDW>
0

>  <SCORE.INTRA.VDW.0>
0

>  <SCORE.INTRA.norm>
0

>  <SCORE.RESTR>
0.560648

>  <SCORE.RESTR.CAVITY>
0.560648

>  <SCORE.RESTR.norm>
0.050968

>  <SCORE.SYSTEM>
0

>  <SCORE.SYSTEM.CONST>
0

>  <SCORE.SYSTEM.DIHEDRAL>
0

>  <SCORE.SYSTEM.SOLV>
0

>  <SCORE.SYSTEM.norm>
0

>  <SCORE.heavy>
11

>  <SCORE.norm>
-0.736079

>  <RMSD>
2.864

$$$$
ligand
 OpenBabel11021811493D
libRbt.so/2013.1/901 2013/11/27
 11 12  0  0  0  0  0  0  0  0999 V2000
   12.0248   10.7730    8.6840 N   0  0  0  0  0  0  0  0  0  0  0  0
   12.2525    9.9200    7.6685 C   0  0  0  0  0  0  0  0  0  0  0  0
   12.7032    8.6374    7.9460 N   0  0  0  0  0  0  0  0  0  0  0  0
   12.0548   10.2819    6.3910 N   0  0  0  0  0  0  0  0  0  0  0  0
   11.6260   11.5135    6.0726 C   0  0  0  0  0  0  0  0  0  0  0  0
   11.3704   12.4492    7.1001 C   0  0  0  0  0  0  0  0  0  0  0  0
   11.5877   12.0288    8.4497 C   0  0  0  0  0  0  0  0  0  0  0  0
   11.3581   12.8858    9.4981 N   0  0  0  0  0  0  0  0  0  0  0  0
   10.9533   13.6015    6.5017 N   0  0  0  0  0  0  0  0  0  0  0  0
   10.9421   13.4342    5.2134 C   0  0  0  0  0  0  0  0  0  0  0  0
   11.3455   12.1620    4.8952 N   0  0  0  0  0  0  0  0  0  0  0  0
  1  7  2  0  0  0  0
  1  2  1  0  0  0  0
  2  3  1  0  0  0  0
  2  4  2  0  0  0  0
  4  5  1  0  0  0  0
  5  6  2  0  0  0  0
  5 11  1  0  0  0  0
  6  7  1  0  0  0  0
  6  9  1  0  0  0  0
  7  8  1  0  0  0  0
  9 10  1  0  0  0  0
 10 11  2  0  0  0  0
M  END
>  <CHROM.1>
11.66318967,11.58984820,7.14493603,0.41610883,-1.24287978,1.40624720

>  <Name>
ligand

>  <RI>
0

>  <Rbt.Current_Directory>
/home/itssahil/PROJECTS/Mol_Feturizer/New_Systems/rnas/4FEO

>  <Rbt.Executable>
rbdock ($Id: //depot/dev/client3/rdock/2013.1/src/exe/rbdock.cxx#4 $)

>  <Rbt.Library>
libRbt.so (2013.1, Build901 2013/11/27)

>  <Rbt.Parameter_File>
/export/apps/rDock/src/rDock_2013.1_src/data/scripts/dock_solv.prm

>  <Rbt.Receptor>
prm/blind_docking_20.prm

>  <SCORE>
-8.07886

>  <SCORE.INTER>
-8.64039

>  <SCORE.INTER.CONST>
1

>  <SCORE.INTER.POLAR>
0

>  <SCORE.INTER.ROT>
0

>  <SCORE.INTER.SOLV>
18.5828

>  <SCORE.INTER.VDW>
-15.5545

>  <SCORE.INTER.norm>
-0.78549

>  <SCORE.INTRA>
0

>  <SCORE.INTRA.DIHEDRAL>
0

>  <SCORE.INTRA.DIHEDRAL.0>
0

>  <SCORE.INTRA.POLAR>
0

>  <SCORE.INTRA.POLAR.0>
0

>  <SCORE.INTRA.REPUL>
0

>  <SCORE.INTRA.REPUL.0>
0

>  <SCORE.INTRA.SOLV>
0

>  <SCORE.INTRA.SOLV.lig_0>
-48.9252

>  <SCORE.INTRA.VDW>
0

>  <SCORE.INTRA.VDW.0>
0

>  <SCORE.INTRA.norm>
0

>  <SCORE.RESTR>
0.561536

>  <SCORE.RESTR.CAVITY>
0.561536

>  <SCORE.RESTR.norm>
0.0510488

>  <SCORE.SYSTEM>
0

>  <SCORE.SYSTEM.CONST>
0

>  <SCORE.SYSTEM.DIHEDRAL>
0

>  <SCORE.SYSTEM.SOLV>
0

>  <SCORE.SYSTEM.norm>
0

>  <SCORE.heavy>
11

>  <SCORE.norm>
-0.734442

>  <RMSD>
2.864

$$$$
ligand
 OpenBabel11021811493D
libRbt.so/2013.1/901 2013/11/27
 11 12  0  0  0  0  0  0  0  0999 V2000
   12.0285   10.7753    8.6816 N   0  0  0  0  0  0  0  0  0  0  0  0
   12.2547    9.9215    7.6664 C   0  0  0  0  0  0  0  0  0  0  0  0
   12.7083    8.6400    7.9441 N   0  0  0  0  0  0  0  0  0  0  0  0
   12.0527   10.2817    6.3891 N   0  0  0  0  0  0  0  0  0  0  0  0
   11.6210   11.5122    6.0704 C   0  0  0  0  0  0  0  0  0  0  0  0
   11.3668   12.4486    7.0976 C   0  0  0  0  0  0  0  0  0  0  0  0
   11.5888   12.0302    8.4470 C   0  0  0  0  0  0  0  0  0  0  0  0
   11.3608   12.8880    9.4952 N   0  0  0  0  0  0  0  0  0  0  0  0
   10.9462   13.5996    6.4991 N   0  0  0  0  0  0  0  0  0  0  0  0
   10.9316   13.4308    5.2110 C   0  0  0  0  0  0  0  0  0  0  0  0
   11.3361   12.1589    4.8932 N   0  0  0  0  0  0  0  0  0  0  0  0
  1  7  2  0  0  0  0
  1  2  1  0  0  0  0
  2  3  1  0  0  0  0
  2  4  2  0  0  0  0
  4  5  1  0  0  0  0
  5  6  2  0  0  0  0
  5 11  1  0  0  0  0
  6  7  1  0  0  0  0
  6  9  1  0  0  0  0
  7  8  1  0  0  0  0
  9 10  1  0  0  0  0
 10 11  2  0  0  0  0
M  END
>  <CHROM.1>
11.66115811,11.58982383,7.14259792,0.40817799,-1.24081363,1.39758179

>  <Name>
ligand

>  <RI>
0

>  <Rbt.Current_Directory>
/home/itssahil/PROJECTS/Mol_Feturizer/New_Systems/rnas/4FEO

>  <Rbt.Executable>
rbdock ($Id: //depot/dev/client3/rdock/2013.1/src/exe/rbdock.cxx#4 $)

>  <Rbt.Library>
libRbt.so (2013.1, Build901 2013/11/27)

>  <Rbt.Parameter_File>
/export/apps/rDock/src/rDock_2013.1_src/data/scripts/dock_solv.prm

>  <Rbt.Receptor>
prm/blind_docking_20.prm

>  <SCORE>
-8.07842

>  <SCORE.INTER>
-8.6365

>  <SCORE.INTER.CONST>
1

>  <SCORE.INTER.POLAR>
0

>  <SCORE.INTER.ROT>
0

>  <SCORE.INTER.SOLV>
18.5517

>  <SCORE.INTER.VDW>
-15.5416

>  <SCORE.INTER.norm>
-0.785136

>  <SCORE.INTRA>
0

>  <SCORE.INTRA.DIHEDRAL>
0

>  <SCORE.INTRA.DIHEDRAL.0>
0

>  <SCORE.INTRA.POLAR>
0

>  <SCORE.INTRA.POLAR.0>
0

>  <SCORE.INTRA.REPUL>
0

>  <SCORE.INTRA.REPUL.0>
0

>  <SCORE.INTRA.SOLV>
0

>  <SCORE.INTRA.SOLV.lig_0>
-48.9252

>  <SCORE.INTRA.VDW>
0

>  <SCORE.INTRA.VDW.0>
0

>  <SCORE.INTRA.norm>
0

>  <SCORE.RESTR>
0.558077

>  <SCORE.RESTR.CAVITY>
0.558077

>  <SCORE.RESTR.norm>
0.0507343

>  <SCORE.SYSTEM>
0

>  <SCORE.SYSTEM.CONST>
0

>  <SCORE.SYSTEM.DIHEDRAL>
0

>  <SCORE.SYSTEM.SOLV>
0

>  <SCORE.SYSTEM.norm>
0

>  <SCORE.heavy>
11

>  <SCORE.norm>
-0.734402

>  <RMSD>
2.864

$$$$
ligand
 OpenBabel11021811493D
libRbt.so/2013.1/901 2013/11/27
 11 12  0  0  0  0  0  0  0  0999 V2000
   12.0263   10.7755    8.6807 N   0  0  0  0  0  0  0  0  0  0  0  0
   12.2530    9.9230    7.6645 C   0  0  0  0  0  0  0  0  0  0  0  0
   12.7110    8.6427    7.9405 N   0  0  0  0  0  0  0  0  0  0  0  0
   12.0475   10.2834    6.3878 N   0  0  0  0  0  0  0  0  0  0  0  0
   11.6114   11.5129    6.0709 C   0  0  0  0  0  0  0  0  0  0  0  0
   11.3565   12.4479    7.0992 C   0  0  0  0  0  0  0  0  0  0  0  0
   11.5823   12.0292    8.4479 C   0  0  0  0  0  0  0  0  0  0  0  0
   11.3538   12.8856    9.4971 N   0  0  0  0  0  0  0  0  0  0  0  0
   10.9312   13.5980    6.5023 N   0  0  0  0  0  0  0  0  0  0  0  0
   10.9146   13.4300    5.2141 C   0  0  0  0  0  0  0  0  0  0  0  0
   11.3223   12.1595    4.8946 N   0  0  0  0  0  0  0  0  0  0  0  0
  1  7  2  0  0  0  0
  1  2  1  0  0  0  0
  2  3  1  0  0  0  0
  2  4  2  0  0  0  0
  4  5  1  0  0  0  0
  5  6  2  0  0  0  0
  5 11  1  0  0  0  0
  6  7  1  0  0  0  0
  6  9  1  0  0  0  0
  7  8  1  0  0  0  0
  9 10  1  0  0  0  0
 10 11  2  0  0  0  0
M  END
>  <CHROM.1>
11.65346716,11.58992270,7.14302273,0.40390117,-1.23750750,1.39422164

>  <Name>
ligand

>  <RI>
0

>  <Rbt.Current_Directory>
/home/itssahil/PROJECTS/Mol_Feturizer/New_Systems/rnas/4FEO

>  <Rbt.Executable>
rbdock ($Id: //depot/dev/client3/rdock/2013.1/src/exe/rbdock.cxx#4 $)

>  <Rbt.Library>
libRbt.so (2013.1, Build901 2013/11/27)

>  <Rbt.Parameter_File>
/export/apps/rDock/src/rDock_2013.1_src/data/scripts/dock_solv.prm

>  <Rbt.Receptor>
prm/blind_docking_20.prm

>  <SCORE>
-8.07841

>  <SCORE.INTER>
-8.63651

>  <SCORE.INTER.CONST>
1

>  <SCORE.INTER.POLAR>
0

>  <SCORE.INTER.ROT>
0

>  <SCORE.INTER.SOLV>
18.5544

>  <SCORE.INTER.VDW>
-15.5425

>  <SCORE.INTER.norm>
-0.785137

>  <SCORE.INTRA>
0

>  <SCORE.INTRA.DIHEDRAL>
0

>  <SCORE.INTRA.DIHEDRAL.0>
0

>  <SCORE.INTRA.POLAR>
0

>  <SCORE.INTRA.POLAR.0>
0

>  <SCORE.INTRA.REPUL>
0

>  <SCORE.INTRA.REPUL.0>
0

>  <SCORE.INTRA.SOLV>
0

>  <SCORE.INTRA.SOLV.lig_0>
-48.9252

>  <SCORE.INTRA.VDW>
0

>  <SCORE.INTRA.VDW.0>
0

>  <SCORE.INTRA.norm>
0

>  <SCORE.RESTR>
0.558103

>  <SCORE.RESTR.CAVITY>
0.558103

>  <SCORE.RESTR.norm>
0.0507366

>  <SCORE.SYSTEM>
0

>  <SCORE.SYSTEM.CONST>
0

>  <SCORE.SYSTEM.DIHEDRAL>
0

>  <SCORE.SYSTEM.SOLV>
0

>  <SCORE.SYSTEM.norm>
0

>  <SCORE.heavy>
11

>  <SCORE.norm>
-0.734401

>  <RMSD>
2.864

$$$$
ligand
 OpenBabel11021811493D
libRbt.so/2013.1/901 2013/11/27
 11 12  0  0  0  0  0  0  0  0999 V2000
   12.0942   10.7738    8.6824 N   0  0  0  0  0  0  0  0  0  0  0  0
   12.2655    9.9052    7.6691 C   0  0  0  0  0  0  0  0  0  0  0  0
   12.7031    8.6176    7.9441 N   0  0  0  0  0  0  0  0  0  0  0  0
   12.0240   10.2563    6.3962 N   0  0  0  0  0  0  0  0  0  0  0  0
   11.6057   11.4921    6.0800 C   0  0  0  0  0  0  0  0  0  0  0  0
   11.4084   12.4441    7.1055 C   0  0  0  0  0  0  0  0  0  0  0  0
   11.6714   12.0350    8.4504 C   0  0  0  0  0  0  0  0  0  0  0  0
   11.4994   12.9080    9.4967 N   0  0  0  0  0  0  0  0  0  0  0  0
   10.9893   13.5973    6.5102 N   0  0  0  0  0  0  0  0  0  0  0  0
   10.9239   13.4156    5.2254 C   0  0  0  0  0  0  0  0  0  0  0  0
   11.2907   12.1325    4.9069 N   0  0  0  0  0  0  0  0  0  0  0  0
  1  7  2  0  0  0  0
  1  2  1  0  0  0  0
  2  3  1  0  0  0  0
  2  4  2  0  0  0  0
  4  5  1  0  0  0  0
  5  6  2  0  0  0  0
  5 11  1  0  0  0  0
  6  7  1  0  0  0  0
  6  9  1  0  0  0  0
  7  8  1  0  0  0  0
  9 10  1  0  0  0  0
 10 11  2  0  0  0  0
M  END
>  <CHROM.1>
11.68685807,11.57992299,7.14908841,0.28114306,-1.25191342,1.26654205

>  <Name>
ligand

>  <RI>
0

>  <Rbt.Current_Directory>
/home/itssahil/PROJECTS/Mol_Feturizer/New_Systems/rnas/4FEO

>  <Rbt.Executable>
rbdock ($Id: //depot/dev/client3/rdock/2013.1/src/exe/rbdock.cxx#4 $)

>  <Rbt.Library>
libRbt.so (2013.1, Build901 2013/11/27)

>  <Rbt.Parameter_File>
/export/apps/rDock/src/rDock_2013.1_src/data/scripts/dock_solv.prm

>  <Rbt.Receptor>
prm/blind_docking_20.prm

>  <SCORE>
-8.08666

>  <SCORE.INTER>
-8.65917

>  <SCORE.INTER.CONST>
1

>  <SCORE.INTER.POLAR>
0

>  <SCORE.INTER.ROT>
0

>  <SCORE.INTER.SOLV>
18.3308

>  <SCORE.INTER.VDW>
-15.483

>  <SCORE.INTER.norm>
-0.787197

>  <SCORE.INTRA>
0

>  <SCORE.INTRA.DIHEDRAL>
0

>  <SCORE.INTRA.DIHEDRAL.0>
0

>  <SCORE.INTRA.POLAR>
0

>  <SCORE.INTRA.POLAR.0>
0

>  <SCORE.INTRA.REPUL>
0

>  <SCORE.INTRA.REPUL.0>
0

>  <SCORE.INTRA.SOLV>
0

>  <SCORE.INTRA.SOLV.lig_0>
-48.9252

>  <SCORE.INTRA.VDW>
0

>  <SCORE.INTRA.VDW.0>
0

>  <SCORE.INTRA.norm>
0

>  <SCORE.RESTR>
0.572508

>  <SCORE.RESTR.CAVITY>
0.572508

>  <SCORE.RESTR.norm>
0.0520462

>  <SCORE.SYSTEM>
0

>  <SCORE.SYSTEM.CONST>
0

>  <SCORE.SYSTEM.DIHEDRAL>
0

>  <SCORE.SYSTEM.SOLV>
0

>  <SCORE.SYSTEM.norm>
0

>  <SCORE.heavy>
11

>  <SCORE.norm>
-0.735151

>  <RMSD>
2.864

$$$$
ligand
 OpenBabel11021811493D
libRbt.so/2013.1/901 2013/11/27
 11 12  0  0  0  0  0  0  0  0999 V2000
   12.4597   10.7316    8.7624 N   0  0  0  0  0  0  0  0  0  0  0  0
   12.3981    9.9650    7.6582 C   0  0  0  0  0  0  0  0  0  0  0  0
   12.7929    8.6368    7.7297 N   0  0  0  0  0  0  0  0  0  0  0  0
   11.9643   10.4565    6.4868 N   0  0  0  0  0  0  0  0  0  0  0  0
   11.5780   11.7366    6.3666 C   0  0  0  0  0  0  0  0  0  0  0  0
   11.6216   12.5858    7.4951 C   0  0  0  0  0  0  0  0  0  0  0  0
   12.0852   12.0284    8.7278 C   0  0  0  0  0  0  0  0  0  0  0  0
   12.1522   12.7959    9.8649 N   0  0  0  0  0  0  0  0  0  0  0  0
   11.1813   13.8127    7.0939 N   0  0  0  0  0  0  0  0  0  0  0  0
   10.8843   13.7677    5.8299 C   0  0  0  0  0  0  0  0  0  0  0  0
   11.1077   12.5085    5.3331 N   0  0  0  0  0  0  0  0  0  0  0  0
  1  7  2  0  0  0  0
  1  2  1  0  0  0  0
  2  3  1  0  0  0  0
  2  4  2  0  0  0  0
  4  5  1  0  0  0  0
  5  6  2  0  0  0  0
  5 11  1  0  0  0  0
  6  7  1  0  0  0  0
  6  9  1  0  0  0  0
  7  8  1  0  0  0  0
  9 10  1  0  0  0  0
 10 11  2  0  0  0  0
M  END
>  <CHROM.1>
11.84733555,11.70970483,7.40777491,-0.26900129,-1.21249146,0.84535392

>  <Name>
ligand

>  <RI>
0

>  <Rbt.Current_Directory>
/home/itssahil/PROJECTS/Mol_Feturizer/New_Systems/rnas/4FEO

>  <Rbt.Executable>
rbdock ($Id: //depot/dev/client3/rdock/2013.1/src/exe/rbdock.cxx#4 $)

>  <Rbt.Library>
libRbt.so (2013.1, Build901 2013/11/27)

>  <Rbt.Parameter_File>
/export/apps/rDock/src/rDock_2013.1_src/data/scripts/dock_solv.prm

>  <Rbt.Receptor>
prm/blind_docking_100.prm

>  <SCORE>
-9.86127

>  <SCORE.INTER>
-9.86127

>  <SCORE.INTER.CONST>
1

>  <SCORE.INTER.POLAR>
0

>  <SCORE.INTER.ROT>
0

>  <SCORE.INTER.SOLV>
17.4358

>  <SCORE.INTER.VDW>
-15.9861

>  <SCORE.INTER.norm>
-0.896479

>  <SCORE.INTRA>
0

>  <SCORE.INTRA.DIHEDRAL>
0

>  <SCORE.INTRA.DIHEDRAL.0>
0

>  <SCORE.INTRA.POLAR>
0

>  <SCORE.INTRA.POLAR.0>
0

>  <SCORE.INTRA.REPUL>
0

>  <SCORE.INTRA.REPUL.0>
0

>  <SCORE.INTRA.SOLV>
0

>  <SCORE.INTRA.SOLV.lig_0>
-48.9252

>  <SCORE.INTRA.VDW>
0

>  <SCORE.INTRA.VDW.0>
0

>  <SCORE.INTRA.norm>
0

>  <SCORE.RESTR>
0

>  <SCORE.RESTR.CAVITY>
0

>  <SCORE.RESTR.norm>
0

>  <SCORE.SYSTEM>
0

>  <SCORE.SYSTEM.CONST>
0

>  <SCORE.SYSTEM.DIHEDRAL>
0

>  <SCORE.SYSTEM.SOLV>
0

>  <SCORE.SYSTEM.norm>
0

>  <SCORE.heavy>
11

>  <SCORE.norm>
-0.896479

>  <RMSD>
2.865

$$$$
ligand
 OpenBabel11021811493D
libRbt.so/2013.1/901 2013/11/27
 11 12  0  0  0  0  0  0  0  0999 V2000
   12.0471   10.7684    8.6849 N   0  0  0  0  0  0  0  0  0  0  0  0
   12.2559    9.9109    7.6691 C   0  0  0  0  0  0  0  0  0  0  0  0
   12.7065    8.6278    7.9444 N   0  0  0  0  0  0  0  0  0  0  0  0
   12.0395   10.2689    6.3936 N   0  0  0  0  0  0  0  0  0  0  0  0
   11.6100   11.5008    6.0773 C   0  0  0  0  0  0  0  0  0  0  0  0
   11.3737   12.4411    7.1052 C   0  0  0  0  0  0  0  0  0  0  0  0
   11.6108   12.0250    8.4528 C   0  0  0  0  0  0  0  0  0  0  0  0
   11.4005   12.8866    9.5015 N   0  0  0  0  0  0  0  0  0  0  0  0
   10.9514   13.5927    6.5092 N   0  0  0  0  0  0  0  0  0  0  0  0
   10.9194   13.4207    5.2218 C   0  0  0  0  0  0  0  0  0  0  0  0
   11.3133   12.1460    4.9021 N   0  0  0  0  0  0  0  0  0  0  0  0
  1  7  2  0  0  0  0
  1  2  1  0  0  0  0
  2  3  1  0  0  0  0
  2  4  2  0  0  0  0
  4  5  1  0  0  0  0
  5  6  2  0  0  0  0
  5 11  1  0  0  0  0
  6  7  1  0  0  0  0
  6  9  1  0  0  0  0
  7  8  1  0  0  0  0
  9 10  1  0  0  0  0
 10 11  2  0  0  0  0
M  END
>  <CHROM.1>
11.66425095,11.58093959,7.14866825,0.36631480,-1.24335068,1.35540375

>  <Name>
ligand

>  <RI>
0

>  <Rbt.Current_Directory>
/home/itssahil/PROJECTS/Mol_Feturizer/New_Systems/rnas/4FEO

>  <Rbt.Executable>
rbdock ($Id: //depot/dev/client3/rdock/2013.1/src/exe/rbdock.cxx#4 $)

>  <Rbt.Library>
libRbt.so (2013.1, Build901 2013/11/27)

>  <Rbt.Parameter_File>
/export/apps/rDock/src/rDock_2013.1_src/data/scripts/dock_solv.prm

>  <Rbt.Receptor>
prm/blind_docking_20.prm

>  <SCORE>
-8.04951

>  <SCORE.INTER>
-8.61093

>  <SCORE.INTER.CONST>
1

>  <SCORE.INTER.POLAR>
0

>  <SCORE.INTER.ROT>
0

>  <SCORE.INTER.SOLV>
18.488

>  <SCORE.INTER.VDW>
-15.5033

>  <SCORE.INTER.norm>
-0.782812

>  <SCORE.INTRA>
0

>  <SCORE.INTRA.DIHEDRAL>
0

>  <SCORE.INTRA.DIHEDRAL.0>
0

>  <SCORE.INTRA.POLAR>
0

>  <SCORE.INTRA.POLAR.0>
0

>  <SCORE.INTRA.REPUL>
0

>  <SCORE.INTRA.REPUL.0>
0

>  <SCORE.INTRA.SOLV>
0

>  <SCORE.INTRA.SOLV.lig_0>
-48.9252

>  <SCORE.INTRA.VDW>
0

>  <SCORE.INTRA.VDW.0>
0

>  <SCORE.INTRA.norm>
0

>  <SCORE.RESTR>
0.561424

>  <SCORE.RESTR.CAVITY>
0.561424

>  <SCORE.RESTR.norm>
0.0510385

>  <SCORE.SYSTEM>
0

>  <SCORE.SYSTEM.CONST>
0

>  <SCORE.SYSTEM.DIHEDRAL>
0

>  <SCORE.SYSTEM.SOLV>
0

>  <SCORE.SYSTEM.norm>
0

>  <SCORE.heavy>
11

>  <SCORE.norm>
-0.731774

>  <RMSD>
2.865

$$$$
ligand
 OpenBabel11021811493D
libRbt.so/2013.1/901 2013/11/27
 11 12  0  0  0  0  0  0  0  0999 V2000
   12.0875   10.7734    8.6777 N   0  0  0  0  0  0  0  0  0  0  0  0
   12.2542    9.9028    7.6653 C   0  0  0  0  0  0  0  0  0  0  0  0
   12.6897    8.6147    7.9412 N   0  0  0  0  0  0  0  0  0  0  0  0
   12.0101   10.2525    6.3924 N   0  0  0  0  0  0  0  0  0  0  0  0
   11.5938   11.4887    6.0755 C   0  0  0  0  0  0  0  0  0  0  0  0
   11.4014   12.4427    7.0999 C   0  0  0  0  0  0  0  0  0  0  0  0
   11.6670   12.0352    8.4448 C   0  0  0  0  0  0  0  0  0  0  0  0
   11.4998   12.9102    9.4901 N   0  0  0  0  0  0  0  0  0  0  0  0
   10.9833   13.5959    6.5039 N   0  0  0  0  0  0  0  0  0  0  0  0
   10.9141   13.4124    5.2196 C   0  0  0  0  0  0  0  0  0  0  0  0
   11.2771   12.1280    4.9022 N   0  0  0  0  0  0  0  0  0  0  0  0
  1  7  2  0  0  0  0
  1  2  1  0  0  0  0
  2  3  1  0  0  0  0
  2  4  2  0  0  0  0
  4  5  1  0  0  0  0
  5  6  2  0  0  0  0
  5 11  1  0  0  0  0
  6  7  1  0  0  0  0
  6  9  1  0  0  0  0
  7  8  1  0  0  0  0
  9 10  1  0  0  0  0
 10 11  2  0  0  0  0
M  END
>  <CHROM.1>
11.67797820,11.57801774,7.14416395,0.27080700,-1.25326017,1.25515093

>  <Name>
ligand

>  <RI>
0

>  <Rbt.Current_Directory>
/home/itssahil/PROJECTS/Mol_Feturizer/New_Systems/rnas/4FEO

>  <Rbt.Executable>
rbdock ($Id: //depot/dev/client3/rdock/2013.1/src/exe/rbdock.cxx#4 $)

>  <Rbt.Library>
libRbt.so (2013.1, Build901 2013/11/27)

>  <Rbt.Parameter_File>
/export/apps/rDock/src/rDock_2013.1_src/data/scripts/dock_solv.prm

>  <Rbt.Receptor>
prm/blind_docking_20.prm

>  <SCORE>
-8.07074

>  <SCORE.INTER>
-8.63553

>  <SCORE.INTER.CONST>
1

>  <SCORE.INTER.POLAR>
0

>  <SCORE.INTER.ROT>
0

>  <SCORE.INTER.SOLV>
18.3351

>  <SCORE.INTER.VDW>
-15.4687

>  <SCORE.INTER.norm>
-0.785049

>  <SCORE.INTRA>
0

>  <SCORE.INTRA.DIHEDRAL>
0

>  <SCORE.INTRA.DIHEDRAL.0>
0

>  <SCORE.INTRA.POLAR>
0

>  <SCORE.INTRA.POLAR.0>
0

>  <SCORE.INTRA.REPUL>
0

>  <SCORE.INTRA.REPUL.0>
0

>  <SCORE.INTRA.SOLV>
0

>  <SCORE.INTRA.SOLV.lig_0>
-48.9252

>  <SCORE.INTRA.VDW>
0

>  <SCORE.INTRA.VDW.0>
0

>  <SCORE.INTRA.norm>
0

>  <SCORE.RESTR>
0.564792

>  <SCORE.RESTR.CAVITY>
0.564792

>  <SCORE.RESTR.norm>
0.0513447

>  <SCORE.SYSTEM>
0

>  <SCORE.SYSTEM.CONST>
0

>  <SCORE.SYSTEM.DIHEDRAL>
0

>  <SCORE.SYSTEM.SOLV>
0

>  <SCORE.SYSTEM.norm>
0

>  <SCORE.heavy>
11

>  <SCORE.norm>
-0.733704

>  <RMSD>
2.865

$$$$
ligand
 OpenBabel11021811493D
libRbt.so/2013.1/901 2013/11/27
 11 12  0  0  0  0  0  0  0  0999 V2000
   12.0385   10.7684    8.6842 N   0  0  0  0  0  0  0  0  0  0  0  0
   12.2432    9.9097    7.6686 C   0  0  0  0  0  0  0  0  0  0  0  0
   12.6911    8.6256    7.9439 N   0  0  0  0  0  0  0  0  0  0  0  0
   12.0252   10.2673    6.3933 N   0  0  0  0  0  0  0  0  0  0  0  0
   11.5982   11.5000    6.0769 C   0  0  0  0  0  0  0  0  0  0  0  0
   11.3663   12.4417    7.1046 C   0  0  0  0  0  0  0  0  0  0  0  0
   11.6048   12.0259    8.4520 C   0  0  0  0  0  0  0  0  0  0  0  0
   11.3988   12.8887    9.5005 N   0  0  0  0  0  0  0  0  0  0  0  0
   10.9457   13.5939    6.5085 N   0  0  0  0  0  0  0  0  0  0  0  0
   10.9108   13.4211    5.2214 C   0  0  0  0  0  0  0  0  0  0  0  0
   11.3009   12.1451    4.9018 N   0  0  0  0  0  0  0  0  0  0  0  0
  1  7  2  0  0  0  0
  1  2  1  0  0  0  0
  2  3  1  0  0  0  0
  2  4  2  0  0  0  0
  4  5  1  0  0  0  0
  5  6  2  0  0  0  0
  5 11  1  0  0  0  0
  6  7  1  0  0  0  0
  6  9  1  0  0  0  0
  7  8  1  0  0  0  0
  9 10  1  0  0  0  0
 10 11  2  0  0  0  0
M  END
>  <CHROM.1>
11.65472202,11.58078314,7.14810862,0.35879037,-1.24538531,1.34757116

>  <Name>
ligand

>  <RI>
0

>  <Rbt.Current_Directory>
/home/itssahil/PROJECTS/Mol_Feturizer/New_Systems/rnas/4FEO

>  <Rbt.Executable>
rbdock ($Id: //depot/dev/client3/rdock/2013.1/src/exe/rbdock.cxx#4 $)

>  <Rbt.Library>
libRbt.so (2013.1, Build901 2013/11/27)

>  <Rbt.Parameter_File>
/export/apps/rDock/src/rDock_2013.1_src/data/scripts/dock_solv.prm

>  <Rbt.Receptor>
prm/blind_docking_20.prm

>  <SCORE>
-8.04863

>  <SCORE.INTER>
-8.6101

>  <SCORE.INTER.CONST>
1

>  <SCORE.INTER.POLAR>
0

>  <SCORE.INTER.ROT>
0

>  <SCORE.INTER.SOLV>
18.5251

>  <SCORE.INTER.VDW>
-15.5151

>  <SCORE.INTER.norm>
-0.782736

>  <SCORE.INTRA>
0

>  <SCORE.INTRA.DIHEDRAL>
0

>  <SCORE.INTRA.DIHEDRAL.0>
0

>  <SCORE.INTRA.POLAR>
0

>  <SCORE.INTRA.POLAR.0>
0

>  <SCORE.INTRA.REPUL>
0

>  <SCORE.INTRA.REPUL.0>
0

>  <SCORE.INTRA.SOLV>
0

>  <SCORE.INTRA.SOLV.lig_0>
-48.9252

>  <SCORE.INTRA.VDW>
0

>  <SCORE.INTRA.VDW.0>
0

>  <SCORE.INTRA.norm>
0

>  <SCORE.RESTR>
0.561467

>  <SCORE.RESTR.CAVITY>
0.561467

>  <SCORE.RESTR.norm>
0.0510425

>  <SCORE.SYSTEM>
0

>  <SCORE.SYSTEM.CONST>
0

>  <SCORE.SYSTEM.DIHEDRAL>
0

>  <SCORE.SYSTEM.SOLV>
0

>  <SCORE.SYSTEM.norm>
0

>  <SCORE.heavy>
11

>  <SCORE.norm>
-0.731694

>  <RMSD>
2.865

$$$$
ligand
 OpenBabel11021811493D
libRbt.so/2013.1/901 2013/11/27
 11 12  0  0  0  0  0  0  0  0999 V2000
   12.0205   10.7717    8.6826 N   0  0  0  0  0  0  0  0  0  0  0  0
   12.2515    9.9199    7.6669 C   0  0  0  0  0  0  0  0  0  0  0  0
   12.7042    8.6381    7.9443 N   0  0  0  0  0  0  0  0  0  0  0  0
   12.0552   10.2825    6.3894 N   0  0  0  0  0  0  0  0  0  0  0  0
   11.6245   11.5134    6.0711 C   0  0  0  0  0  0  0  0  0  0  0  0
   11.3654   12.4479    7.0989 C   0  0  0  0  0  0  0  0  0  0  0  0
   11.5814   12.0269    8.4485 C   0  0  0  0  0  0  0  0  0  0  0  0
   11.3484   12.8827    9.4973 N   0  0  0  0  0  0  0  0  0  0  0  0
   10.9472   13.5999    6.5007 N   0  0  0  0  0  0  0  0  0  0  0  0
   10.9384   13.4335    5.2122 C   0  0  0  0  0  0  0  0  0  0  0  0
   11.3447   12.1623    4.8938 N   0  0  0  0  0  0  0  0  0  0  0  0
  1  7  2  0  0  0  0
  1  2  1  0  0  0  0
  2  3  1  0  0  0  0
  2  4  2  0  0  0  0
  4  5  1  0  0  0  0
  5  6  2  0  0  0  0
  5 11  1  0  0  0  0
  6  7  1  0  0  0  0
  6  9  1  0  0  0  0
  7  8  1  0  0  0  0
  9 10  1  0  0  0  0
 10 11  2  0  0  0  0
M  END
>  <CHROM.1>
11.65981711,11.58907733,7.14360016,0.42212964,-1.24125909,1.41268500

>  <Name>
ligand

>  <RI>
0

>  <Rbt.Current_Directory>
/home/itssahil/PROJECTS/Mol_Feturizer/New_Systems/rnas/4FEO

>  <Rbt.Executable>
rbdock ($Id: //depot/dev/client3/rdock/2013.1/src/exe/rbdock.cxx#4 $)

>  <Rbt.Library>
libRbt.so (2013.1, Build901 2013/11/27)

>  <Rbt.Parameter_File>
/export/apps/rDock/src/rDock_2013.1_src/data/scripts/dock_solv.prm

>  <Rbt.Receptor>
prm/blind_docking_20.prm

>  <SCORE>
-8.06387

>  <SCORE.INTER>
-8.62124

>  <SCORE.INTER.CONST>
1

>  <SCORE.INTER.POLAR>
0

>  <SCORE.INTER.ROT>
0

>  <SCORE.INTER.SOLV>
18.5942

>  <SCORE.INTER.VDW>
-15.5456

>  <SCORE.INTER.norm>
-0.783749

>  <SCORE.INTRA>
0

>  <SCORE.INTRA.DIHEDRAL>
0

>  <SCORE.INTRA.DIHEDRAL.0>
0

>  <SCORE.INTRA.POLAR>
0

>  <SCORE.INTRA.POLAR.0>
0

>  <SCORE.INTRA.REPUL>
0

>  <SCORE.INTRA.REPUL.0>
0

>  <SCORE.INTRA.SOLV>
0

>  <SCORE.INTRA.SOLV.lig_0>
-48.9252

>  <SCORE.INTRA.VDW>
0

>  <SCORE.INTRA.VDW.0>
0

>  <SCORE.INTRA.norm>
0

>  <SCORE.RESTR>
0.55737

>  <SCORE.RESTR.CAVITY>
0.55737

>  <SCORE.RESTR.norm>
0.05067

>  <SCORE.SYSTEM>
0

>  <SCORE.SYSTEM.CONST>
0

>  <SCORE.SYSTEM.DIHEDRAL>
0

>  <SCORE.SYSTEM.SOLV>
0

>  <SCORE.SYSTEM.norm>
0

>  <SCORE.heavy>
11

>  <SCORE.norm>
-0.733079

>  <RMSD>
2.865

$$$$
ligand
 OpenBabel11021811493D
libRbt.so/2013.1/901 2013/11/27
 11 12  0  0  0  0  0  0  0  0999 V2000
   12.0819   10.7723    8.6804 N   0  0  0  0  0  0  0  0  0  0  0  0
   12.2585    9.9046    7.6671 C   0  0  0  0  0  0  0  0  0  0  0  0
   12.6985    8.6180    7.9428 N   0  0  0  0  0  0  0  0  0  0  0  0
   12.0198   10.2558    6.3936 N   0  0  0  0  0  0  0  0  0  0  0  0
   11.5994   11.4907    6.0769 C   0  0  0  0  0  0  0  0  0  0  0  0
   11.3967   12.4417    7.1022 C   0  0  0  0  0  0  0  0  0  0  0  0
   11.6567   12.0326    8.4477 C   0  0  0  0  0  0  0  0  0  0  0  0
   11.4795   12.9046    9.4939 N   0  0  0  0  0  0  0  0  0  0  0  0
   10.9765   13.5941    6.5062 N   0  0  0  0  0  0  0  0  0  0  0  0
   10.9154   13.4129    5.2212 C   0  0  0  0  0  0  0  0  0  0  0  0
   11.2863   12.1309    4.9032 N   0  0  0  0  0  0  0  0  0  0  0  0
  1  7  2  0  0  0  0
  1  2  1  0  0  0  0
  2  3  1  0  0  0  0
  2  4  2  0  0  0  0
  4  5  1  0  0  0  0
  5  6  2  0  0  0  0
  5 11  1  0  0  0  0
  6  7  1  0  0  0  0
  6  9  1  0  0  0  0
  7  8  1  0  0  0  0
  9 10  1  0  0  0  0
 10 11  2  0  0  0  0
M  END
>  <CHROM.1>
11.67716847,11.57816488,7.14621442,0.29250139,-1.25040859,1.27782377

>  <Name>
ligand

>  <RI>
0

>  <Rbt.Current_Directory>
/home/itssahil/PROJECTS/Mol_Feturizer/New_Systems/rnas/4FEO

>  <Rbt.Executable>
rbdock ($Id: //depot/dev/client3/rdock/2013.1/src/exe/rbdock.cxx#4 $)

>  <Rbt.Library>
libRbt.so (2013.1, Build901 2013/11/27)

>  <Rbt.Parameter_File>
/export/apps/rDock/src/rDock_2013.1_src/data/scripts/dock_solv.prm

>  <Rbt.Receptor>
prm/blind_docking_20.prm

>  <SCORE>
-8.06067

>  <SCORE.INTER>
-8.62504

>  <SCORE.INTER.CONST>
1

>  <SCORE.INTER.POLAR>
0

>  <SCORE.INTER.ROT>
0

>  <SCORE.INTER.SOLV>
18.3566

>  <SCORE.INTER.VDW>
-15.4689

>  <SCORE.INTER.norm>
-0.784095

>  <SCORE.INTRA>
0

>  <SCORE.INTRA.DIHEDRAL>
0

>  <SCORE.INTRA.DIHEDRAL.0>
0

>  <SCORE.INTRA.POLAR>
0

>  <SCORE.INTRA.POLAR.0>
0

>  <SCORE.INTRA.REPUL>
0

>  <SCORE.INTRA.REPUL.0>
0

>  <SCORE.INTRA.SOLV>
0

>  <SCORE.INTRA.SOLV.lig_0>
-48.9252

>  <SCORE.INTRA.VDW>
0

>  <SCORE.INTRA.VDW.0>
0

>  <SCORE.INTRA.norm>
0

>  <SCORE.RESTR>
0.564373

>  <SCORE.RESTR.CAVITY>
0.564373

>  <SCORE.RESTR.norm>
0.0513067

>  <SCORE.SYSTEM>
0

>  <SCORE.SYSTEM.CONST>
0

>  <SCORE.SYSTEM.DIHEDRAL>
0

>  <SCORE.SYSTEM.SOLV>
0

>  <SCORE.SYSTEM.norm>
0

>  <SCORE.heavy>
11

>  <SCORE.norm>
-0.732788

>  <RMSD>
2.865

$$$$
ligand
 OpenBabel11021811493D
libRbt.so/2013.1/901 2013/11/27
 11 12  0  0  0  0  0  0  0  0999 V2000
   12.0187   10.7698    8.6833 N   0  0  0  0  0  0  0  0  0  0  0  0
   12.2524    9.9192    7.6671 C   0  0  0  0  0  0  0  0  0  0  0  0
   12.7073    8.6380    7.9440 N   0  0  0  0  0  0  0  0  0  0  0  0
   12.0567   10.2823    6.3897 N   0  0  0  0  0  0  0  0  0  0  0  0
   11.6241   11.5127    6.0718 C   0  0  0  0  0  0  0  0  0  0  0  0
   11.3621   12.4459    7.1001 C   0  0  0  0  0  0  0  0  0  0  0  0
   11.5774   12.0243    8.4496 C   0  0  0  0  0  0  0  0  0  0  0  0
   11.3417   12.8789    9.4987 N   0  0  0  0  0  0  0  0  0  0  0  0
   10.9422   13.5975    6.5023 N   0  0  0  0  0  0  0  0  0  0  0  0
   10.9352   13.4320    5.2137 C   0  0  0  0  0  0  0  0  0  0  0  0
   11.3442   12.1619    4.8947 N   0  0  0  0  0  0  0  0  0  0  0  0
  1  7  2  0  0  0  0
  1  2  1  0  0  0  0
  2  3  1  0  0  0  0
  2  4  2  0  0  0  0
  4  5  1  0  0  0  0
  5  6  2  0  0  0  0
  5 11  1  0  0  0  0
  6  7  1  0  0  0  0
  6  9  1  0  0  0  0
  7  8  1  0  0  0  0
  9 10  1  0  0  0  0
 10 11  2  0  0  0  0
M  END
>  <CHROM.1>
11.65807747,11.58759208,7.14443322,0.42623431,-1.23952690,1.41730123

>  <Name>
ligand

>  <RI>
0

>  <Rbt.Current_Directory>
/home/itssahil/PROJECTS/Mol_Feturizer/New_Systems/rnas/4FEO

>  <Rbt.Executable>
rbdock ($Id: //depot/dev/client3/rdock/2013.1/src/exe/rbdock.cxx#4 $)

>  <Rbt.Library>
libRbt.so (2013.1, Build901 2013/11/27)

>  <Rbt.Parameter_File>
/export/apps/rDock/src/rDock_2013.1_src/data/scripts/dock_solv.prm

>  <Rbt.Receptor>
prm/blind_docking_20.prm

>  <SCORE>
-8.05706

>  <SCORE.INTER>
-8.61327

>  <SCORE.INTER.CONST>
1

>  <SCORE.INTER.POLAR>
0

>  <SCORE.INTER.ROT>
0

>  <SCORE.INTER.SOLV>
18.6026

>  <SCORE.INTER.VDW>
-15.543

>  <SCORE.INTER.norm>
-0.783024

>  <SCORE.INTRA>
0

>  <SCORE.INTRA.DIHEDRAL>
0

>  <SCORE.INTRA.DIHEDRAL.0>
0

>  <SCORE.INTRA.POLAR>
0

>  <SCORE.INTRA.POLAR.0>
0

>  <SCORE.INTRA.REPUL>
0

>  <SCORE.INTRA.REPUL.0>
0

>  <SCORE.INTRA.SOLV>
0

>  <SCORE.INTRA.SOLV.lig_0>
-48.9252

>  <SCORE.INTRA.VDW>
0

>  <SCORE.INTRA.VDW.0>
0

>  <SCORE.INTRA.norm>
0

>  <SCORE.RESTR>
0.556209

>  <SCORE.RESTR.CAVITY>
0.556209

>  <SCORE.RESTR.norm>
0.0505645

>  <SCORE.SYSTEM>
0

>  <SCORE.SYSTEM.CONST>
0

>  <SCORE.SYSTEM.DIHEDRAL>
0

>  <SCORE.SYSTEM.SOLV>
0

>  <SCORE.SYSTEM.norm>
0

>  <SCORE.heavy>
11

>  <SCORE.norm>
-0.73246

>  <RMSD>
2.865

$$$$
ligand
 OpenBabel11021811493D
libRbt.so/2013.1/901 2013/11/27
 11 12  0  0  0  0  0  0  0  0999 V2000
   12.0262   10.7738    8.6816 N   0  0  0  0  0  0  0  0  0  0  0  0
   12.2551    9.9213    7.6660 C   0  0  0  0  0  0  0  0  0  0  0  0
   12.7088    8.6397    7.9433 N   0  0  0  0  0  0  0  0  0  0  0  0
   12.0557   10.2827    6.3887 N   0  0  0  0  0  0  0  0  0  0  0  0
   11.6240   11.5133    6.0704 C   0  0  0  0  0  0  0  0  0  0  0  0
   11.3670   12.4485    7.0980 C   0  0  0  0  0  0  0  0  0  0  0  0
   11.5862   12.0287    8.4475 C   0  0  0  0  0  0  0  0  0  0  0  0
   11.3554   12.8852    9.4961 N   0  0  0  0  0  0  0  0  0  0  0  0
   10.9471   13.5999    6.4999 N   0  0  0  0  0  0  0  0  0  0  0  0
   10.9354   13.4325    5.2116 C   0  0  0  0  0  0  0  0  0  0  0  0
   11.3413   12.1612    4.8932 N   0  0  0  0  0  0  0  0  0  0  0  0
  1  7  2  0  0  0  0
  1  2  1  0  0  0  0
  2  3  1  0  0  0  0
  2  4  2  0  0  0  0
  4  5  1  0  0  0  0
  5  6  2  0  0  0  0
  5 11  1  0  0  0  0
  6  7  1  0  0  0  0
  6  9  1  0  0  0  0
  7  8  1  0  0  0  0
  9 10  1  0  0  0  0
 10 11  2  0  0  0  0
M  END
>  <CHROM.1>
11.66176851,11.58982582,7.14273903,0.41520272,-1.24061597,1.40532610

>  <Name>
ligand

>  <RI>
0

>  <Rbt.Current_Directory>
/home/itssahil/PROJECTS/Mol_Feturizer/New_Systems/rnas/4FEO

>  <Rbt.Executable>
rbdock ($Id: //depot/dev/client3/rdock/2013.1/src/exe/rbdock.cxx#4 $)

>  <Rbt.Library>
libRbt.so (2013.1, Build901 2013/11/27)

>  <Rbt.Parameter_File>
/export/apps/rDock/src/rDock_2013.1_src/data/scripts/dock_solv.prm

>  <Rbt.Receptor>
prm/blind_docking_20.prm

>  <SCORE>
-8.07118

>  <SCORE.INTER>
-8.62859

>  <SCORE.INTER.CONST>
1

>  <SCORE.INTER.POLAR>
0

>  <SCORE.INTER.ROT>
0

>  <SCORE.INTER.SOLV>
18.5627

>  <SCORE.INTER.VDW>
-15.54

>  <SCORE.INTER.norm>
-0.784417

>  <SCORE.INTRA>
0

>  <SCORE.INTRA.DIHEDRAL>
0

>  <SCORE.INTRA.DIHEDRAL.0>
0

>  <SCORE.INTRA.POLAR>
0

>  <SCORE.INTRA.POLAR.0>
0

>  <SCORE.INTRA.REPUL>
0

>  <SCORE.INTRA.REPUL.0>
0

>  <SCORE.INTRA.SOLV>
0

>  <SCORE.INTRA.SOLV.lig_0>
-48.9252

>  <SCORE.INTRA.VDW>
0

>  <SCORE.INTRA.VDW.0>
0

>  <SCORE.INTRA.norm>
0

>  <SCORE.RESTR>
0.55741

>  <SCORE.RESTR.CAVITY>
0.55741

>  <SCORE.RESTR.norm>
0.0506737

>  <SCORE.SYSTEM>
0

>  <SCORE.SYSTEM.CONST>
0

>  <SCORE.SYSTEM.DIHEDRAL>
0

>  <SCORE.SYSTEM.SOLV>
0

>  <SCORE.SYSTEM.norm>
0

>  <SCORE.heavy>
11

>  <SCORE.norm>
-0.733744

>  <RMSD>
2.865

$$$$
ligand
 OpenBabel11021811493D
libRbt.so/2013.1/901 2013/11/27
 11 12  0  0  0  0  0  0  0  0999 V2000
   12.3987   10.7445    8.7732 N   0  0  0  0  0  0  0  0  0  0  0  0
   12.3777   10.0102    7.6457 C   0  0  0  0  0  0  0  0  0  0  0  0
   12.7638    8.6785    7.6945 N   0  0  0  0  0  0  0  0  0  0  0  0
   11.9926   10.5374    6.4728 N   0  0  0  0  0  0  0  0  0  0  0  0
   11.6168   11.8224    6.3745 C   0  0  0  0  0  0  0  0  0  0  0  0
   11.6192   12.6387    7.5279 C   0  0  0  0  0  0  0  0  0  0  0  0
   12.0313   12.0437    8.7613 C   0  0  0  0  0  0  0  0  0  0  0  0
   12.0564   12.7779    9.9218 N   0  0  0  0  0  0  0  0  0  0  0  0
   11.2002   13.8789    7.1452 N   0  0  0  0  0  0  0  0  0  0  0  0
   10.9533   13.8718    5.8697 C   0  0  0  0  0  0  0  0  0  0  0  0
   11.1910   12.6262    5.3459 N   0  0  0  0  0  0  0  0  0  0  0  0
  1  7  2  0  0  0  0
  1  2  1  0  0  0  0
  2  3  1  0  0  0  0
  2  4  2  0  0  0  0
  4  5  1  0  0  0  0
  5  6  2  0  0  0  0
  5 11  1  0  0  0  0
  6  7  1  0  0  0  0
  6  9  1  0  0  0  0
  7  8  1  0  0  0  0
  9 10  1  0  0  0  0
 10 11  2  0  0  0  0
M  END
>  <CHROM.1>
11.84452113,11.76428196,7.42423425,-0.18604116,-1.24083408,0.95223041

>  <Name>
ligand

>  <RI>
0

>  <Rbt.Current_Directory>
/home/itssahil/PROJECTS/Mol_Feturizer/New_Systems/rnas/4FEO

>  <Rbt.Executable>
rbdock ($Id: //depot/dev/client3/rdock/2013.1/src/exe/rbdock.cxx#4 $)

>  <Rbt.Library>
libRbt.so (2013.1, Build901 2013/11/27)

>  <Rbt.Parameter_File>
/export/apps/rDock/src/rDock_2013.1_src/data/scripts/dock_solv.prm

>  <Rbt.Receptor>
prm/blind_docking_40.prm

>  <SCORE>
-9.93937

>  <SCORE.INTER>
-9.93937

>  <SCORE.INTER.CONST>
1

>  <SCORE.INTER.POLAR>
0

>  <SCORE.INTER.ROT>
0

>  <SCORE.INTER.SOLV>
17.6819

>  <SCORE.INTER.VDW>
-16.1202

>  <SCORE.INTER.norm>
-0.903579

>  <SCORE.INTRA>
0

>  <SCORE.INTRA.DIHEDRAL>
0

>  <SCORE.INTRA.DIHEDRAL.0>
0

>  <SCORE.INTRA.POLAR>
0

>  <SCORE.INTRA.POLAR.0>
0

>  <SCORE.INTRA.REPUL>
0

>  <SCORE.INTRA.REPUL.0>
0

>  <SCORE.INTRA.SOLV>
0

>  <SCORE.INTRA.SOLV.lig_0>
-48.9252

>  <SCORE.INTRA.VDW>
0

>  <SCORE.INTRA.VDW.0>
0

>  <SCORE.INTRA.norm>
0

>  <SCORE.RESTR>
0

>  <SCORE.RESTR.CAVITY>
0

>  <SCORE.RESTR.norm>
0

>  <SCORE.SYSTEM>
0

>  <SCORE.SYSTEM.CONST>
0

>  <SCORE.SYSTEM.DIHEDRAL>
0

>  <SCORE.SYSTEM.SOLV>
0

>  <SCORE.SYSTEM.norm>
0

>  <SCORE.heavy>
11

>  <SCORE.norm>
-0.903579

>  <RMSD>
2.865

$$$$
ligand
 OpenBabel11021811493D
libRbt.so/2013.1/901 2013/11/27
 11 12  0  0  0  0  0  0  0  0999 V2000
   12.4513   10.7313    8.7639 N   0  0  0  0  0  0  0  0  0  0  0  0
   12.4036    9.9648    7.6590 C   0  0  0  0  0  0  0  0  0  0  0  0
   12.7954    8.6360    7.7360 N   0  0  0  0  0  0  0  0  0  0  0  0
   11.9864   10.4568    6.4818 N   0  0  0  0  0  0  0  0  0  0  0  0
   11.6038   11.7374    6.3563 C   0  0  0  0  0  0  0  0  0  0  0  0
   11.6333   12.5867    7.4852 C   0  0  0  0  0  0  0  0  0  0  0  0
   12.0793   12.0287    8.7242 C   0  0  0  0  0  0  0  0  0  0  0  0
   12.1320   12.7962    9.8620 N   0  0  0  0  0  0  0  0  0  0  0  0
   11.2003   13.8142    7.0780 N   0  0  0  0  0  0  0  0  0  0  0  0
   10.9205   13.7696    5.8101 C   0  0  0  0  0  0  0  0  0  0  0  0
   11.1487   12.5100    5.3164 N   0  0  0  0  0  0  0  0  0  0  0  0
  1  7  2  0  0  0  0
  1  2  1  0  0  0  0
  2  3  1  0  0  0  0
  2  4  2  0  0  0  0
  4  5  1  0  0  0  0
  5  6  2  0  0  0  0
  5 11  1  0  0  0  0
  6  7  1  0  0  0  0
  6  9  1  0  0  0  0
  7  8  1  0  0  0  0
  9 10  1  0  0  0  0
 10 11  2  0  0  0  0
M  END
>  <CHROM.1>
11.85890005,11.71024886,7.40102384,-0.24219064,-1.22251516,0.87042204

>  <Name>
ligand

>  <RI>
0

>  <Rbt.Current_Directory>
/home/itssahil/PROJECTS/Mol_Feturizer/New_Systems/rnas/4FEO

>  <Rbt.Executable>
rbdock ($Id: //depot/dev/client3/rdock/2013.1/src/exe/rbdock.cxx#4 $)

>  <Rbt.Library>
libRbt.so (2013.1, Build901 2013/11/27)

>  <Rbt.Parameter_File>
/export/apps/rDock/src/rDock_2013.1_src/data/scripts/dock_solv.prm

>  <Rbt.Receptor>
prm/blind_docking_40.prm

>  <SCORE>
-9.86825

>  <SCORE.INTER>
-9.87063

>  <SCORE.INTER.CONST>
1

>  <SCORE.INTER.POLAR>
0

>  <SCORE.INTER.ROT>
0

>  <SCORE.INTER.SOLV>
17.4672

>  <SCORE.INTER.VDW>
-16.0028

>  <SCORE.INTER.norm>
-0.89733

>  <SCORE.INTRA>
0

>  <SCORE.INTRA.DIHEDRAL>
0

>  <SCORE.INTRA.DIHEDRAL.0>
0

>  <SCORE.INTRA.POLAR>
0

>  <SCORE.INTRA.POLAR.0>
0

>  <SCORE.INTRA.REPUL>
0

>  <SCORE.INTRA.REPUL.0>
0

>  <SCORE.INTRA.SOLV>
0

>  <SCORE.INTRA.SOLV.lig_0>
-48.9252

>  <SCORE.INTRA.VDW>
0

>  <SCORE.INTRA.VDW.0>
0

>  <SCORE.INTRA.norm>
0

>  <SCORE.RESTR>
0.00237794

>  <SCORE.RESTR.CAVITY>
0.00237794

>  <SCORE.RESTR.norm>
0.000216176

>  <SCORE.SYSTEM>
0

>  <SCORE.SYSTEM.CONST>
0

>  <SCORE.SYSTEM.DIHEDRAL>
0

>  <SCORE.SYSTEM.SOLV>
0

>  <SCORE.SYSTEM.norm>
0

>  <SCORE.heavy>
11

>  <SCORE.norm>
-0.897114

>  <RMSD>
2.865

$$$$
ligand
 OpenBabel11021811493D
libRbt.so/2013.1/901 2013/11/27
 11 12  0  0  0  0  0  0  0  0999 V2000
   12.3628   10.7577    8.7541 N   0  0  0  0  0  0  0  0  0  0  0  0
   12.3672   10.0358    7.6185 C   0  0  0  0  0  0  0  0  0  0  0  0
   12.7653    8.7073    7.6591 N   0  0  0  0  0  0  0  0  0  0  0  0
   11.9961   10.5721    6.4453 N   0  0  0  0  0  0  0  0  0  0  0  0
   11.6095   11.8545    6.3548 C   0  0  0  0  0  0  0  0  0  0  0  0
   11.5854   12.6581    7.5169 C   0  0  0  0  0  0  0  0  0  0  0  0
   11.9831   12.0534    8.7503 C   0  0  0  0  0  0  0  0  0  0  0  0
   11.9824   12.7750    9.9190 N   0  0  0  0  0  0  0  0  0  0  0  0
   11.1607   13.8984    7.1409 N   0  0  0  0  0  0  0  0  0  0  0  0
   10.9346   13.9030    5.8615 C   0  0  0  0  0  0  0  0  0  0  0  0
   11.1927   12.6655    5.3282 N   0  0  0  0  0  0  0  0  0  0  0  0
  1  7  2  0  0  0  0
  1  2  1  0  0  0  0
  2  3  1  0  0  0  0
  2  4  2  0  0  0  0
  4  5  1  0  0  0  0
  5  6  2  0  0  0  0
  5 11  1  0  0  0  0
  6  7  1  0  0  0  0
  6  9  1  0  0  0  0
  7  8  1  0  0  0  0
  9 10  1  0  0  0  0
 10 11  2  0  0  0  0
M  END
>  <CHROM.1>
11.82080149,11.78700758,7.40743717,-0.12781132,-1.24186398,1.01827326

>  <Name>
ligand

>  <RI>
0

>  <Rbt.Current_Directory>
/home/itssahil/PROJECTS/Mol_Feturizer/New_Systems/rnas/4FEO

>  <Rbt.Executable>
rbdock ($Id: //depot/dev/client3/rdock/2013.1/src/exe/rbdock.cxx#4 $)

>  <Rbt.Library>
libRbt.so (2013.1, Build901 2013/11/27)

>  <Rbt.Parameter_File>
/export/apps/rDock/src/rDock_2013.1_src/data/scripts/dock_solv.prm

>  <Rbt.Receptor>
prm/pocket_docking_4.prm

>  <SCORE>
-9.86192

>  <SCORE.INTER>
-9.87352

>  <SCORE.INTER.CONST>
1

>  <SCORE.INTER.POLAR>
0

>  <SCORE.INTER.ROT>
0

>  <SCORE.INTER.SOLV>
17.7192

>  <SCORE.INTER.VDW>
-16.0887

>  <SCORE.INTER.norm>
-0.897593

>  <SCORE.INTRA>
0

>  <SCORE.INTRA.DIHEDRAL>
0

>  <SCORE.INTRA.DIHEDRAL.0>
0

>  <SCORE.INTRA.POLAR>
0

>  <SCORE.INTRA.POLAR.0>
0

>  <SCORE.INTRA.REPUL>
0

>  <SCORE.INTRA.REPUL.0>
0

>  <SCORE.INTRA.SOLV>
0

>  <SCORE.INTRA.SOLV.lig_0>
-48.9252

>  <SCORE.INTRA.VDW>
0

>  <SCORE.INTRA.VDW.0>
0

>  <SCORE.INTRA.norm>
0

>  <SCORE.RESTR>
0.0116046

>  <SCORE.RESTR.CAVITY>
0.0116046

>  <SCORE.RESTR.norm>
0.00105496

>  <SCORE.SYSTEM>
0

>  <SCORE.SYSTEM.CONST>
0

>  <SCORE.SYSTEM.DIHEDRAL>
0

>  <SCORE.SYSTEM.SOLV>
0

>  <SCORE.SYSTEM.norm>
0

>  <SCORE.heavy>
11

>  <SCORE.norm>
-0.896538

>  <RMSD>
2.865

$$$$
ligand
 OpenBabel11021811493D
libRbt.so/2013.1/901 2013/11/27
 11 12  0  0  0  0  0  0  0  0999 V2000
   12.4489   10.7336    8.7404 N   0  0  0  0  0  0  0  0  0  0  0  0
   12.3884    9.9529    7.6461 C   0  0  0  0  0  0  0  0  0  0  0  0
   12.7916    8.6281    7.7331 N   0  0  0  0  0  0  0  0  0  0  0  0
   11.9479   10.4269    6.4700 N   0  0  0  0  0  0  0  0  0  0  0  0
   11.5536   11.7030    6.3350 C   0  0  0  0  0  0  0  0  0  0  0  0
   11.5955   12.5667    7.4526 C   0  0  0  0  0  0  0  0  0  0  0  0
   12.0664   12.0276    8.6907 C   0  0  0  0  0  0  0  0  0  0  0  0
   12.1323   12.8097    9.8178 N   0  0  0  0  0  0  0  0  0  0  0  0
   11.1465   13.7856    7.0374 N   0  0  0  0  0  0  0  0  0  0  0  0
   10.8458   13.7230    5.7750 C   0  0  0  0  0  0  0  0  0  0  0  0
   11.0753   12.4590    5.2933 N   0  0  0  0  0  0  0  0  0  0  0  0
  1  7  2  0  0  0  0
  1  2  1  0  0  0  0
  2  3  1  0  0  0  0
  2  4  2  0  0  0  0
  4  5  1  0  0  0  0
  5  6  2  0  0  0  0
  5 11  1  0  0  0  0
  6  7  1  0  0  0  0
  6  9  1  0  0  0  0
  7  8  1  0  0  0  0
  9 10  1  0  0  0  0
 10 11  2  0  0  0  0
M  END
>  <CHROM.1>
11.82630192,11.69087222,7.37550362,-0.26428705,-1.20584661,0.83716300

>  <Name>
ligand

>  <RI>
0

>  <Rbt.Current_Directory>
/home/itssahil/PROJECTS/Mol_Feturizer/New_Systems/rnas/4FEO

>  <Rbt.Executable>
rbdock ($Id: //depot/dev/client3/rdock/2013.1/src/exe/rbdock.cxx#4 $)

>  <Rbt.Library>
libRbt.so (2013.1, Build901 2013/11/27)

>  <Rbt.Parameter_File>
/export/apps/rDock/src/rDock_2013.1_src/data/scripts/dock_solv.prm

>  <Rbt.Receptor>
prm/pocket_docking_7.prm

>  <SCORE>
-9.87946

>  <SCORE.INTER>
-9.8798

>  <SCORE.INTER.CONST>
1

>  <SCORE.INTER.POLAR>
0

>  <SCORE.INTER.ROT>
0

>  <SCORE.INTER.SOLV>
17.3679

>  <SCORE.INTER.VDW>
-15.9758

>  <SCORE.INTER.norm>
-0.898163

>  <SCORE.INTRA>
0

>  <SCORE.INTRA.DIHEDRAL>
0

>  <SCORE.INTRA.DIHEDRAL.0>
0

>  <SCORE.INTRA.POLAR>
0

>  <SCORE.INTRA.POLAR.0>
0

>  <SCORE.INTRA.REPUL>
0

>  <SCORE.INTRA.REPUL.0>
0

>  <SCORE.INTRA.SOLV>
0

>  <SCORE.INTRA.SOLV.lig_0>
-48.9252

>  <SCORE.INTRA.VDW>
0

>  <SCORE.INTRA.VDW.0>
0

>  <SCORE.INTRA.norm>
0

>  <SCORE.RESTR>
0.000337975

>  <SCORE.RESTR.CAVITY>
0.000337975

>  <SCORE.RESTR.norm>
3.0725e-05

>  <SCORE.SYSTEM>
0

>  <SCORE.SYSTEM.CONST>
0

>  <SCORE.SYSTEM.DIHEDRAL>
0

>  <SCORE.SYSTEM.SOLV>
0

>  <SCORE.SYSTEM.norm>
0

>  <SCORE.heavy>
11

>  <SCORE.norm>
-0.898133

>  <RMSD>
2.865

$$$$
ligand
 OpenBabel11021811493D
libRbt.so/2013.1/901 2013/11/27
 11 12  0  0  0  0  0  0  0  0999 V2000
   12.4965   10.7446    8.7211 N   0  0  0  0  0  0  0  0  0  0  0  0
   12.3813    9.9593    7.6345 C   0  0  0  0  0  0  0  0  0  0  0  0
   12.7621    8.6275    7.7148 N   0  0  0  0  0  0  0  0  0  0  0  0
   11.9071   10.4354    6.4724 N   0  0  0  0  0  0  0  0  0  0  0  0
   11.5323   11.7181    6.3443 C   0  0  0  0  0  0  0  0  0  0  0  0
   11.6316   12.5868    7.4543 C   0  0  0  0  0  0  0  0  0  0  0  0
   12.1371   12.0454    8.6777 C   0  0  0  0  0  0  0  0  0  0  0  0
   12.2591   12.8322    9.7968 N   0  0  0  0  0  0  0  0  0  0  0  0
   11.1908   13.8119    7.0485 N   0  0  0  0  0  0  0  0  0  0  0  0
   10.8430   13.7483    5.7983 C   0  0  0  0  0  0  0  0  0  0  0  0
   11.0307   12.4776    5.3162 N   0  0  0  0  0  0  0  0  0  0  0  0
  1  7  2  0  0  0  0
  1  2  1  0  0  0  0
  2  3  1  0  0  0  0
  2  4  2  0  0  0  0
  4  5  1  0  0  0  0
  5  6  2  0  0  0  0
  5 11  1  0  0  0  0
  6  7  1  0  0  0  0
  6  9  1  0  0  0  0
  7  8  1  0  0  0  0
  9 10  1  0  0  0  0
 10 11  2  0  0  0  0
M  END
>  <CHROM.1>
11.84267961,11.70633885,7.37417436,-0.37281669,-1.19340420,0.73031791

>  <Name>
ligand

>  <RI>
0

>  <Rbt.Current_Directory>
/home/itssahil/PROJECTS/Mol_Feturizer/New_Systems/rnas/4FEO

>  <Rbt.Executable>
rbdock ($Id: //depot/dev/client3/rdock/2013.1/src/exe/rbdock.cxx#4 $)

>  <Rbt.Library>
libRbt.so (2013.1, Build901 2013/11/27)

>  <Rbt.Parameter_File>
/export/apps/rDock/src/rDock_2013.1_src/data/scripts/dock_solv.prm

>  <Rbt.Receptor>
prm/pocket_docking_8.prm

>  <SCORE>
-9.90597

>  <SCORE.INTER>
-9.90614

>  <SCORE.INTER.CONST>
1

>  <SCORE.INTER.POLAR>
0

>  <SCORE.INTER.ROT>
0

>  <SCORE.INTER.SOLV>
17.3713

>  <SCORE.INTER.VDW>
-15.9945

>  <SCORE.INTER.norm>
-0.900558

>  <SCORE.INTRA>
0

>  <SCORE.INTRA.DIHEDRAL>
0

>  <SCORE.INTRA.DIHEDRAL.0>
0

>  <SCORE.INTRA.POLAR>
0

>  <SCORE.INTRA.POLAR.0>
0

>  <SCORE.INTRA.REPUL>
0

>  <SCORE.INTRA.REPUL.0>
0

>  <SCORE.INTRA.SOLV>
0

>  <SCORE.INTRA.SOLV.lig_0>
-48.9252

>  <SCORE.INTRA.VDW>
0

>  <SCORE.INTRA.VDW.0>
0

>  <SCORE.INTRA.norm>
0

>  <SCORE.RESTR>
0.000170986

>  <SCORE.RESTR.CAVITY>
0.000170986

>  <SCORE.RESTR.norm>
1.55442e-05

>  <SCORE.SYSTEM>
0

>  <SCORE.SYSTEM.CONST>
0

>  <SCORE.SYSTEM.DIHEDRAL>
0

>  <SCORE.SYSTEM.SOLV>
0

>  <SCORE.SYSTEM.norm>
0

>  <SCORE.heavy>
11

>  <SCORE.norm>
-0.900543

>  <RMSD>
2.865

$$$$
ligand
 OpenBabel11021811493D
libRbt.so/2013.1/901 2013/11/27
 11 12  0  0  0  0  0  0  0  0999 V2000
   12.4710   10.7452    8.7375 N   0  0  0  0  0  0  0  0  0  0  0  0
   12.3895    9.9740    7.6378 C   0  0  0  0  0  0  0  0  0  0  0  0
   12.7804    8.6446    7.7093 N   0  0  0  0  0  0  0  0  0  0  0  0
   11.9397   10.4620    6.4710 N   0  0  0  0  0  0  0  0  0  0  0  0
   11.5565   11.7429    6.3510 C   0  0  0  0  0  0  0  0  0  0  0  0
   11.6205   12.5970    7.4749 C   0  0  0  0  0  0  0  0  0  0  0  0
   12.1008   12.0433    8.7029 C   0  0  0  0  0  0  0  0  0  0  0  0
   12.1882   12.8155    9.8353 N   0  0  0  0  0  0  0  0  0  0  0  0
   11.1787   13.8237    7.0750 N   0  0  0  0  0  0  0  0  0  0  0  0
   10.8623   13.7743    5.8159 C   0  0  0  0  0  0  0  0  0  0  0  0
   11.0733   12.5121    5.3213 N   0  0  0  0  0  0  0  0  0  0  0  0
  1  7  2  0  0  0  0
  1  2  1  0  0  0  0
  2  3  1  0  0  0  0
  2  4  2  0  0  0  0
  4  5  1  0  0  0  0
  5  6  2  0  0  0  0
  5 11  1  0  0  0  0
  6  7  1  0  0  0  0
  6  9  1  0  0  0  0
  7  8  1  0  0  0  0
  9 10  1  0  0  0  0
 10 11  2  0  0  0  0
M  END
>  <CHROM.1>
11.84159788,11.71965432,7.38803285,-0.30804194,-1.20488988,0.80437542

>  <Name>
ligand

>  <RI>
0

>  <Rbt.Current_Directory>
/home/itssahil/PROJECTS/Mol_Feturizer/New_Systems/rnas/4FEO

>  <Rbt.Executable>
rbdock ($Id: //depot/dev/client3/rdock/2013.1/src/exe/rbdock.cxx#4 $)

>  <Rbt.Library>
libRbt.so (2013.1, Build901 2013/11/27)

>  <Rbt.Parameter_File>
/export/apps/rDock/src/rDock_2013.1_src/data/scripts/dock_solv.prm

>  <Rbt.Receptor>
prm/pocket_docking_8.prm

>  <SCORE>
-9.87953

>  <SCORE.INTER>
-9.88054

>  <SCORE.INTER.CONST>
1

>  <SCORE.INTER.POLAR>
0

>  <SCORE.INTER.ROT>
0

>  <SCORE.INTER.SOLV>
17.3841

>  <SCORE.INTER.VDW>
-15.9817

>  <SCORE.INTER.norm>
-0.898231

>  <SCORE.INTRA>
0

>  <SCORE.INTRA.DIHEDRAL>
0

>  <SCORE.INTRA.DIHEDRAL.0>
0

>  <SCORE.INTRA.POLAR>
0

>  <SCORE.INTRA.POLAR.0>
0

>  <SCORE.INTRA.REPUL>
0

>  <SCORE.INTRA.REPUL.0>
0

>  <SCORE.INTRA.SOLV>
0

>  <SCORE.INTRA.SOLV.lig_0>
-48.9252

>  <SCORE.INTRA.VDW>
0

>  <SCORE.INTRA.VDW.0>
0

>  <SCORE.INTRA.norm>
0

>  <SCORE.RESTR>
0.0010161

>  <SCORE.RESTR.CAVITY>
0.0010161

>  <SCORE.RESTR.norm>
9.2373e-05

>  <SCORE.SYSTEM>
0

>  <SCORE.SYSTEM.CONST>
0

>  <SCORE.SYSTEM.DIHEDRAL>
0

>  <SCORE.SYSTEM.SOLV>
0

>  <SCORE.SYSTEM.norm>
0

>  <SCORE.heavy>
11

>  <SCORE.norm>
-0.898139

>  <RMSD>
2.865

$$$$
ligand
 OpenBabel11021811493D
libRbt.so/2013.1/901 2013/11/27
 11 12  0  0  0  0  0  0  0  0999 V2000
   12.4264   10.7529    8.7650 N   0  0  0  0  0  0  0  0  0  0  0  0
   12.4040   10.0186    7.6376 C   0  0  0  0  0  0  0  0  0  0  0  0
   12.7978    8.6890    7.6845 N   0  0  0  0  0  0  0  0  0  0  0  0
   12.0104   10.5436    6.4666 N   0  0  0  0  0  0  0  0  0  0  0  0
   11.6270   11.8265    6.3701 C   0  0  0  0  0  0  0  0  0  0  0  0
   11.6303   12.6428    7.5235 C   0  0  0  0  0  0  0  0  0  0  0  0
   12.0516   12.0501    8.7549 C   0  0  0  0  0  0  0  0  0  0  0  0
   12.0781   12.7845    9.9153 N   0  0  0  0  0  0  0  0  0  0  0  0
   11.2026   13.8806    7.1428 N   0  0  0  0  0  0  0  0  0  0  0  0
   10.9497   13.8721    5.8685 C   0  0  0  0  0  0  0  0  0  0  0  0
   11.1918   12.6278    5.3435 N   0  0  0  0  0  0  0  0  0  0  0  0
  1  7  2  0  0  0  0
  1  2  1  0  0  0  0
  2  3  1  0  0  0  0
  2  4  2  0  0  0  0
  4  5  1  0  0  0  0
  5  6  2  0  0  0  0
  5 11  1  0  0  0  0
  6  7  1  0  0  0  0
  6  9  1  0  0  0  0
  7  8  1  0  0  0  0
  9 10  1  0  0  0  0
 10 11  2  0  0  0  0
M  END
>  <CHROM.1>
11.86005515,11.76963605,7.41873717,-0.18795980,-1.23351382,0.95042947

>  <Name>
ligand

>  <RI>
0

>  <Rbt.Current_Directory>
/home/itssahil/PROJECTS/Mol_Feturizer/New_Systems/rnas/4FEO

>  <Rbt.Executable>
rbdock ($Id: //depot/dev/client3/rdock/2013.1/src/exe/rbdock.cxx#4 $)

>  <Rbt.Library>
libRbt.so (2013.1, Build901 2013/11/27)

>  <Rbt.Parameter_File>
/export/apps/rDock/src/rDock_2013.1_src/data/scripts/dock_solv.prm

>  <Rbt.Receptor>
prm/blind_docking_100.prm

>  <SCORE>
-9.92357

>  <SCORE.INTER>
-9.92357

>  <SCORE.INTER.CONST>
1

>  <SCORE.INTER.POLAR>
0

>  <SCORE.INTER.ROT>
0

>  <SCORE.INTER.SOLV>
17.5164

>  <SCORE.INTER.VDW>
-16.0545

>  <SCORE.INTER.norm>
-0.902143

>  <SCORE.INTRA>
0

>  <SCORE.INTRA.DIHEDRAL>
0

>  <SCORE.INTRA.DIHEDRAL.0>
0

>  <SCORE.INTRA.POLAR>
0

>  <SCORE.INTRA.POLAR.0>
0

>  <SCORE.INTRA.REPUL>
0

>  <SCORE.INTRA.REPUL.0>
0

>  <SCORE.INTRA.SOLV>
0

>  <SCORE.INTRA.SOLV.lig_0>
-48.9252

>  <SCORE.INTRA.VDW>
0

>  <SCORE.INTRA.VDW.0>
0

>  <SCORE.INTRA.norm>
0

>  <SCORE.RESTR>
0

>  <SCORE.RESTR.CAVITY>
0

>  <SCORE.RESTR.norm>
0

>  <SCORE.SYSTEM>
0

>  <SCORE.SYSTEM.CONST>
0

>  <SCORE.SYSTEM.DIHEDRAL>
0

>  <SCORE.SYSTEM.SOLV>
0

>  <SCORE.SYSTEM.norm>
0

>  <SCORE.heavy>
11

>  <SCORE.norm>
-0.902143

>  <RMSD>
2.866

$$$$
ligand
 OpenBabel11021811493D
libRbt.so/2013.1/901 2013/11/27
 11 12  0  0  0  0  0  0  0  0999 V2000
   12.0717   10.7697    8.6781 N   0  0  0  0  0  0  0  0  0  0  0  0
   12.2578    9.9059    7.6633 C   0  0  0  0  0  0  0  0  0  0  0  0
   12.6989    8.6194    7.9380 N   0  0  0  0  0  0  0  0  0  0  0  0
   12.0276   10.2607    6.3893 N   0  0  0  0  0  0  0  0  0  0  0  0
   11.6065   11.4956    6.0735 C   0  0  0  0  0  0  0  0  0  0  0  0
   11.3940   12.4426    7.1004 C   0  0  0  0  0  0  0  0  0  0  0  0
   11.6451   12.0297    8.4464 C   0  0  0  0  0  0  0  0  0  0  0  0
   11.4580   12.8978    9.4942 N   0  0  0  0  0  0  0  0  0  0  0  0
   10.9753   13.5960    6.5052 N   0  0  0  0  0  0  0  0  0  0  0  0
   10.9240   13.4189    5.2191 C   0  0  0  0  0  0  0  0  0  0  0  0
   11.3005   12.1389    4.8996 N   0  0  0  0  0  0  0  0  0  0  0  0
  1  7  2  0  0  0  0
  1  2  1  0  0  0  0
  2  3  1  0  0  0  0
  2  4  2  0  0  0  0
  4  5  1  0  0  0  0
  5  6  2  0  0  0  0
  5 11  1  0  0  0  0
  6  7  1  0  0  0  0
  6  9  1  0  0  0  0
  7  8  1  0  0  0  0
  9 10  1  0  0  0  0
 10 11  2  0  0  0  0
M  END
>  <CHROM.1>
11.67620687,11.57967749,7.14367128,0.31703587,-1.25008434,1.30441419

>  <Name>
ligand

>  <RI>
0

>  <Rbt.Current_Directory>
/home/itssahil/PROJECTS/Mol_Feturizer/New_Systems/rnas/4FEO

>  <Rbt.Executable>
rbdock ($Id: //depot/dev/client3/rdock/2013.1/src/exe/rbdock.cxx#4 $)

>  <Rbt.Library>
libRbt.so (2013.1, Build901 2013/11/27)

>  <Rbt.Parameter_File>
/export/apps/rDock/src/rDock_2013.1_src/data/scripts/dock_solv.prm

>  <Rbt.Receptor>
prm/blind_docking_20.prm

>  <SCORE>
-8.03805

>  <SCORE.INTER>
-8.59973

>  <SCORE.INTER.CONST>
1

>  <SCORE.INTER.POLAR>
0

>  <SCORE.INTER.ROT>
0

>  <SCORE.INTER.SOLV>
18.3741

>  <SCORE.INTER.VDW>
-15.4579

>  <SCORE.INTER.norm>
-0.781794

>  <SCORE.INTRA>
0

>  <SCORE.INTRA.DIHEDRAL>
0

>  <SCORE.INTRA.DIHEDRAL.0>
0

>  <SCORE.INTRA.POLAR>
0

>  <SCORE.INTRA.POLAR.0>
0

>  <SCORE.INTRA.REPUL>
0

>  <SCORE.INTRA.REPUL.0>
0

>  <SCORE.INTRA.SOLV>
0

>  <SCORE.INTRA.SOLV.lig_0>
-48.9252

>  <SCORE.INTRA.VDW>
0

>  <SCORE.INTRA.VDW.0>
0

>  <SCORE.INTRA.norm>
0

>  <SCORE.RESTR>
0.561686

>  <SCORE.RESTR.CAVITY>
0.561686

>  <SCORE.RESTR.norm>
0.0510623

>  <SCORE.SYSTEM>
0

>  <SCORE.SYSTEM.CONST>
0

>  <SCORE.SYSTEM.DIHEDRAL>
0

>  <SCORE.SYSTEM.SOLV>
0

>  <SCORE.SYSTEM.norm>
0

>  <SCORE.heavy>
11

>  <SCORE.norm>
-0.730732

>  <RMSD>
2.866

$$$$
ligand
 OpenBabel11021811493D
libRbt.so/2013.1/901 2013/11/27
 11 12  0  0  0  0  0  0  0  0999 V2000
   12.0390   10.7653    8.6789 N   0  0  0  0  0  0  0  0  0  0  0  0
   12.2445    9.9092    7.6613 C   0  0  0  0  0  0  0  0  0  0  0  0
   12.6956    8.6257    7.9332 N   0  0  0  0  0  0  0  0  0  0  0  0
   12.0242   10.2691    6.3869 N   0  0  0  0  0  0  0  0  0  0  0  0
   11.5940   11.5016    6.0738 C   0  0  0  0  0  0  0  0  0  0  0  0
   11.3611   12.4405    7.1038 C   0  0  0  0  0  0  0  0  0  0  0  0
   11.6022   12.0223    8.4500 C   0  0  0  0  0  0  0  0  0  0  0  0
   11.3955   12.8824    9.5007 N   0  0  0  0  0  0  0  0  0  0  0  0
   10.9371   13.5931    6.5108 N   0  0  0  0  0  0  0  0  0  0  0  0
   10.9012   13.4230    5.2232 C   0  0  0  0  0  0  0  0  0  0  0  0
   11.2938   12.1486    4.9004 N   0  0  0  0  0  0  0  0  0  0  0  0
  1  7  2  0  0  0  0
  1  2  1  0  0  0  0
  2  3  1  0  0  0  0
  2  4  2  0  0  0  0
  4  5  1  0  0  0  0
  5  6  2  0  0  0  0
  5 11  1  0  0  0  0
  6  7  1  0  0  0  0
  6  9  1  0  0  0  0
  7  8  1  0  0  0  0
  9 10  1  0  0  0  0
 10 11  2  0  0  0  0
M  END
>  <CHROM.1>
11.65155676,11.58016670,7.14508200,0.35674103,-1.24289668,1.34781435

>  <Name>
ligand

>  <RI>
0

>  <Rbt.Current_Directory>
/home/itssahil/PROJECTS/Mol_Feturizer/New_Systems/rnas/4FEO

>  <Rbt.Executable>
rbdock ($Id: //depot/dev/client3/rdock/2013.1/src/exe/rbdock.cxx#4 $)

>  <Rbt.Library>
libRbt.so (2013.1, Build901 2013/11/27)

>  <Rbt.Parameter_File>
/export/apps/rDock/src/rDock_2013.1_src/data/scripts/dock_solv.prm

>  <Rbt.Receptor>
prm/blind_docking_20.prm

>  <SCORE>
-8.03321

>  <SCORE.INTER>
-8.59264

>  <SCORE.INTER.CONST>
1

>  <SCORE.INTER.POLAR>
0

>  <SCORE.INTER.ROT>
0

>  <SCORE.INTER.SOLV>
18.4919

>  <SCORE.INTER.VDW>
-15.4924

>  <SCORE.INTER.norm>
-0.781149

>  <SCORE.INTRA>
0

>  <SCORE.INTRA.DIHEDRAL>
0

>  <SCORE.INTRA.DIHEDRAL.0>
0

>  <SCORE.INTRA.POLAR>
0

>  <SCORE.INTRA.POLAR.0>
0

>  <SCORE.INTRA.REPUL>
0

>  <SCORE.INTRA.REPUL.0>
0

>  <SCORE.INTRA.SOLV>
0

>  <SCORE.INTRA.SOLV.lig_0>
-48.9252

>  <SCORE.INTRA.VDW>
0

>  <SCORE.INTRA.VDW.0>
0

>  <SCORE.INTRA.norm>
0

>  <SCORE.RESTR>
0.559426

>  <SCORE.RESTR.CAVITY>
0.559426

>  <SCORE.RESTR.norm>
0.0508569

>  <SCORE.SYSTEM>
0

>  <SCORE.SYSTEM.CONST>
0

>  <SCORE.SYSTEM.DIHEDRAL>
0

>  <SCORE.SYSTEM.SOLV>
0

>  <SCORE.SYSTEM.norm>
0

>  <SCORE.heavy>
11

>  <SCORE.norm>
-0.730292

>  <RMSD>
2.866

$$$$
ligand
 OpenBabel11021811493D
libRbt.so/2013.1/901 2013/11/27
 11 12  0  0  0  0  0  0  0  0999 V2000
   12.0424   10.7655    8.6793 N   0  0  0  0  0  0  0  0  0  0  0  0
   12.2492    9.9088    7.6625 C   0  0  0  0  0  0  0  0  0  0  0  0
   12.6976    8.6246    7.9361 N   0  0  0  0  0  0  0  0  0  0  0  0
   12.0328   10.2686    6.3875 N   0  0  0  0  0  0  0  0  0  0  0  0
   11.6054   11.5016    6.0727 C   0  0  0  0  0  0  0  0  0  0  0  0
   11.3712   12.4412    7.1018 C   0  0  0  0  0  0  0  0  0  0  0  0
   11.6081   12.0231    8.4488 C   0  0  0  0  0  0  0  0  0  0  0  0
   11.3999   12.8839    9.4986 N   0  0  0  0  0  0  0  0  0  0  0  0
   10.9506   13.5942    6.5073 N   0  0  0  0  0  0  0  0  0  0  0  0
   10.9178   13.4237    5.2197 C   0  0  0  0  0  0  0  0  0  0  0  0
   11.3093   12.1486    4.8984 N   0  0  0  0  0  0  0  0  0  0  0  0
  1  7  2  0  0  0  0
  1  2  1  0  0  0  0
  2  3  1  0  0  0  0
  2  4  2  0  0  0  0
  4  5  1  0  0  0  0
  5  6  2  0  0  0  0
  5 11  1  0  0  0  0
  6  7  1  0  0  0  0
  6  9  1  0  0  0  0
  7  8  1  0  0  0  0
  9 10  1  0  0  0  0
 10 11  2  0  0  0  0
M  END
>  <CHROM.1>
11.66025878,11.58045117,7.14418706,0.36375110,-1.24498404,1.35410467

>  <Name>
ligand

>  <RI>
0

>  <Rbt.Current_Directory>
/home/itssahil/PROJECTS/Mol_Feturizer/New_Systems/rnas/4FEO

>  <Rbt.Executable>
rbdock ($Id: //depot/dev/client3/rdock/2013.1/src/exe/rbdock.cxx#4 $)

>  <Rbt.Library>
libRbt.so (2013.1, Build901 2013/11/27)

>  <Rbt.Parameter_File>
/export/apps/rDock/src/rDock_2013.1_src/data/scripts/dock_solv.prm

>  <Rbt.Receptor>
prm/blind_docking_20.prm

>  <SCORE>
-8.03339

>  <SCORE.INTER>
-8.59164

>  <SCORE.INTER.CONST>
1

>  <SCORE.INTER.POLAR>
0

>  <SCORE.INTER.ROT>
0

>  <SCORE.INTER.SOLV>
18.4825

>  <SCORE.INTER.VDW>
-15.4886

>  <SCORE.INTER.norm>
-0.781059

>  <SCORE.INTRA>
0

>  <SCORE.INTRA.DIHEDRAL>
0

>  <SCORE.INTRA.DIHEDRAL.0>
0

>  <SCORE.INTRA.POLAR>
0

>  <SCORE.INTRA.POLAR.0>
0

>  <SCORE.INTRA.REPUL>
0

>  <SCORE.INTRA.REPUL.0>
0

>  <SCORE.INTRA.SOLV>
0

>  <SCORE.INTRA.SOLV.lig_0>
-48.9252

>  <SCORE.INTRA.VDW>
0

>  <SCORE.INTRA.VDW.0>
0

>  <SCORE.INTRA.norm>
0

>  <SCORE.RESTR>
0.558251

>  <SCORE.RESTR.CAVITY>
0.558251

>  <SCORE.RESTR.norm>
0.0507501

>  <SCORE.SYSTEM>
0

>  <SCORE.SYSTEM.CONST>
0

>  <SCORE.SYSTEM.DIHEDRAL>
0

>  <SCORE.SYSTEM.SOLV>
0

>  <SCORE.SYSTEM.norm>
0

>  <SCORE.heavy>
11

>  <SCORE.norm>
-0.730308

>  <RMSD>
2.866

$$$$
ligand
 OpenBabel11021811493D
libRbt.so/2013.1/901 2013/11/27
 11 12  0  0  0  0  0  0  0  0999 V2000
   12.0726   10.7701    8.6767 N   0  0  0  0  0  0  0  0  0  0  0  0
   12.2564    9.9060    7.6617 C   0  0  0  0  0  0  0  0  0  0  0  0
   12.6976    8.6194    7.9357 N   0  0  0  0  0  0  0  0  0  0  0  0
   12.0238   10.2606    6.3881 N   0  0  0  0  0  0  0  0  0  0  0  0
   11.6025   11.4956    6.0729 C   0  0  0  0  0  0  0  0  0  0  0  0
   11.3923   12.4430    7.1001 C   0  0  0  0  0  0  0  0  0  0  0  0
   11.6460   12.0302    8.4456 C   0  0  0  0  0  0  0  0  0  0  0  0
   11.4614   12.8986    9.4936 N   0  0  0  0  0  0  0  0  0  0  0  0
   10.9729   13.5964    6.5054 N   0  0  0  0  0  0  0  0  0  0  0  0
   10.9190   13.4190    5.2195 C   0  0  0  0  0  0  0  0  0  0  0  0
   11.2943   12.1388    4.8995 N   0  0  0  0  0  0  0  0  0  0  0  0
  1  7  2  0  0  0  0
  1  2  1  0  0  0  0
  2  3  1  0  0  0  0
  2  4  2  0  0  0  0
  4  5  1  0  0  0  0
  5  6  2  0  0  0  0
  5 11  1  0  0  0  0
  6  7  1  0  0  0  0
  6  9  1  0  0  0  0
  7  8  1  0  0  0  0
  9 10  1  0  0  0  0
 10 11  2  0  0  0  0
M  END
>  <CHROM.1>
11.67436451,11.57991742,7.14288666,0.31058669,-1.24989728,1.29809010

>  <Name>
ligand

>  <RI>
0

>  <Rbt.Current_Directory>
/home/itssahil/PROJECTS/Mol_Feturizer/New_Systems/rnas/4FEO

>  <Rbt.Executable>
rbdock ($Id: //depot/dev/client3/rdock/2013.1/src/exe/rbdock.cxx#4 $)

>  <Rbt.Library>
libRbt.so (2013.1, Build901 2013/11/27)

>  <Rbt.Parameter_File>
/export/apps/rDock/src/rDock_2013.1_src/data/scripts/dock_solv.prm

>  <Rbt.Receptor>
prm/blind_docking_20.prm

>  <SCORE>
-8.03942

>  <SCORE.INTER>
-8.60156

>  <SCORE.INTER.CONST>
1

>  <SCORE.INTER.POLAR>
0

>  <SCORE.INTER.ROT>
0

>  <SCORE.INTER.SOLV>
18.3655

>  <SCORE.INTER.VDW>
-15.4562

>  <SCORE.INTER.norm>
-0.78196

>  <SCORE.INTRA>
0

>  <SCORE.INTRA.DIHEDRAL>
0

>  <SCORE.INTRA.DIHEDRAL.0>
0

>  <SCORE.INTRA.POLAR>
0

>  <SCORE.INTRA.POLAR.0>
0

>  <SCORE.INTRA.REPUL>
0

>  <SCORE.INTRA.REPUL.0>
0

>  <SCORE.INTRA.SOLV>
0

>  <SCORE.INTRA.SOLV.lig_0>
-48.9252

>  <SCORE.INTRA.VDW>
0

>  <SCORE.INTRA.VDW.0>
0

>  <SCORE.INTRA.norm>
0

>  <SCORE.RESTR>
0.562138

>  <SCORE.RESTR.CAVITY>
0.562138

>  <SCORE.RESTR.norm>
0.0511035

>  <SCORE.SYSTEM>
0

>  <SCORE.SYSTEM.CONST>
0

>  <SCORE.SYSTEM.DIHEDRAL>
0

>  <SCORE.SYSTEM.SOLV>
0

>  <SCORE.SYSTEM.norm>
0

>  <SCORE.heavy>
11

>  <SCORE.norm>
-0.730856

>  <RMSD>
2.866

$$$$
ligand
 OpenBabel11021811493D
libRbt.so/2013.1/901 2013/11/27
 11 12  0  0  0  0  0  0  0  0999 V2000
   12.0131   10.7673    8.6815 N   0  0  0  0  0  0  0  0  0  0  0  0
   12.2545    9.9203    7.6642 C   0  0  0  0  0  0  0  0  0  0  0  0
   12.7114    8.6395    7.9398 N   0  0  0  0  0  0  0  0  0  0  0  0
   12.0646   10.2865    6.3868 N   0  0  0  0  0  0  0  0  0  0  0  0
   11.6303   11.5167    6.0702 C   0  0  0  0  0  0  0  0  0  0  0  0
   11.3604   12.4462    7.0997 C   0  0  0  0  0  0  0  0  0  0  0  0
   11.5697   12.0213    8.4491 C   0  0  0  0  0  0  0  0  0  0  0  0
   11.3261   12.8722    9.4994 N   0  0  0  0  0  0  0  0  0  0  0  0
   10.9406   13.5984    6.5030 N   0  0  0  0  0  0  0  0  0  0  0  0
   10.9408   13.4366    5.2139 C   0  0  0  0  0  0  0  0  0  0  0  0
   11.3550   12.1685    4.8935 N   0  0  0  0  0  0  0  0  0  0  0  0
  1  7  2  0  0  0  0
  1  2  1  0  0  0  0
  2  3  1  0  0  0  0
  2  4  2  0  0  0  0
  4  5  1  0  0  0  0
  5  6  2  0  0  0  0
  5 11  1  0  0  0  0
  6  7  1  0  0  0  0
  6  9  1  0  0  0  0
  7  8  1  0  0  0  0
  9 10  1  0  0  0  0
 10 11  2  0  0  0  0
M  END
>  <CHROM.1>
11.65843999,11.58857562,7.14314349,0.44347675,-1.23761335,1.43647303

>  <Name>
ligand

>  <RI>
0

>  <Rbt.Current_Directory>
/home/itssahil/PROJECTS/Mol_Feturizer/New_Systems/rnas/4FEO

>  <Rbt.Executable>
rbdock ($Id: //depot/dev/client3/rdock/2013.1/src/exe/rbdock.cxx#4 $)

>  <Rbt.Library>
libRbt.so (2013.1, Build901 2013/11/27)

>  <Rbt.Parameter_File>
/export/apps/rDock/src/rDock_2013.1_src/data/scripts/dock_solv.prm

>  <Rbt.Receptor>
prm/blind_docking_20.prm

>  <SCORE>
-8.03159

>  <SCORE.INTER>
-8.58584

>  <SCORE.INTER.CONST>
1

>  <SCORE.INTER.POLAR>
0

>  <SCORE.INTER.ROT>
0

>  <SCORE.INTER.SOLV>
18.6183

>  <SCORE.INTER.VDW>
-15.53

>  <SCORE.INTER.norm>
-0.780531

>  <SCORE.INTRA>
0

>  <SCORE.INTRA.DIHEDRAL>
0

>  <SCORE.INTRA.DIHEDRAL.0>
0

>  <SCORE.INTRA.POLAR>
0

>  <SCORE.INTRA.POLAR.0>
0

>  <SCORE.INTRA.REPUL>
0

>  <SCORE.INTRA.REPUL.0>
0

>  <SCORE.INTRA.SOLV>
0

>  <SCORE.INTRA.SOLV.lig_0>
-48.9252

>  <SCORE.INTRA.VDW>
0

>  <SCORE.INTRA.VDW.0>
0

>  <SCORE.INTRA.norm>
0

>  <SCORE.RESTR>
0.554246

>  <SCORE.RESTR.CAVITY>
0.554246

>  <SCORE.RESTR.norm>
0.050386

>  <SCORE.SYSTEM>
0

>  <SCORE.SYSTEM.CONST>
0

>  <SCORE.SYSTEM.DIHEDRAL>
0

>  <SCORE.SYSTEM.SOLV>
0

>  <SCORE.SYSTEM.norm>
0

>  <SCORE.heavy>
11

>  <SCORE.norm>
-0.730145

>  <RMSD>
2.866

$$$$
ligand
 OpenBabel11021811493D
libRbt.so/2013.1/901 2013/11/27
 11 12  0  0  0  0  0  0  0  0999 V2000
   12.0745   10.7703    8.6747 N   0  0  0  0  0  0  0  0  0  0  0  0
   12.2352    9.8986    7.6622 C   0  0  0  0  0  0  0  0  0  0  0  0
   12.6640    8.6082    7.9378 N   0  0  0  0  0  0  0  0  0  0  0  0
   11.9914   10.2494    6.3896 N   0  0  0  0  0  0  0  0  0  0  0  0
   11.5814   11.4878    6.0729 C   0  0  0  0  0  0  0  0  0  0  0  0
   11.3954   12.4430    7.0975 C   0  0  0  0  0  0  0  0  0  0  0  0
   11.6604   12.0343    8.4421 C   0  0  0  0  0  0  0  0  0  0  0  0
   11.4993   12.9104    9.4875 N   0  0  0  0  0  0  0  0  0  0  0  0
   10.9828   13.5983    6.5018 N   0  0  0  0  0  0  0  0  0  0  0  0
   10.9110   13.4149    5.2176 C   0  0  0  0  0  0  0  0  0  0  0  0
   11.2667   12.1285    4.9000 N   0  0  0  0  0  0  0  0  0  0  0  0
  1  7  2  0  0  0  0
  1  2  1  0  0  0  0
  2  3  1  0  0  0  0
  2  4  2  0  0  0  0
  4  5  1  0  0  0  0
  5  6  2  0  0  0  0
  5 11  1  0  0  0  0
  6  7  1  0  0  0  0
  6  9  1  0  0  0  0
  7  8  1  0  0  0  0
  9 10  1  0  0  0  0
 10 11  2  0  0  0  0
M  END
>  <CHROM.1>
11.66734909,11.57681232,7.14153502,0.26156775,-1.25798573,1.24618482

>  <Name>
ligand

>  <RI>
0

>  <Rbt.Current_Directory>
/home/itssahil/PROJECTS/Mol_Feturizer/New_Systems/rnas/4FEO

>  <Rbt.Executable>
rbdock ($Id: //depot/dev/client3/rdock/2013.1/src/exe/rbdock.cxx#4 $)

>  <Rbt.Library>
libRbt.so (2013.1, Build901 2013/11/27)

>  <Rbt.Parameter_File>
/export/apps/rDock/src/rDock_2013.1_src/data/scripts/dock_solv.prm

>  <Rbt.Receptor>
prm/blind_docking_20.prm

>  <SCORE>
-8.05889

>  <SCORE.INTER>
-8.62237

>  <SCORE.INTER.CONST>
1

>  <SCORE.INTER.POLAR>
0

>  <SCORE.INTER.ROT>
0

>  <SCORE.INTER.SOLV>
18.3813

>  <SCORE.INTER.VDW>
-15.4753

>  <SCORE.INTER.norm>
-0.783852

>  <SCORE.INTRA>
0

>  <SCORE.INTRA.DIHEDRAL>
0

>  <SCORE.INTRA.DIHEDRAL.0>
0

>  <SCORE.INTRA.POLAR>
0

>  <SCORE.INTRA.POLAR.0>
0

>  <SCORE.INTRA.REPUL>
0

>  <SCORE.INTRA.REPUL.0>
0

>  <SCORE.INTRA.SOLV>
0

>  <SCORE.INTRA.SOLV.lig_0>
-48.9252

>  <SCORE.INTRA.VDW>
0

>  <SCORE.INTRA.VDW.0>
0

>  <SCORE.INTRA.norm>
0

>  <SCORE.RESTR>
0.563477

>  <SCORE.RESTR.CAVITY>
0.563477

>  <SCORE.RESTR.norm>
0.0512252

>  <SCORE.SYSTEM>
0

>  <SCORE.SYSTEM.CONST>
0

>  <SCORE.SYSTEM.DIHEDRAL>
0

>  <SCORE.SYSTEM.SOLV>
0

>  <SCORE.SYSTEM.norm>
0

>  <SCORE.heavy>
11

>  <SCORE.norm>
-0.732627

>  <RMSD>
2.866

$$$$
ligand
 OpenBabel11021811493D
libRbt.so/2013.1/901 2013/11/27
 11 12  0  0  0  0  0  0  0  0999 V2000
   12.0960   10.7649    8.6836 N   0  0  0  0  0  0  0  0  0  0  0  0
   12.3059    9.9124    7.6638 C   0  0  0  0  0  0  0  0  0  0  0  0
   12.7750    8.6344    7.9316 N   0  0  0  0  0  0  0  0  0  0  0  0
   12.0730   10.2707    6.3912 N   0  0  0  0  0  0  0  0  0  0  0  0
   11.6252   11.4978    6.0820 C   0  0  0  0  0  0  0  0  0  0  0  0
   11.3869   12.4327    7.1144 C   0  0  0  0  0  0  0  0  0  0  0  0
   11.6419   12.0164    8.4587 C   0  0  0  0  0  0  0  0  0  0  0  0
   11.4309   12.8728    9.5115 N   0  0  0  0  0  0  0  0  0  0  0  0
   10.9446   13.5804    6.5252 N   0  0  0  0  0  0  0  0  0  0  0  0
   10.9027   13.4110    5.2378 C   0  0  0  0  0  0  0  0  0  0  0  0
   11.3094   12.1420    4.9113 N   0  0  0  0  0  0  0  0  0  0  0  0
  1  7  2  0  0  0  0
  1  2  1  0  0  0  0
  2  3  1  0  0  0  0
  2  4  2  0  0  0  0
  4  5  1  0  0  0  0
  5  6  2  0  0  0  0
  5 11  1  0  0  0  0
  6  7  1  0  0  0  0
  6  9  1  0  0  0  0
  7  8  1  0  0  0  0
  9 10  1  0  0  0  0
 10 11  2  0  0  0  0
M  END
>  <CHROM.1>
11.68856038,11.57614770,7.15301386,0.34668870,-1.22908953,1.33927163

>  <Name>
ligand

>  <RI>
0

>  <Rbt.Current_Directory>
/home/itssahil/PROJECTS/Mol_Feturizer/New_Systems/rnas/4FEO

>  <Rbt.Executable>
rbdock ($Id: //depot/dev/client3/rdock/2013.1/src/exe/rbdock.cxx#4 $)

>  <Rbt.Library>
libRbt.so (2013.1, Build901 2013/11/27)

>  <Rbt.Parameter_File>
/export/apps/rDock/src/rDock_2013.1_src/data/scripts/dock_solv.prm

>  <Rbt.Receptor>
prm/blind_docking_20.prm

>  <SCORE>
-8.00426

>  <SCORE.INTER>
-8.56863

>  <SCORE.INTER.CONST>
1

>  <SCORE.INTER.POLAR>
0

>  <SCORE.INTER.ROT>
0

>  <SCORE.INTER.SOLV>
18.2477

>  <SCORE.INTER.VDW>
-15.395

>  <SCORE.INTER.norm>
-0.778966

>  <SCORE.INTRA>
0

>  <SCORE.INTRA.DIHEDRAL>
0

>  <SCORE.INTRA.DIHEDRAL.0>
0

>  <SCORE.INTRA.POLAR>
0

>  <SCORE.INTRA.POLAR.0>
0

>  <SCORE.INTRA.REPUL>
0

>  <SCORE.INTRA.REPUL.0>
0

>  <SCORE.INTRA.SOLV>
0

>  <SCORE.INTRA.SOLV.lig_0>
-48.9252

>  <SCORE.INTRA.VDW>
0

>  <SCORE.INTRA.VDW.0>
0

>  <SCORE.INTRA.norm>
0

>  <SCORE.RESTR>
0.56437

>  <SCORE.RESTR.CAVITY>
0.56437

>  <SCORE.RESTR.norm>
0.0513063

>  <SCORE.SYSTEM>
0

>  <SCORE.SYSTEM.CONST>
0

>  <SCORE.SYSTEM.DIHEDRAL>
0

>  <SCORE.SYSTEM.SOLV>
0

>  <SCORE.SYSTEM.norm>
0

>  <SCORE.heavy>
11

>  <SCORE.norm>
-0.72766

>  <RMSD>
2.866

$$$$
ligand
 OpenBabel11021811493D
libRbt.so/2013.1/901 2013/11/27
 11 12  0  0  0  0  0  0  0  0999 V2000
   12.4246   10.7467    8.7614 N   0  0  0  0  0  0  0  0  0  0  0  0
   12.3802   10.0094    7.6366 C   0  0  0  0  0  0  0  0  0  0  0  0
   12.7543    8.6742    7.6838 N   0  0  0  0  0  0  0  0  0  0  0  0
   11.9832   10.5369    6.4678 N   0  0  0  0  0  0  0  0  0  0  0  0
   11.6182   11.8251    6.3711 C   0  0  0  0  0  0  0  0  0  0  0  0
   11.6451   12.6447    7.5218 C   0  0  0  0  0  0  0  0  0  0  0  0
   12.0693   12.0493    8.7509 C   0  0  0  0  0  0  0  0  0  0  0  0
   12.1183   12.7866    9.9087 N   0  0  0  0  0  0  0  0  0  0  0  0
   11.2324   13.8877    7.1415 N   0  0  0  0  0  0  0  0  0  0  0  0
   10.9670   13.8792    5.8697 C   0  0  0  0  0  0  0  0  0  0  0  0
   11.1852   12.6299    5.3463 N   0  0  0  0  0  0  0  0  0  0  0  0
  1  7  2  0  0  0  0
  1  2  1  0  0  0  0
  2  3  1  0  0  0  0
  2  4  2  0  0  0  0
  4  5  1  0  0  0  0
  5  6  2  0  0  0  0
  5 11  1  0  0  0  0
  6  7  1  0  0  0  0
  6  9  1  0  0  0  0
  7  8  1  0  0  0  0
  9 10  1  0  0  0  0
 10 11  2  0  0  0  0
M  END
>  <CHROM.1>
11.86057465,11.76783920,7.41756880,-0.23937188,-1.23972320,0.89883438

>  <Name>
ligand

>  <RI>
0

>  <Rbt.Current_Directory>
/home/itssahil/PROJECTS/Mol_Feturizer/New_Systems/rnas/4FEO

>  <Rbt.Executable>
rbdock ($Id: //depot/dev/client3/rdock/2013.1/src/exe/rbdock.cxx#4 $)

>  <Rbt.Library>
libRbt.so (2013.1, Build901 2013/11/27)

>  <Rbt.Parameter_File>
/export/apps/rDock/src/rDock_2013.1_src/data/scripts/dock_solv.prm

>  <Rbt.Receptor>
prm/pocket_docking_4.prm

>  <SCORE>
-9.9366

>  <SCORE.INTER>
-9.9366

>  <SCORE.INTER.CONST>
1

>  <SCORE.INTER.POLAR>
0

>  <SCORE.INTER.ROT>
0

>  <SCORE.INTER.SOLV>
17.6175

>  <SCORE.INTER.VDW>
-16.0969

>  <SCORE.INTER.norm>
-0.903327

>  <SCORE.INTRA>
0

>  <SCORE.INTRA.DIHEDRAL>
0

>  <SCORE.INTRA.DIHEDRAL.0>
0

>  <SCORE.INTRA.POLAR>
0

>  <SCORE.INTRA.POLAR.0>
0

>  <SCORE.INTRA.REPUL>
0

>  <SCORE.INTRA.REPUL.0>
0

>  <SCORE.INTRA.SOLV>
0

>  <SCORE.INTRA.SOLV.lig_0>
-48.9252

>  <SCORE.INTRA.VDW>
0

>  <SCORE.INTRA.VDW.0>
0

>  <SCORE.INTRA.norm>
0

>  <SCORE.RESTR>
0

>  <SCORE.RESTR.CAVITY>
0

>  <SCORE.RESTR.norm>
0

>  <SCORE.SYSTEM>
0

>  <SCORE.SYSTEM.CONST>
0

>  <SCORE.SYSTEM.DIHEDRAL>
0

>  <SCORE.SYSTEM.SOLV>
0

>  <SCORE.SYSTEM.norm>
0

>  <SCORE.heavy>
11

>  <SCORE.norm>
-0.903327

>  <RMSD>
2.866

$$$$
ligand
 OpenBabel11021811493D
libRbt.so/2013.1/901 2013/11/27
 11 12  0  0  0  0  0  0  0  0999 V2000
   12.4681   10.7289    8.7508 N   0  0  0  0  0  0  0  0  0  0  0  0
   12.3931    9.9589    7.6498 C   0  0  0  0  0  0  0  0  0  0  0  0
   12.7777    8.6279    7.7237 N   0  0  0  0  0  0  0  0  0  0  0  0
   11.9557   10.4497    6.4794 N   0  0  0  0  0  0  0  0  0  0  0  0
   11.5790   11.7323    6.3571 C   0  0  0  0  0  0  0  0  0  0  0  0
   11.6368   12.5853    7.4821 C   0  0  0  0  0  0  0  0  0  0  0  0
   12.1038   12.0286    8.7139 C   0  0  0  0  0  0  0  0  0  0  0  0
   12.1844   12.7996    9.8476 N   0  0  0  0  0  0  0  0  0  0  0  0
   11.2037   13.8142    7.0793 N   0  0  0  0  0  0  0  0  0  0  0  0
   10.8982   13.7671    5.8174 C   0  0  0  0  0  0  0  0  0  0  0  0
   11.1082   12.5043    5.3238 N   0  0  0  0  0  0  0  0  0  0  0  0
  1  7  2  0  0  0  0
  1  2  1  0  0  0  0
  2  3  1  0  0  0  0
  2  4  2  0  0  0  0
  4  5  1  0  0  0  0
  5  6  2  0  0  0  0
  5 11  1  0  0  0  0
  6  7  1  0  0  0  0
  6  9  1  0  0  0  0
  7  8  1  0  0  0  0
  9 10  1  0  0  0  0
 10 11  2  0  0  0  0
M  END
>  <CHROM.1>
11.85484697,11.70707428,7.39654430,-0.29823206,-1.21406900,0.81432315

>  <Name>
ligand

>  <RI>
0

>  <Rbt.Current_Directory>
/home/itssahil/PROJECTS/Mol_Feturizer/New_Systems/rnas/4FEO

>  <Rbt.Executable>
rbdock ($Id: //depot/dev/client3/rdock/2013.1/src/exe/rbdock.cxx#4 $)

>  <Rbt.Library>
libRbt.so (2013.1, Build901 2013/11/27)

>  <Rbt.Parameter_File>
/export/apps/rDock/src/rDock_2013.1_src/data/scripts/dock_solv.prm

>  <Rbt.Receptor>
prm/pocket_docking_4.prm

>  <SCORE>
-9.88911

>  <SCORE.INTER>
-9.88911

>  <SCORE.INTER.CONST>
1

>  <SCORE.INTER.POLAR>
0

>  <SCORE.INTER.ROT>
0

>  <SCORE.INTER.SOLV>
17.4236

>  <SCORE.INTER.VDW>
-16.0006

>  <SCORE.INTER.norm>
-0.89901

>  <SCORE.INTRA>
0

>  <SCORE.INTRA.DIHEDRAL>
0

>  <SCORE.INTRA.DIHEDRAL.0>
0

>  <SCORE.INTRA.POLAR>
0

>  <SCORE.INTRA.POLAR.0>
0

>  <SCORE.INTRA.REPUL>
0

>  <SCORE.INTRA.REPUL.0>
0

>  <SCORE.INTRA.SOLV>
0

>  <SCORE.INTRA.SOLV.lig_0>
-48.9252

>  <SCORE.INTRA.VDW>
0

>  <SCORE.INTRA.VDW.0>
0

>  <SCORE.INTRA.norm>
0

>  <SCORE.RESTR>
0

>  <SCORE.RESTR.CAVITY>
0

>  <SCORE.RESTR.norm>
0

>  <SCORE.SYSTEM>
0

>  <SCORE.SYSTEM.CONST>
0

>  <SCORE.SYSTEM.DIHEDRAL>
0

>  <SCORE.SYSTEM.SOLV>
0

>  <SCORE.SYSTEM.norm>
0

>  <SCORE.heavy>
11

>  <SCORE.norm>
-0.89901

>  <RMSD>
2.866

$$$$
ligand
 OpenBabel11021811493D
libRbt.so/2013.1/901 2013/11/27
 11 12  0  0  0  0  0  0  0  0999 V2000
   12.4493   10.7342    8.7430 N   0  0  0  0  0  0  0  0  0  0  0  0
   12.3881    9.9672    7.6390 C   0  0  0  0  0  0  0  0  0  0  0  0
   12.7751    8.6368    7.7133 N   0  0  0  0  0  0  0  0  0  0  0  0
   11.9622   10.4602    6.4654 N   0  0  0  0  0  0  0  0  0  0  0  0
   11.5837   11.7424    6.3427 C   0  0  0  0  0  0  0  0  0  0  0  0
   11.6272   12.5922    7.4708 C   0  0  0  0  0  0  0  0  0  0  0  0
   12.0822   12.0330    8.7059 C   0  0  0  0  0  0  0  0  0  0  0  0
   12.1487   12.8010    9.8426 N   0  0  0  0  0  0  0  0  0  0  0  0
   11.1955   13.8212    7.0668 N   0  0  0  0  0  0  0  0  0  0  0  0
   10.9038   13.7770    5.8015 C   0  0  0  0  0  0  0  0  0  0  0  0
   11.1223   12.5162    5.3066 N   0  0  0  0  0  0  0  0  0  0  0  0
  1  7  2  0  0  0  0
  1  2  1  0  0  0  0
  2  3  1  0  0  0  0
  2  4  2  0  0  0  0
  4  5  1  0  0  0  0
  5  6  2  0  0  0  0
  5 11  1  0  0  0  0
  6  7  1  0  0  0  0
  6  9  1  0  0  0  0
  7  8  1  0  0  0  0
  9 10  1  0  0  0  0
 10 11  2  0  0  0  0
M  END
>  <CHROM.1>
11.84832861,11.71475489,7.38501340,-0.27048180,-1.21959337,0.84323769

>  <Name>
ligand

>  <RI>
0

>  <Rbt.Current_Directory>
/home/itssahil/PROJECTS/Mol_Feturizer/New_Systems/rnas/4FEO

>  <Rbt.Executable>
rbdock ($Id: //depot/dev/client3/rdock/2013.1/src/exe/rbdock.cxx#4 $)

>  <Rbt.Library>
libRbt.so (2013.1, Build901 2013/11/27)

>  <Rbt.Parameter_File>
/export/apps/rDock/src/rDock_2013.1_src/data/scripts/dock_solv.prm

>  <Rbt.Receptor>
prm/pocket_docking_7.prm

>  <SCORE>
-9.89444

>  <SCORE.INTER>
-9.90438

>  <SCORE.INTER.CONST>
1

>  <SCORE.INTER.POLAR>
0

>  <SCORE.INTER.ROT>
0

>  <SCORE.INTER.SOLV>
17.4342

>  <SCORE.INTER.VDW>
-16.0143

>  <SCORE.INTER.norm>
-0.900399

>  <SCORE.INTRA>
0

>  <SCORE.INTRA.DIHEDRAL>
0

>  <SCORE.INTRA.DIHEDRAL.0>
0

>  <SCORE.INTRA.POLAR>
0

>  <SCORE.INTRA.POLAR.0>
0

>  <SCORE.INTRA.REPUL>
0

>  <SCORE.INTRA.REPUL.0>
0

>  <SCORE.INTRA.SOLV>
0

>  <SCORE.INTRA.SOLV.lig_0>
-48.9252

>  <SCORE.INTRA.VDW>
0

>  <SCORE.INTRA.VDW.0>
0

>  <SCORE.INTRA.norm>
0

>  <SCORE.RESTR>
0.0099468

>  <SCORE.RESTR.CAVITY>
0.0099468

>  <SCORE.RESTR.norm>
0.000904255

>  <SCORE.SYSTEM>
0

>  <SCORE.SYSTEM.CONST>
0

>  <SCORE.SYSTEM.DIHEDRAL>
0

>  <SCORE.SYSTEM.SOLV>
0

>  <SCORE.SYSTEM.norm>
0

>  <SCORE.heavy>
11

>  <SCORE.norm>
-0.899494

>  <RMSD>
2.866

$$$$
ligand
 OpenBabel11021811493D
libRbt.so/2013.1/901 2013/11/27
 11 12  0  0  0  0  0  0  0  0999 V2000
   12.4119   10.7410    8.7603 N   0  0  0  0  0  0  0  0  0  0  0  0
   12.3658   10.0046    7.6351 C   0  0  0  0  0  0  0  0  0  0  0  0
   12.7353    8.6681    7.6817 N   0  0  0  0  0  0  0  0  0  0  0  0
   11.9713   10.5341    6.4663 N   0  0  0  0  0  0  0  0  0  0  0  0
   11.6108   11.8236    6.3701 C   0  0  0  0  0  0  0  0  0  0  0  0
   11.6398   12.6424    7.5213 C   0  0  0  0  0  0  0  0  0  0  0  0
   12.0612   12.0449    8.7504 C   0  0  0  0  0  0  0  0  0  0  0  0
   12.1119   12.7813    9.9086 N   0  0  0  0  0  0  0  0  0  0  0  0
   11.2316   13.8870    7.1414 N   0  0  0  0  0  0  0  0  0  0  0  0
   10.9670   13.8802    5.8695 C   0  0  0  0  0  0  0  0  0  0  0  0
   11.1813   12.6305    5.3455 N   0  0  0  0  0  0  0  0  0  0  0  0
  1  7  2  0  0  0  0
  1  2  1  0  0  0  0
  2  3  1  0  0  0  0
  2  4  2  0  0  0  0
  4  5  1  0  0  0  0
  5  6  2  0  0  0  0
  5 11  1  0  0  0  0
  6  7  1  0  0  0  0
  6  9  1  0  0  0  0
  7  8  1  0  0  0  0
  9 10  1  0  0  0  0
 10 11  2  0  0  0  0
M  END
>  <CHROM.1>
11.85234967,11.76489484,7.41670799,-0.24439468,-1.24281713,0.89466289

>  <Name>
ligand

>  <RI>
0

>  <Rbt.Current_Directory>
/home/itssahil/PROJECTS/Mol_Feturizer/New_Systems/rnas/4FEO

>  <Rbt.Executable>
rbdock ($Id: //depot/dev/client3/rdock/2013.1/src/exe/rbdock.cxx#4 $)

>  <Rbt.Library>
libRbt.so (2013.1, Build901 2013/11/27)

>  <Rbt.Parameter_File>
/export/apps/rDock/src/rDock_2013.1_src/data/scripts/dock_solv.prm

>  <Rbt.Receptor>
prm/pocket_docking_7.prm

>  <SCORE>
-9.93338

>  <SCORE.INTER>
-9.93338

>  <SCORE.INTER.CONST>
1

>  <SCORE.INTER.POLAR>
0

>  <SCORE.INTER.ROT>
0

>  <SCORE.INTER.SOLV>
17.6664

>  <SCORE.INTER.VDW>
-16.111

>  <SCORE.INTER.norm>
-0.903034

>  <SCORE.INTRA>
0

>  <SCORE.INTRA.DIHEDRAL>
0

>  <SCORE.INTRA.DIHEDRAL.0>
0

>  <SCORE.INTRA.POLAR>
0

>  <SCORE.INTRA.POLAR.0>
0

>  <SCORE.INTRA.REPUL>
0

>  <SCORE.INTRA.REPUL.0>
0

>  <SCORE.INTRA.SOLV>
0

>  <SCORE.INTRA.SOLV.lig_0>
-48.9252

>  <SCORE.INTRA.VDW>
0

>  <SCORE.INTRA.VDW.0>
0

>  <SCORE.INTRA.norm>
0

>  <SCORE.RESTR>
0

>  <SCORE.RESTR.CAVITY>
0

>  <SCORE.RESTR.norm>
0

>  <SCORE.SYSTEM>
0

>  <SCORE.SYSTEM.CONST>
0

>  <SCORE.SYSTEM.DIHEDRAL>
0

>  <SCORE.SYSTEM.SOLV>
0

>  <SCORE.SYSTEM.norm>
0

>  <SCORE.heavy>
11

>  <SCORE.norm>
-0.903034

>  <RMSD>
2.866

$$$$
ligand
 OpenBabel11021811493D
libRbt.so/2013.1/901 2013/11/27
 11 12  0  0  0  0  0  0  0  0999 V2000
   12.4192   10.7436    8.7612 N   0  0  0  0  0  0  0  0  0  0  0  0
   12.3763   10.0073    7.6358 C   0  0  0  0  0  0  0  0  0  0  0  0
   12.7501    8.6719    7.6824 N   0  0  0  0  0  0  0  0  0  0  0  0
   11.9810   10.5357    6.4668 N   0  0  0  0  0  0  0  0  0  0  0  0
   11.6163   11.8241    6.3706 C   0  0  0  0  0  0  0  0  0  0  0  0
   11.6418   12.6428    7.5220 C   0  0  0  0  0  0  0  0  0  0  0  0
   12.0643   12.0464    8.7512 C   0  0  0  0  0  0  0  0  0  0  0  0
   12.1118   12.7827    9.9096 N   0  0  0  0  0  0  0  0  0  0  0  0
   11.2298   13.8861    7.1421 N   0  0  0  0  0  0  0  0  0  0  0  0
   10.9662   13.8787    5.8699 C   0  0  0  0  0  0  0  0  0  0  0  0
   11.1849   12.6298    5.3459 N   0  0  0  0  0  0  0  0  0  0  0  0
  1  7  2  0  0  0  0
  1  2  1  0  0  0  0
  2  3  1  0  0  0  0
  2  4  2  0  0  0  0
  4  5  1  0  0  0  0
  5  6  2  0  0  0  0
  5 11  1  0  0  0  0
  6  7  1  0  0  0  0
  6  9  1  0  0  0  0
  7  8  1  0  0  0  0
  9 10  1  0  0  0  0
 10 11  2  0  0  0  0
M  END
>  <CHROM.1>
11.85729072,11.76595686,7.41736868,-0.23640569,-1.24071999,0.90242091

>  <Name>
ligand

>  <RI>
0

>  <Rbt.Current_Directory>
/home/itssahil/PROJECTS/Mol_Feturizer/New_Systems/rnas/4FEO

>  <Rbt.Executable>
rbdock ($Id: //depot/dev/client3/rdock/2013.1/src/exe/rbdock.cxx#4 $)

>  <Rbt.Library>
libRbt.so (2013.1, Build901 2013/11/27)

>  <Rbt.Parameter_File>
/export/apps/rDock/src/rDock_2013.1_src/data/scripts/dock_solv.prm

>  <Rbt.Receptor>
prm/pocket_docking_7.prm

>  <SCORE>
-9.93657

>  <SCORE.INTER>
-9.93657

>  <SCORE.INTER.CONST>
1

>  <SCORE.INTER.POLAR>
0

>  <SCORE.INTER.ROT>
0

>  <SCORE.INTER.SOLV>
17.6264

>  <SCORE.INTER.VDW>
-16.0998

>  <SCORE.INTER.norm>
-0.903325

>  <SCORE.INTRA>
0

>  <SCORE.INTRA.DIHEDRAL>
0

>  <SCORE.INTRA.DIHEDRAL.0>
0

>  <SCORE.INTRA.POLAR>
0

>  <SCORE.INTRA.POLAR.0>
0

>  <SCORE.INTRA.REPUL>
0

>  <SCORE.INTRA.REPUL.0>
0

>  <SCORE.INTRA.SOLV>
0

>  <SCORE.INTRA.SOLV.lig_0>
-48.9252

>  <SCORE.INTRA.VDW>
0

>  <SCORE.INTRA.VDW.0>
0

>  <SCORE.INTRA.norm>
0

>  <SCORE.RESTR>
0

>  <SCORE.RESTR.CAVITY>
0

>  <SCORE.RESTR.norm>
0

>  <SCORE.SYSTEM>
0

>  <SCORE.SYSTEM.CONST>
0

>  <SCORE.SYSTEM.DIHEDRAL>
0

>  <SCORE.SYSTEM.SOLV>
0

>  <SCORE.SYSTEM.norm>
0

>  <SCORE.heavy>
11

>  <SCORE.norm>
-0.903325

>  <RMSD>
2.866

$$$$
ligand
 OpenBabel11021811493D
libRbt.so/2013.1/901 2013/11/27
 11 12  0  0  0  0  0  0  0  0999 V2000
   12.4289   10.7451    8.7609 N   0  0  0  0  0  0  0  0  0  0  0  0
   12.3961   10.0106    7.6339 C   0  0  0  0  0  0  0  0  0  0  0  0
   12.7811    8.6784    7.6793 N   0  0  0  0  0  0  0  0  0  0  0  0
   12.0004   10.5380    6.4646 N   0  0  0  0  0  0  0  0  0  0  0  0
   11.6253   11.8234    6.3696 C   0  0  0  0  0  0  0  0  0  0  0  0
   11.6397   12.6400    7.5227 C   0  0  0  0  0  0  0  0  0  0  0  0
   12.0629   12.0448    8.7523 C   0  0  0  0  0  0  0  0  0  0  0  0
   12.1001   12.7792    9.9123 N   0  0  0  0  0  0  0  0  0  0  0  0
   11.2186   13.8806    7.1437 N   0  0  0  0  0  0  0  0  0  0  0  0
   10.9595   13.8734    5.8707 C   0  0  0  0  0  0  0  0  0  0  0  0
   11.1906   12.6274    5.3449 N   0  0  0  0  0  0  0  0  0  0  0  0
  1  7  2  0  0  0  0
  1  2  1  0  0  0  0
  2  3  1  0  0  0  0
  2  4  2  0  0  0  0
  4  5  1  0  0  0  0
  5  6  2  0  0  0  0
  5 11  1  0  0  0  0
  6  7  1  0  0  0  0
  6  9  1  0  0  0  0
  7  8  1  0  0  0  0
  9 10  1  0  0  0  0
 10 11  2  0  0  0  0
M  END
>  <CHROM.1>
11.86301444,11.76524889,7.41712449,-0.21201199,-1.23615656,0.92744257

>  <Name>
ligand

>  <RI>
0

>  <Rbt.Current_Directory>
/home/itssahil/PROJECTS/Mol_Feturizer/New_Systems/rnas/4FEO

>  <Rbt.Executable>
rbdock ($Id: //depot/dev/client3/rdock/2013.1/src/exe/rbdock.cxx#4 $)

>  <Rbt.Library>
libRbt.so (2013.1, Build901 2013/11/27)

>  <Rbt.Parameter_File>
/export/apps/rDock/src/rDock_2013.1_src/data/scripts/dock_solv.prm

>  <Rbt.Receptor>
prm/blind_docking_100.prm

>  <SCORE>
-9.94061

>  <SCORE.INTER>
-9.94061

>  <SCORE.INTER.CONST>
1

>  <SCORE.INTER.POLAR>
0

>  <SCORE.INTER.ROT>
0

>  <SCORE.INTER.SOLV>
17.5267

>  <SCORE.INTER.VDW>
-16.0693

>  <SCORE.INTER.norm>
-0.903692

>  <SCORE.INTRA>
0

>  <SCORE.INTRA.DIHEDRAL>
0

>  <SCORE.INTRA.DIHEDRAL.0>
0

>  <SCORE.INTRA.POLAR>
0

>  <SCORE.INTRA.POLAR.0>
0

>  <SCORE.INTRA.REPUL>
0

>  <SCORE.INTRA.REPUL.0>
0

>  <SCORE.INTRA.SOLV>
0

>  <SCORE.INTRA.SOLV.lig_0>
-48.9252

>  <SCORE.INTRA.VDW>
0

>  <SCORE.INTRA.VDW.0>
0

>  <SCORE.INTRA.norm>
0

>  <SCORE.RESTR>
0

>  <SCORE.RESTR.CAVITY>
0

>  <SCORE.RESTR.norm>
0

>  <SCORE.SYSTEM>
0

>  <SCORE.SYSTEM.CONST>
0

>  <SCORE.SYSTEM.DIHEDRAL>
0

>  <SCORE.SYSTEM.SOLV>
0

>  <SCORE.SYSTEM.norm>
0

>  <SCORE.heavy>
11

>  <SCORE.norm>
-0.903692

>  <RMSD>
2.867

$$$$
ligand
 OpenBabel11021811493D
libRbt.so/2013.1/901 2013/11/27
 11 12  0  0  0  0  0  0  0  0999 V2000
   12.0422   10.7640    8.6786 N   0  0  0  0  0  0  0  0  0  0  0  0
   12.2593    9.9112    7.6606 C   0  0  0  0  0  0  0  0  0  0  0  0
   12.7118    8.6283    7.9334 N   0  0  0  0  0  0  0  0  0  0  0  0
   12.0494   10.2737    6.3853 N   0  0  0  0  0  0  0  0  0  0  0  0
   11.6184   11.5057    6.0714 C   0  0  0  0  0  0  0  0  0  0  0  0
   11.3735   12.4412    7.1017 C   0  0  0  0  0  0  0  0  0  0  0  0
   11.6038   12.0203    8.4489 C   0  0  0  0  0  0  0  0  0  0  0  0
   11.3850   12.8771    9.4999 N   0  0  0  0  0  0  0  0  0  0  0  0
   10.9515   13.5941    6.5078 N   0  0  0  0  0  0  0  0  0  0  0  0
   10.9276   13.4272    5.2196 C   0  0  0  0  0  0  0  0  0  0  0  0
   11.3268   12.1548    4.8971 N   0  0  0  0  0  0  0  0  0  0  0  0
  1  7  2  0  0  0  0
  1  2  1  0  0  0  0
  2  3  1  0  0  0  0
  2  4  2  0  0  0  0
  4  5  1  0  0  0  0
  5  6  2  0  0  0  0
  5 11  1  0  0  0  0
  6  7  1  0  0  0  0
  6  9  1  0  0  0  0
  7  8  1  0  0  0  0
  9 10  1  0  0  0  0
 10 11  2  0  0  0  0
M  END
>  <CHROM.1>
11.66610938,11.58168227,7.14338992,0.38586241,-1.24187102,1.37792574

>  <Name>
ligand

>  <RI>
0

>  <Rbt.Current_Directory>
/home/itssahil/PROJECTS/Mol_Feturizer/New_Systems/rnas/4FEO

>  <Rbt.Executable>
rbdock ($Id: //depot/dev/client3/rdock/2013.1/src/exe/rbdock.cxx#4 $)

>  <Rbt.Library>
libRbt.so (2013.1, Build901 2013/11/27)

>  <Rbt.Parameter_File>
/export/apps/rDock/src/rDock_2013.1_src/data/scripts/dock_solv.prm

>  <Rbt.Receptor>
prm/blind_docking_20.prm

>  <SCORE>
-8.04931

>  <SCORE.INTER>
-8.60543

>  <SCORE.INTER.CONST>
1

>  <SCORE.INTER.POLAR>
0

>  <SCORE.INTER.ROT>
0

>  <SCORE.INTER.SOLV>
18.4729

>  <SCORE.INTER.VDW>
-15.4946

>  <SCORE.INTER.norm>
-0.782312

>  <SCORE.INTRA>
0

>  <SCORE.INTRA.DIHEDRAL>
0

>  <SCORE.INTRA.DIHEDRAL.0>
0

>  <SCORE.INTRA.POLAR>
0

>  <SCORE.INTRA.POLAR.0>
0

>  <SCORE.INTRA.REPUL>
0

>  <SCORE.INTRA.REPUL.0>
0

>  <SCORE.INTRA.SOLV>
0

>  <SCORE.INTRA.SOLV.lig_0>
-48.9252

>  <SCORE.INTRA.VDW>
0

>  <SCORE.INTRA.VDW.0>
0

>  <SCORE.INTRA.norm>
0

>  <SCORE.RESTR>
0.556123

>  <SCORE.RESTR.CAVITY>
0.556123

>  <SCORE.RESTR.norm>
0.0505566

>  <SCORE.SYSTEM>
0

>  <SCORE.SYSTEM.CONST>
0

>  <SCORE.SYSTEM.DIHEDRAL>
0

>  <SCORE.SYSTEM.SOLV>
0

>  <SCORE.SYSTEM.norm>
0

>  <SCORE.heavy>
11

>  <SCORE.norm>
-0.731755

>  <RMSD>
2.867

$$$$
ligand
 OpenBabel11021811493D
libRbt.so/2013.1/901 2013/11/27
 11 12  0  0  0  0  0  0  0  0999 V2000
   12.0455   10.7667    8.6722 N   0  0  0  0  0  0  0  0  0  0  0  0
   12.2525    9.9124    7.6533 C   0  0  0  0  0  0  0  0  0  0  0  0
   12.7073    8.6298    7.9235 N   0  0  0  0  0  0  0  0  0  0  0  0
   12.0303   10.2732    6.3796 N   0  0  0  0  0  0  0  0  0  0  0  0
   11.5965   11.5049    6.0682 C   0  0  0  0  0  0  0  0  0  0  0  0
   11.3619   12.4419    7.0995 C   0  0  0  0  0  0  0  0  0  0  0  0
   11.6051   12.0228    8.4450 C   0  0  0  0  0  0  0  0  0  0  0  0
   11.3968   12.8811    9.4969 N   0  0  0  0  0  0  0  0  0  0  0  0
   10.9343   13.5940    6.5081 N   0  0  0  0  0  0  0  0  0  0  0  0
   10.8979   13.4253    5.2205 C   0  0  0  0  0  0  0  0  0  0  0  0
   11.2937   12.1524    4.8959 N   0  0  0  0  0  0  0  0  0  0  0  0
  1  7  2  0  0  0  0
  1  2  1  0  0  0  0
  2  3  1  0  0  0  0
  2  4  2  0  0  0  0
  4  5  1  0  0  0  0
  5  6  2  0  0  0  0
  5 11  1  0  0  0  0
  6  7  1  0  0  0  0
  6  9  1  0  0  0  0
  7  8  1  0  0  0  0
  9 10  1  0  0  0  0
 10 11  2  0  0  0  0
M  END
>  <CHROM.1>
11.65467864,11.58234053,7.13957281,0.35636941,-1.24009229,1.34864026

>  <Name>
ligand

>  <RI>
0

>  <Rbt.Current_Directory>
/home/itssahil/PROJECTS/Mol_Feturizer/New_Systems/rnas/4FEO

>  <Rbt.Executable>
rbdock ($Id: //depot/dev/client3/rdock/2013.1/src/exe/rbdock.cxx#4 $)

>  <Rbt.Library>
libRbt.so (2013.1, Build901 2013/11/27)

>  <Rbt.Parameter_File>
/export/apps/rDock/src/rDock_2013.1_src/data/scripts/dock_solv.prm

>  <Rbt.Receptor>
prm/blind_docking_20.prm

>  <SCORE>
-8.04985

>  <SCORE.INTER>
-8.60596

>  <SCORE.INTER.CONST>
1

>  <SCORE.INTER.POLAR>
0

>  <SCORE.INTER.ROT>
0

>  <SCORE.INTER.SOLV>
18.4275

>  <SCORE.INTER.VDW>
-15.4798

>  <SCORE.INTER.norm>
-0.78236

>  <SCORE.INTRA>
0

>  <SCORE.INTRA.DIHEDRAL>
0

>  <SCORE.INTRA.DIHEDRAL.0>
0

>  <SCORE.INTRA.POLAR>
0

>  <SCORE.INTRA.POLAR.0>
0

>  <SCORE.INTRA.REPUL>
0

>  <SCORE.INTRA.REPUL.0>
0

>  <SCORE.INTRA.SOLV>
0

>  <SCORE.INTRA.SOLV.lig_0>
-48.9252

>  <SCORE.INTRA.VDW>
0

>  <SCORE.INTRA.VDW.0>
0

>  <SCORE.INTRA.norm>
0

>  <SCORE.RESTR>
0.556114

>  <SCORE.RESTR.CAVITY>
0.556114

>  <SCORE.RESTR.norm>
0.0505559

>  <SCORE.SYSTEM>
0

>  <SCORE.SYSTEM.CONST>
0

>  <SCORE.SYSTEM.DIHEDRAL>
0

>  <SCORE.SYSTEM.SOLV>
0

>  <SCORE.SYSTEM.norm>
0

>  <SCORE.heavy>
11

>  <SCORE.norm>
-0.731805

>  <RMSD>
2.867

$$$$
ligand
 OpenBabel11021811493D
libRbt.so/2013.1/901 2013/11/27
 11 12  0  0  0  0  0  0  0  0999 V2000
   12.4143   10.7385    8.7659 N   0  0  0  0  0  0  0  0  0  0  0  0
   12.3735   10.0028    7.6399 C   0  0  0  0  0  0  0  0  0  0  0  0
   12.7458    8.6671    7.6867 N   0  0  0  0  0  0  0  0  0  0  0  0
   11.9818   10.5324    6.4702 N   0  0  0  0  0  0  0  0  0  0  0  0
   11.6188   11.8212    6.3738 C   0  0  0  0  0  0  0  0  0  0  0  0
   11.6421   12.6392    7.5258 C   0  0  0  0  0  0  0  0  0  0  0  0
   12.0608   12.0415    8.7558 C   0  0  0  0  0  0  0  0  0  0  0  0
   12.1060   12.7772    9.9148 N   0  0  0  0  0  0  0  0  0  0  0  0
   11.2324   13.8832    7.1456 N   0  0  0  0  0  0  0  0  0  0  0  0
   10.9721   13.8768    5.8728 C   0  0  0  0  0  0  0  0  0  0  0  0
   11.1908   12.6280    5.3485 N   0  0  0  0  0  0  0  0  0  0  0  0
  1  7  2  0  0  0  0
  1  2  1  0  0  0  0
  2  3  1  0  0  0  0
  2  4  2  0  0  0  0
  4  5  1  0  0  0  0
  5  6  2  0  0  0  0
  5 11  1  0  0  0  0
  6  7  1  0  0  0  0
  6  9  1  0  0  0  0
  7  8  1  0  0  0  0
  9 10  1  0  0  0  0
 10 11  2  0  0  0  0
M  END
>  <CHROM.1>
11.85695370,11.76218235,7.42122395,-0.23207530,-1.24314714,0.90713836

>  <Name>
ligand

>  <RI>
0

>  <Rbt.Current_Directory>
/home/itssahil/PROJECTS/Mol_Feturizer/New_Systems/rnas/4FEO

>  <Rbt.Executable>
rbdock ($Id: //depot/dev/client3/rdock/2013.1/src/exe/rbdock.cxx#4 $)

>  <Rbt.Library>
libRbt.so (2013.1, Build901 2013/11/27)

>  <Rbt.Parameter_File>
/export/apps/rDock/src/rDock_2013.1_src/data/scripts/dock_solv.prm

>  <Rbt.Receptor>
prm/blind_docking_40.prm

>  <SCORE>
-9.93871

>  <SCORE.INTER>
-9.93871

>  <SCORE.INTER.CONST>
1

>  <SCORE.INTER.POLAR>
0

>  <SCORE.INTER.ROT>
0

>  <SCORE.INTER.SOLV>
17.654

>  <SCORE.INTER.VDW>
-16.1105

>  <SCORE.INTER.norm>
-0.903519

>  <SCORE.INTRA>
0

>  <SCORE.INTRA.DIHEDRAL>
0

>  <SCORE.INTRA.DIHEDRAL.0>
0

>  <SCORE.INTRA.POLAR>
0

>  <SCORE.INTRA.POLAR.0>
0

>  <SCORE.INTRA.REPUL>
0

>  <SCORE.INTRA.REPUL.0>
0

>  <SCORE.INTRA.SOLV>
0

>  <SCORE.INTRA.SOLV.lig_0>
-48.9252

>  <SCORE.INTRA.VDW>
0

>  <SCORE.INTRA.VDW.0>
0

>  <SCORE.INTRA.norm>
0

>  <SCORE.RESTR>
0

>  <SCORE.RESTR.CAVITY>
0

>  <SCORE.RESTR.norm>
0

>  <SCORE.SYSTEM>
0

>  <SCORE.SYSTEM.CONST>
0

>  <SCORE.SYSTEM.DIHEDRAL>
0

>  <SCORE.SYSTEM.SOLV>
0

>  <SCORE.SYSTEM.norm>
0

>  <SCORE.heavy>
11

>  <SCORE.norm>
-0.903519

>  <RMSD>
2.867

$$$$
ligand
 OpenBabel11021811493D
libRbt.so/2013.1/901 2013/11/27
 11 12  0  0  0  0  0  0  0  0999 V2000
   12.4205   10.7393    8.7703 N   0  0  0  0  0  0  0  0  0  0  0  0
   12.3939   10.0023    7.6448 C   0  0  0  0  0  0  0  0  0  0  0  0
   12.7757    8.6693    7.6960 N   0  0  0  0  0  0  0  0  0  0  0  0
   12.0073   10.5276    6.4716 N   0  0  0  0  0  0  0  0  0  0  0  0
   11.6355   11.8136    6.3710 C   0  0  0  0  0  0  0  0  0  0  0  0
   11.6438   12.6330    7.5222 C   0  0  0  0  0  0  0  0  0  0  0  0
   12.0574   12.0398    8.7560 C   0  0  0  0  0  0  0  0  0  0  0  0
   12.0882   12.7769    9.9145 N   0  0  0  0  0  0  0  0  0  0  0  0
   11.2279   13.8735    7.1374 N   0  0  0  0  0  0  0  0  0  0  0  0
   10.9775   13.8639    5.8626 C   0  0  0  0  0  0  0  0  0  0  0  0
   11.2095   12.6161    5.3414 N   0  0  0  0  0  0  0  0  0  0  0  0
  1  7  2  0  0  0  0
  1  2  1  0  0  0  0
  2  3  1  0  0  0  0
  2  4  2  0  0  0  0
  4  5  1  0  0  0  0
  5  6  2  0  0  0  0
  5 11  1  0  0  0  0
  6  7  1  0  0  0  0
  6  9  1  0  0  0  0
  7  8  1  0  0  0  0
  9 10  1  0  0  0  0
 10 11  2  0  0  0  0
M  END
>  <CHROM.1>
11.86597578,11.75747632,7.42021207,-0.19909504,-1.24191283,0.93725935

>  <Name>
ligand

>  <RI>
0

>  <Rbt.Current_Directory>
/home/itssahil/PROJECTS/Mol_Feturizer/New_Systems/rnas/4FEO

>  <Rbt.Executable>
rbdock ($Id: //depot/dev/client3/rdock/2013.1/src/exe/rbdock.cxx#4 $)

>  <Rbt.Library>
libRbt.so (2013.1, Build901 2013/11/27)

>  <Rbt.Parameter_File>
/export/apps/rDock/src/rDock_2013.1_src/data/scripts/dock_solv.prm

>  <Rbt.Receptor>
prm/blind_docking_40.prm

>  <SCORE>
-9.91602

>  <SCORE.INTER>
-9.91602

>  <SCORE.INTER.CONST>
1

>  <SCORE.INTER.POLAR>
0

>  <SCORE.INTER.ROT>
0

>  <SCORE.INTER.SOLV>
17.5935

>  <SCORE.INTER.VDW>
-16.0752

>  <SCORE.INTER.norm>
-0.901456

>  <SCORE.INTRA>
0

>  <SCORE.INTRA.DIHEDRAL>
0

>  <SCORE.INTRA.DIHEDRAL.0>
0

>  <SCORE.INTRA.POLAR>
0

>  <SCORE.INTRA.POLAR.0>
0

>  <SCORE.INTRA.REPUL>
0

>  <SCORE.INTRA.REPUL.0>
0

>  <SCORE.INTRA.SOLV>
0

>  <SCORE.INTRA.SOLV.lig_0>
-48.9252

>  <SCORE.INTRA.VDW>
0

>  <SCORE.INTRA.VDW.0>
0

>  <SCORE.INTRA.norm>
0

>  <SCORE.RESTR>
0

>  <SCORE.RESTR.CAVITY>
0

>  <SCORE.RESTR.norm>
0

>  <SCORE.SYSTEM>
0

>  <SCORE.SYSTEM.CONST>
0

>  <SCORE.SYSTEM.DIHEDRAL>
0

>  <SCORE.SYSTEM.SOLV>
0

>  <SCORE.SYSTEM.norm>
0

>  <SCORE.heavy>
11

>  <SCORE.norm>
-0.901456

>  <RMSD>
2.867

$$$$
ligand
 OpenBabel11021811493D
libRbt.so/2013.1/901 2013/11/27
 11 12  0  0  0  0  0  0  0  0999 V2000
   12.4258   10.7452    8.7614 N   0  0  0  0  0  0  0  0  0  0  0  0
   12.4000   10.0122    7.6333 C   0  0  0  0  0  0  0  0  0  0  0  0
   12.7903    8.6815    7.6781 N   0  0  0  0  0  0  0  0  0  0  0  0
   12.0064   10.5395    6.4633 N   0  0  0  0  0  0  0  0  0  0  0  0
   11.6263   11.8235    6.3687 C   0  0  0  0  0  0  0  0  0  0  0  0
   11.6333   12.6386    7.5230 C   0  0  0  0  0  0  0  0  0  0  0  0
   12.0545   12.0433    8.7533 C   0  0  0  0  0  0  0  0  0  0  0  0
   12.0845   12.7763    9.9144 N   0  0  0  0  0  0  0  0  0  0  0  0
   11.2084   13.8779    7.1443 N   0  0  0  0  0  0  0  0  0  0  0  0
   10.9539   13.8716    5.8703 C   0  0  0  0  0  0  0  0  0  0  0  0
   11.1919   12.6273    5.3436 N   0  0  0  0  0  0  0  0  0  0  0  0
  1  7  2  0  0  0  0
  1  2  1  0  0  0  0
  2  3  1  0  0  0  0
  2  4  2  0  0  0  0
  4  5  1  0  0  0  0
  5  6  2  0  0  0  0
  5 11  1  0  0  0  0
  6  7  1  0  0  0  0
  6  9  1  0  0  0  0
  7  8  1  0  0  0  0
  9 10  1  0  0  0  0
 10 11  2  0  0  0  0
M  END
>  <CHROM.1>
11.86051096,11.76490432,7.41701581,-0.19589350,-1.23497007,0.94406794

>  <Name>
ligand

>  <RI>
0

>  <Rbt.Current_Directory>
/home/itssahil/PROJECTS/Mol_Feturizer/New_Systems/rnas/4FEO

>  <Rbt.Executable>
rbdock ($Id: //depot/dev/client3/rdock/2013.1/src/exe/rbdock.cxx#4 $)

>  <Rbt.Library>
libRbt.so (2013.1, Build901 2013/11/27)

>  <Rbt.Parameter_File>
/export/apps/rDock/src/rDock_2013.1_src/data/scripts/dock_solv.prm

>  <Rbt.Receptor>
prm/pocket_docking_7.prm

>  <SCORE>
-9.93336

>  <SCORE.INTER>
-9.93336

>  <SCORE.INTER.CONST>
1

>  <SCORE.INTER.POLAR>
0

>  <SCORE.INTER.ROT>
0

>  <SCORE.INTER.SOLV>
17.5094

>  <SCORE.INTER.VDW>
-16.0587

>  <SCORE.INTER.norm>
-0.903033

>  <SCORE.INTRA>
0

>  <SCORE.INTRA.DIHEDRAL>
0

>  <SCORE.INTRA.DIHEDRAL.0>
0

>  <SCORE.INTRA.POLAR>
0

>  <SCORE.INTRA.POLAR.0>
0

>  <SCORE.INTRA.REPUL>
0

>  <SCORE.INTRA.REPUL.0>
0

>  <SCORE.INTRA.SOLV>
0

>  <SCORE.INTRA.SOLV.lig_0>
-48.9252

>  <SCORE.INTRA.VDW>
0

>  <SCORE.INTRA.VDW.0>
0

>  <SCORE.INTRA.norm>
0

>  <SCORE.RESTR>
0

>  <SCORE.RESTR.CAVITY>
0

>  <SCORE.RESTR.norm>
0

>  <SCORE.SYSTEM>
0

>  <SCORE.SYSTEM.CONST>
0

>  <SCORE.SYSTEM.DIHEDRAL>
0

>  <SCORE.SYSTEM.SOLV>
0

>  <SCORE.SYSTEM.norm>
0

>  <SCORE.heavy>
11

>  <SCORE.norm>
-0.903033

>  <RMSD>
2.867

$$$$
ligand
 OpenBabel11021811493D
libRbt.so/2013.1/901 2013/11/27
 11 12  0  0  0  0  0  0  0  0999 V2000
   12.4559   10.7232    8.7276 N   0  0  0  0  0  0  0  0  0  0  0  0
   12.3679    9.9485    7.6308 C   0  0  0  0  0  0  0  0  0  0  0  0
   12.7532    8.6178    7.7058 N   0  0  0  0  0  0  0  0  0  0  0  0
   11.9166   10.4343    6.4636 N   0  0  0  0  0  0  0  0  0  0  0  0
   11.5386   11.7165    6.3403 C   0  0  0  0  0  0  0  0  0  0  0  0
   11.6096   12.5743    7.4610 C   0  0  0  0  0  0  0  0  0  0  0  0
   12.0912   12.0227    8.6895 C   0  0  0  0  0  0  0  0  0  0  0  0
   12.1852   12.7985    9.8189 N   0  0  0  0  0  0  0  0  0  0  0  0
   11.1719   13.8014    7.0581 N   0  0  0  0  0  0  0  0  0  0  0  0
   10.8515   13.7490    5.8002 C   0  0  0  0  0  0  0  0  0  0  0  0
   11.0556   12.4842    5.3094 N   0  0  0  0  0  0  0  0  0  0  0  0
  1  7  2  0  0  0  0
  1  2  1  0  0  0  0
  2  3  1  0  0  0  0
  2  4  2  0  0  0  0
  4  5  1  0  0  0  0
  5  6  2  0  0  0  0
  5 11  1  0  0  0  0
  6  7  1  0  0  0  0
  6  9  1  0  0  0  0
  7  8  1  0  0  0  0
  9 10  1  0  0  0  0
 10 11  2  0  0  0  0
M  END
>  <CHROM.1>
11.82666625,11.69563377,7.37657202,-0.32240615,-1.20587106,0.78746992

>  <Name>
ligand

>  <RI>
0

>  <Rbt.Current_Directory>
/home/itssahil/PROJECTS/Mol_Feturizer/New_Systems/rnas/4FEO

>  <Rbt.Executable>
rbdock ($Id: //depot/dev/client3/rdock/2013.1/src/exe/rbdock.cxx#4 $)

>  <Rbt.Library>
libRbt.so (2013.1, Build901 2013/11/27)

>  <Rbt.Parameter_File>
/export/apps/rDock/src/rDock_2013.1_src/data/scripts/dock_solv.prm

>  <Rbt.Receptor>
prm/pocket_docking_8.prm

>  <SCORE>
-9.90061

>  <SCORE.INTER>
-9.90061

>  <SCORE.INTER.CONST>
1

>  <SCORE.INTER.POLAR>
0

>  <SCORE.INTER.ROT>
0

>  <SCORE.INTER.SOLV>
17.3791

>  <SCORE.INTER.VDW>
-15.9934

>  <SCORE.INTER.norm>
-0.900056

>  <SCORE.INTRA>
0

>  <SCORE.INTRA.DIHEDRAL>
0

>  <SCORE.INTRA.DIHEDRAL.0>
0

>  <SCORE.INTRA.POLAR>
0

>  <SCORE.INTRA.POLAR.0>
0

>  <SCORE.INTRA.REPUL>
0

>  <SCORE.INTRA.REPUL.0>
0

>  <SCORE.INTRA.SOLV>
0

>  <SCORE.INTRA.SOLV.lig_0>
-48.9252

>  <SCORE.INTRA.VDW>
0

>  <SCORE.INTRA.VDW.0>
0

>  <SCORE.INTRA.norm>
0

>  <SCORE.RESTR>
0

>  <SCORE.RESTR.CAVITY>
0

>  <SCORE.RESTR.norm>
0

>  <SCORE.SYSTEM>
0

>  <SCORE.SYSTEM.CONST>
0

>  <SCORE.SYSTEM.DIHEDRAL>
0

>  <SCORE.SYSTEM.SOLV>
0

>  <SCORE.SYSTEM.norm>
0

>  <SCORE.heavy>
11

>  <SCORE.norm>
-0.900056

>  <RMSD>
2.867

$$$$
ligand
 OpenBabel11021811493D
libRbt.so/2013.1/901 2013/11/27
 11 12  0  0  0  0  0  0  0  0999 V2000
   12.4252   10.7479    8.7568 N   0  0  0  0  0  0  0  0  0  0  0  0
   12.3952   10.0141    7.6292 C   0  0  0  0  0  0  0  0  0  0  0  0
   12.7832    8.6827    7.6741 N   0  0  0  0  0  0  0  0  0  0  0  0
   11.9994   10.5413    6.4599 N   0  0  0  0  0  0  0  0  0  0  0  0
   11.6212   11.8259    6.3654 C   0  0  0  0  0  0  0  0  0  0  0  0
   11.6327   12.6418    7.5191 C   0  0  0  0  0  0  0  0  0  0  0  0
   12.0562   12.0467    8.7487 C   0  0  0  0  0  0  0  0  0  0  0  0
   12.0905   12.7805    9.9092 N   0  0  0  0  0  0  0  0  0  0  0  0
   11.2090   13.8816    7.1406 N   0  0  0  0  0  0  0  0  0  0  0  0
   10.9511   13.8747    5.8672 C   0  0  0  0  0  0  0  0  0  0  0  0
   11.1856   12.6296    5.3409 N   0  0  0  0  0  0  0  0  0  0  0  0
  1  7  2  0  0  0  0
  1  2  1  0  0  0  0
  2  3  1  0  0  0  0
  2  4  2  0  0  0  0
  4  5  1  0  0  0  0
  5  6  2  0  0  0  0
  5 11  1  0  0  0  0
  6  7  1  0  0  0  0
  6  9  1  0  0  0  0
  7  8  1  0  0  0  0
  9 10  1  0  0  0  0
 10 11  2  0  0  0  0
M  END
>  <CHROM.1>
11.85816178,11.76760451,7.41313069,-0.20545834,-1.23481982,0.93430248

>  <Name>
ligand

>  <RI>
0

>  <Rbt.Current_Directory>
/home/itssahil/PROJECTS/Mol_Feturizer/New_Systems/rnas/4FEO

>  <Rbt.Executable>
rbdock ($Id: //depot/dev/client3/rdock/2013.1/src/exe/rbdock.cxx#4 $)

>  <Rbt.Library>
libRbt.so (2013.1, Build901 2013/11/27)

>  <Rbt.Parameter_File>
/export/apps/rDock/src/rDock_2013.1_src/data/scripts/dock_solv.prm

>  <Rbt.Receptor>
prm/pocket_docking_8.prm

>  <SCORE>
-9.93423

>  <SCORE.INTER>
-9.93423

>  <SCORE.INTER.CONST>
1

>  <SCORE.INTER.POLAR>
0

>  <SCORE.INTER.ROT>
0

>  <SCORE.INTER.SOLV>
17.5098

>  <SCORE.INTER.VDW>
-16.0594

>  <SCORE.INTER.norm>
-0.903112

>  <SCORE.INTRA>
0

>  <SCORE.INTRA.DIHEDRAL>
0

>  <SCORE.INTRA.DIHEDRAL.0>
0

>  <SCORE.INTRA.POLAR>
0

>  <SCORE.INTRA.POLAR.0>
0

>  <SCORE.INTRA.REPUL>
0

>  <SCORE.INTRA.REPUL.0>
0

>  <SCORE.INTRA.SOLV>
0

>  <SCORE.INTRA.SOLV.lig_0>
-48.9252

>  <SCORE.INTRA.VDW>
0

>  <SCORE.INTRA.VDW.0>
0

>  <SCORE.INTRA.norm>
0

>  <SCORE.RESTR>
0

>  <SCORE.RESTR.CAVITY>
0

>  <SCORE.RESTR.norm>
0

>  <SCORE.SYSTEM>
0

>  <SCORE.SYSTEM.CONST>
0

>  <SCORE.SYSTEM.DIHEDRAL>
0

>  <SCORE.SYSTEM.SOLV>
0

>  <SCORE.SYSTEM.norm>
0

>  <SCORE.heavy>
11

>  <SCORE.norm>
-0.903112

>  <RMSD>
2.867

$$$$
ligand
 OpenBabel11021811493D
libRbt.so/2013.1/901 2013/11/27
 11 12  0  0  0  0  0  0  0  0999 V2000
   12.4196   10.7463    8.7606 N   0  0  0  0  0  0  0  0  0  0  0  0
   12.3991   10.0142    7.6317 C   0  0  0  0  0  0  0  0  0  0  0  0
   12.7931    8.6846    7.6764 N   0  0  0  0  0  0  0  0  0  0  0  0
   12.0072   10.5415    6.4611 N   0  0  0  0  0  0  0  0  0  0  0  0
   11.6236   11.8245    6.3667 C   0  0  0  0  0  0  0  0  0  0  0  0
   11.6250   12.6385    7.5217 C   0  0  0  0  0  0  0  0  0  0  0  0
   12.0446   12.0434    8.7526 C   0  0  0  0  0  0  0  0  0  0  0  0
   12.0692   12.7754    9.9145 N   0  0  0  0  0  0  0  0  0  0  0  0
   11.1976   13.8770    7.1429 N   0  0  0  0  0  0  0  0  0  0  0  0
   10.9467   13.8710    5.8682 C   0  0  0  0  0  0  0  0  0  0  0  0
   11.1898   12.6279    5.3411 N   0  0  0  0  0  0  0  0  0  0  0  0
  1  7  2  0  0  0  0
  1  2  1  0  0  0  0
  2  3  1  0  0  0  0
  2  4  2  0  0  0  0
  4  5  1  0  0  0  0
  5  6  2  0  0  0  0
  5 11  1  0  0  0  0
  6  7  1  0  0  0  0
  6  9  1  0  0  0  0
  7  8  1  0  0  0  0
  9 10  1  0  0  0  0
 10 11  2  0  0  0  0
M  END
>  <CHROM.1>
11.85511358,11.76559469,7.41553366,-0.18386438,-1.23423174,0.95634479

>  <Name>
ligand

>  <RI>
0

>  <Rbt.Current_Directory>
/home/itssahil/PROJECTS/Mol_Feturizer/New_Systems/rnas/4FEO

>  <Rbt.Executable>
rbdock ($Id: //depot/dev/client3/rdock/2013.1/src/exe/rbdock.cxx#4 $)

>  <Rbt.Library>
libRbt.so (2013.1, Build901 2013/11/27)

>  <Rbt.Parameter_File>
/export/apps/rDock/src/rDock_2013.1_src/data/scripts/dock_solv.prm

>  <Rbt.Receptor>
prm/pocket_docking_8.prm

>  <SCORE>
-9.923

>  <SCORE.INTER>
-9.923

>  <SCORE.INTER.CONST>
1

>  <SCORE.INTER.POLAR>
0

>  <SCORE.INTER.ROT>
0

>  <SCORE.INTER.SOLV>
17.5091

>  <SCORE.INTER.VDW>
-16.0517

>  <SCORE.INTER.norm>
-0.902091

>  <SCORE.INTRA>
0

>  <SCORE.INTRA.DIHEDRAL>
0

>  <SCORE.INTRA.DIHEDRAL.0>
0

>  <SCORE.INTRA.POLAR>
0

>  <SCORE.INTRA.POLAR.0>
0

>  <SCORE.INTRA.REPUL>
0

>  <SCORE.INTRA.REPUL.0>
0

>  <SCORE.INTRA.SOLV>
0

>  <SCORE.INTRA.SOLV.lig_0>
-48.9252

>  <SCORE.INTRA.VDW>
0

>  <SCORE.INTRA.VDW.0>
0

>  <SCORE.INTRA.norm>
0

>  <SCORE.RESTR>
0

>  <SCORE.RESTR.CAVITY>
0

>  <SCORE.RESTR.norm>
0

>  <SCORE.SYSTEM>
0

>  <SCORE.SYSTEM.CONST>
0

>  <SCORE.SYSTEM.DIHEDRAL>
0

>  <SCORE.SYSTEM.SOLV>
0

>  <SCORE.SYSTEM.norm>
0

>  <SCORE.heavy>
11

>  <SCORE.norm>
-0.902091

>  <RMSD>
2.867

$$$$
ligand
 OpenBabel11021811493D
libRbt.so/2013.1/901 2013/11/27
 11 12  0  0  0  0  0  0  0  0999 V2000
   12.0760   10.7576    8.6764 N   0  0  0  0  0  0  0  0  0  0  0  0
   12.2345    9.8885    7.6614 C   0  0  0  0  0  0  0  0  0  0  0  0
   12.6655    8.5978    7.9327 N   0  0  0  0  0  0  0  0  0  0  0  0
   11.9863   10.2419    6.3904 N   0  0  0  0  0  0  0  0  0  0  0  0
   11.5740   11.4806    6.0778 C   0  0  0  0  0  0  0  0  0  0  0  0
   11.3903   12.4333    7.1051 C   0  0  0  0  0  0  0  0  0  0  0  0
   11.6600   12.0217    8.4479 C   0  0  0  0  0  0  0  0  0  0  0  0
   11.5012   12.8953    9.4959 N   0  0  0  0  0  0  0  0  0  0  0  0
   10.9747   13.5895    6.5134 N   0  0  0  0  0  0  0  0  0  0  0  0
   10.8990   13.4090    5.2290 C   0  0  0  0  0  0  0  0  0  0  0  0
   11.2550   12.1237    4.9073 N   0  0  0  0  0  0  0  0  0  0  0  0
  1  7  2  0  0  0  0
  1  2  1  0  0  0  0
  2  3  1  0  0  0  0
  2  4  2  0  0  0  0
  4  5  1  0  0  0  0
  5  6  2  0  0  0  0
  5 11  1  0  0  0  0
  6  7  1  0  0  0  0
  6  9  1  0  0  0  0
  7  8  1  0  0  0  0
  9 10  1  0  0  0  0
 10 11  2  0  0  0  0
M  END
>  <CHROM.1>
11.66328671,11.56725576,7.14634097,0.25300047,-1.25601343,1.24032255

>  <Name>
ligand

>  <RI>
0

>  <Rbt.Current_Directory>
/home/itssahil/PROJECTS/Mol_Feturizer/New_Systems/rnas/4FEO

>  <Rbt.Executable>
rbdock ($Id: //depot/dev/client3/rdock/2013.1/src/exe/rbdock.cxx#4 $)

>  <Rbt.Library>
libRbt.so (2013.1, Build901 2013/11/27)

>  <Rbt.Parameter_File>
/export/apps/rDock/src/rDock_2013.1_src/data/scripts/dock_solv.prm

>  <Rbt.Receptor>
prm/blind_docking_20.prm

>  <SCORE>
-8.02582

>  <SCORE.INTER>
-8.58773

>  <SCORE.INTER.CONST>
1

>  <SCORE.INTER.POLAR>
0

>  <SCORE.INTER.ROT>
0

>  <SCORE.INTER.SOLV>
18.3685

>  <SCORE.INTER.VDW>
-15.448

>  <SCORE.INTER.norm>
-0.780703

>  <SCORE.INTRA>
0

>  <SCORE.INTRA.DIHEDRAL>
0

>  <SCORE.INTRA.DIHEDRAL.0>
0

>  <SCORE.INTRA.POLAR>
0

>  <SCORE.INTRA.POLAR.0>
0

>  <SCORE.INTRA.REPUL>
0

>  <SCORE.INTRA.REPUL.0>
0

>  <SCORE.INTRA.SOLV>
0

>  <SCORE.INTRA.SOLV.lig_0>
-48.9252

>  <SCORE.INTRA.VDW>
0

>  <SCORE.INTRA.VDW.0>
0

>  <SCORE.INTRA.norm>
0

>  <SCORE.RESTR>
0.561918

>  <SCORE.RESTR.CAVITY>
0.561918

>  <SCORE.RESTR.norm>
0.0510834

>  <SCORE.SYSTEM>
0

>  <SCORE.SYSTEM.CONST>
0

>  <SCORE.SYSTEM.DIHEDRAL>
0

>  <SCORE.SYSTEM.SOLV>
0

>  <SCORE.SYSTEM.norm>
0

>  <SCORE.heavy>
11

>  <SCORE.norm>
-0.72962

>  <RMSD>
2.868

$$$$
ligand
 OpenBabel11021811493D
libRbt.so/2013.1/901 2013/11/27
 11 12  0  0  0  0  0  0  0  0999 V2000
   12.0542   10.7497    8.6838 N   0  0  0  0  0  0  0  0  0  0  0  0
   12.2465    9.8922    7.6648 C   0  0  0  0  0  0  0  0  0  0  0  0
   12.6935    8.6064    7.9335 N   0  0  0  0  0  0  0  0  0  0  0  0
   12.0169   10.2525    6.3923 N   0  0  0  0  0  0  0  0  0  0  0  0
   11.5902   11.4870    6.0822 C   0  0  0  0  0  0  0  0  0  0  0  0
   11.3711   12.4276    7.1137 C   0  0  0  0  0  0  0  0  0  0  0  0
   11.6218   12.0088    8.4580 C   0  0  0  0  0  0  0  0  0  0  0  0
   11.4285   12.8704    9.5100 N   0  0  0  0  0  0  0  0  0  0  0  0
   10.9478   13.5820    6.5238 N   0  0  0  0  0  0  0  0  0  0  0  0
   10.8998   13.4114    5.2367 C   0  0  0  0  0  0  0  0  0  0  0  0
   11.2832   12.1350    4.9112 N   0  0  0  0  0  0  0  0  0  0  0  0
  1  7  2  0  0  0  0
  1  2  1  0  0  0  0
  2  3  1  0  0  0  0
  2  4  2  0  0  0  0
  4  5  1  0  0  0  0
  5  6  2  0  0  0  0
  5 11  1  0  0  0  0
  6  7  1  0  0  0  0
  6  9  1  0  0  0  0
  7  8  1  0  0  0  0
  9 10  1  0  0  0  0
 10 11  2  0  0  0  0
M  END
>  <CHROM.1>
11.65753709,11.56579924,7.15293723,0.32669706,-1.24576105,1.31885619

>  <Name>
ligand

>  <RI>
0

>  <Rbt.Current_Directory>
/home/itssahil/PROJECTS/Mol_Feturizer/New_Systems/rnas/4FEO

>  <Rbt.Executable>
rbdock ($Id: //depot/dev/client3/rdock/2013.1/src/exe/rbdock.cxx#4 $)

>  <Rbt.Library>
libRbt.so (2013.1, Build901 2013/11/27)

>  <Rbt.Parameter_File>
/export/apps/rDock/src/rDock_2013.1_src/data/scripts/dock_solv.prm

>  <Rbt.Receptor>
prm/blind_docking_20.prm

>  <SCORE>
-8.02184

>  <SCORE.INTER>
-8.58392

>  <SCORE.INTER.CONST>
1

>  <SCORE.INTER.POLAR>
0

>  <SCORE.INTER.ROT>
0

>  <SCORE.INTER.SOLV>
18.4514

>  <SCORE.INTER.VDW>
-15.4731

>  <SCORE.INTER.norm>
-0.780357

>  <SCORE.INTRA>
0

>  <SCORE.INTRA.DIHEDRAL>
0

>  <SCORE.INTRA.DIHEDRAL.0>
0

>  <SCORE.INTRA.POLAR>
0

>  <SCORE.INTRA.POLAR.0>
0

>  <SCORE.INTRA.REPUL>
0

>  <SCORE.INTRA.REPUL.0>
0

>  <SCORE.INTRA.SOLV>
0

>  <SCORE.INTRA.SOLV.lig_0>
-48.9252

>  <SCORE.INTRA.VDW>
0

>  <SCORE.INTRA.VDW.0>
0

>  <SCORE.INTRA.norm>
0

>  <SCORE.RESTR>
0.562083

>  <SCORE.RESTR.CAVITY>
0.562083

>  <SCORE.RESTR.norm>
0.0510984

>  <SCORE.SYSTEM>
0

>  <SCORE.SYSTEM.CONST>
0

>  <SCORE.SYSTEM.DIHEDRAL>
0

>  <SCORE.SYSTEM.SOLV>
0

>  <SCORE.SYSTEM.norm>
0

>  <SCORE.heavy>
11

>  <SCORE.norm>
-0.729258

>  <RMSD>
2.868

$$$$
ligand
 OpenBabel11021811493D
libRbt.so/2013.1/901 2013/11/27
 11 12  0  0  0  0  0  0  0  0999 V2000
   12.0450   10.7599    8.6767 N   0  0  0  0  0  0  0  0  0  0  0  0
   12.2598    9.9070    7.6583 C   0  0  0  0  0  0  0  0  0  0  0  0
   12.7110    8.6234    7.9302 N   0  0  0  0  0  0  0  0  0  0  0  0
   12.0489   10.2701    6.3833 N   0  0  0  0  0  0  0  0  0  0  0  0
   11.6190   11.5027    6.0702 C   0  0  0  0  0  0  0  0  0  0  0  0
   11.3766   12.4383    7.1010 C   0  0  0  0  0  0  0  0  0  0  0  0
   11.6079   12.0168    8.4479 C   0  0  0  0  0  0  0  0  0  0  0  0
   11.3915   12.8736    9.4992 N   0  0  0  0  0  0  0  0  0  0  0  0
   10.9553   13.5918    6.5078 N   0  0  0  0  0  0  0  0  0  0  0  0
   10.9297   13.4252    5.2196 C   0  0  0  0  0  0  0  0  0  0  0  0
   11.3270   12.1524    4.8964 N   0  0  0  0  0  0  0  0  0  0  0  0
  1  7  2  0  0  0  0
  1  2  1  0  0  0  0
  2  3  1  0  0  0  0
  2  4  2  0  0  0  0
  4  5  1  0  0  0  0
  5  6  2  0  0  0  0
  5 11  1  0  0  0  0
  6  7  1  0  0  0  0
  6  9  1  0  0  0  0
  7  8  1  0  0  0  0
  9 10  1  0  0  0  0
 10 11  2  0  0  0  0
M  END
>  <CHROM.1>
11.66814477,11.57837157,7.14215119,0.38155676,-1.24288520,1.37408335

>  <Name>
ligand

>  <RI>
0

>  <Rbt.Current_Directory>
/home/itssahil/PROJECTS/Mol_Feturizer/New_Systems/rnas/4FEO

>  <Rbt.Executable>
rbdock ($Id: //depot/dev/client3/rdock/2013.1/src/exe/rbdock.cxx#4 $)

>  <Rbt.Library>
libRbt.so (2013.1, Build901 2013/11/27)

>  <Rbt.Parameter_File>
/export/apps/rDock/src/rDock_2013.1_src/data/scripts/dock_solv.prm

>  <Rbt.Receptor>
prm/blind_docking_20.prm

>  <SCORE>
-8.03964

>  <SCORE.INTER>
-8.59397

>  <SCORE.INTER.CONST>
1

>  <SCORE.INTER.POLAR>
0

>  <SCORE.INTER.ROT>
0

>  <SCORE.INTER.SOLV>
18.4503

>  <SCORE.INTER.VDW>
-15.4794

>  <SCORE.INTER.norm>
-0.78127

>  <SCORE.INTRA>
0

>  <SCORE.INTRA.DIHEDRAL>
0

>  <SCORE.INTRA.DIHEDRAL.0>
0

>  <SCORE.INTRA.POLAR>
0

>  <SCORE.INTRA.POLAR.0>
0

>  <SCORE.INTRA.REPUL>
0

>  <SCORE.INTRA.REPUL.0>
0

>  <SCORE.INTRA.SOLV>
0

>  <SCORE.INTRA.SOLV.lig_0>
-48.9252

>  <SCORE.INTRA.VDW>
0

>  <SCORE.INTRA.VDW.0>
0

>  <SCORE.INTRA.norm>
0

>  <SCORE.RESTR>
0.554326

>  <SCORE.RESTR.CAVITY>
0.554326

>  <SCORE.RESTR.norm>
0.0503932

>  <SCORE.SYSTEM>
0

>  <SCORE.SYSTEM.CONST>
0

>  <SCORE.SYSTEM.DIHEDRAL>
0

>  <SCORE.SYSTEM.SOLV>
0

>  <SCORE.SYSTEM.norm>
0

>  <SCORE.heavy>
11

>  <SCORE.norm>
-0.730877

>  <RMSD>
2.868

$$$$
ligand
 OpenBabel11021811493D
libRbt.so/2013.1/901 2013/11/27
 11 12  0  0  0  0  0  0  0  0999 V2000
   12.0840   10.7296    8.7171 N   0  0  0  0  0  0  0  0  0  0  0  0
   12.2963    9.8563    7.7156 C   0  0  0  0  0  0  0  0  0  0  0  0
   12.7962    8.5954    8.0077 N   0  0  0  0  0  0  0  0  0  0  0  0
   12.0367   10.1775    6.4383 N   0  0  0  0  0  0  0  0  0  0  0  0
   11.5586   11.3870    6.1058 C   0  0  0  0  0  0  0  0  0  0  0  0
   11.3163   12.3425    7.1183 C   0  0  0  0  0  0  0  0  0  0  0  0
   11.6002   11.9654    8.4683 C   0  0  0  0  0  0  0  0  0  0  0  0
   11.3872   12.8435    9.5027 N   0  0  0  0  0  0  0  0  0  0  0  0
   10.8411   13.4655    6.5077 N   0  0  0  0  0  0  0  0  0  0  0  0
   10.7833   13.2630    5.2257 C   0  0  0  0  0  0  0  0  0  0  0  0
   11.2116   11.9949    4.9245 N   0  0  0  0  0  0  0  0  0  0  0  0
  1  7  2  0  0  0  0
  1  2  1  0  0  0  0
  2  3  1  0  0  0  0
  2  4  2  0  0  0  0
  4  5  1  0  0  0  0
  5  6  2  0  0  0  0
  5 11  1  0  0  0  0
  6  7  1  0  0  0  0
  6  9  1  0  0  0  0
  7  8  1  0  0  0  0
  9 10  1  0  0  0  0
 10 11  2  0  0  0  0
M  END
>  <CHROM.1>
11.63645957,11.49351339,7.17339134,0.31908353,-1.20500892,1.28838329

>  <Name>
ligand

>  <RI>
0

>  <Rbt.Current_Directory>
/home/itssahil/PROJECTS/Mol_Feturizer/New_Systems/rnas/4FEO

>  <Rbt.Executable>
rbdock ($Id: //depot/dev/client3/rdock/2013.1/src/exe/rbdock.cxx#4 $)

>  <Rbt.Library>
libRbt.so (2013.1, Build901 2013/11/27)

>  <Rbt.Parameter_File>
/export/apps/rDock/src/rDock_2013.1_src/data/scripts/dock_solv.prm

>  <Rbt.Receptor>
prm/blind_docking_20.prm

>  <SCORE>
-7.90272

>  <SCORE.INTER>
-8.44733

>  <SCORE.INTER.CONST>
1

>  <SCORE.INTER.POLAR>
0

>  <SCORE.INTER.ROT>
0

>  <SCORE.INTER.SOLV>
18.3752

>  <SCORE.INTER.VDW>
-15.3566

>  <SCORE.INTER.norm>
-0.767939

>  <SCORE.INTRA>
0

>  <SCORE.INTRA.DIHEDRAL>
0

>  <SCORE.INTRA.DIHEDRAL.0>
0

>  <SCORE.INTRA.POLAR>
0

>  <SCORE.INTRA.POLAR.0>
0

>  <SCORE.INTRA.REPUL>
0

>  <SCORE.INTRA.REPUL.0>
0

>  <SCORE.INTRA.SOLV>
0

>  <SCORE.INTRA.SOLV.lig_0>
-48.9252

>  <SCORE.INTRA.VDW>
0

>  <SCORE.INTRA.VDW.0>
0

>  <SCORE.INTRA.norm>
0

>  <SCORE.RESTR>
0.544612

>  <SCORE.RESTR.CAVITY>
0.544612

>  <SCORE.RESTR.norm>
0.0495102

>  <SCORE.SYSTEM>
0

>  <SCORE.SYSTEM.CONST>
0

>  <SCORE.SYSTEM.DIHEDRAL>
0

>  <SCORE.SYSTEM.SOLV>
0

>  <SCORE.SYSTEM.norm>
0

>  <SCORE.heavy>
11

>  <SCORE.norm>
-0.718429

>  <RMSD>
2.868

$$$$
ligand
 OpenBabel11021811493D
libRbt.so/2013.1/901 2013/11/27
 11 12  0  0  0  0  0  0  0  0999 V2000
   12.3661   10.7738    8.7250 N   0  0  0  0  0  0  0  0  0  0  0  0
   12.3787   10.0347    7.6005 C   0  0  0  0  0  0  0  0  0  0  0  0
   12.7511    8.6999    7.6685 N   0  0  0  0  0  0  0  0  0  0  0  0
   12.0401   10.5599    6.4125 N   0  0  0  0  0  0  0  0  0  0  0  0
   11.6793   11.8476    6.2955 C   0  0  0  0  0  0  0  0  0  0  0  0
   11.6480   12.6691    7.4448 C   0  0  0  0  0  0  0  0  0  0  0  0
   12.0108   12.0761    8.6946 C   0  0  0  0  0  0  0  0  0  0  0  0
   12.0012   12.8153    9.8521 N   0  0  0  0  0  0  0  0  0  0  0  0
   11.2538   13.9111    7.0423 N   0  0  0  0  0  0  0  0  0  0  0  0
   11.0523   13.9004    5.7588 C   0  0  0  0  0  0  0  0  0  0  0  0
   11.2974   12.6504    5.2491 N   0  0  0  0  0  0  0  0  0  0  0  0
  1  7  2  0  0  0  0
  1  2  1  0  0  0  0
  2  3  1  0  0  0  0
  2  4  2  0  0  0  0
  4  5  1  0  0  0  0
  5  6  2  0  0  0  0
  5 11  1  0  0  0  0
  6  7  1  0  0  0  0
  6  9  1  0  0  0  0
  7  8  1  0  0  0  0
  9 10  1  0  0  0  0
 10 11  2  0  0  0  0
M  END
>  <CHROM.1>
11.86917668,11.79226225,7.35290089,-0.10618913,-1.26768610,1.02378395

>  <Name>
ligand

>  <RI>
0

>  <Rbt.Current_Directory>
/home/itssahil/PROJECTS/Mol_Feturizer/New_Systems/rnas/4FEO

>  <Rbt.Executable>
rbdock ($Id: //depot/dev/client3/rdock/2013.1/src/exe/rbdock.cxx#4 $)

>  <Rbt.Library>
libRbt.so (2013.1, Build901 2013/11/27)

>  <Rbt.Parameter_File>
/export/apps/rDock/src/rDock_2013.1_src/data/scripts/dock_solv.prm

>  <Rbt.Receptor>
prm/pocket_docking_3.prm

>  <SCORE>
-9.90535

>  <SCORE.INTER>
-9.90535

>  <SCORE.INTER.CONST>
1

>  <SCORE.INTER.POLAR>
0

>  <SCORE.INTER.ROT>
0

>  <SCORE.INTER.SOLV>
17.7025

>  <SCORE.INTER.VDW>
-16.1044

>  <SCORE.INTER.norm>
-0.900486

>  <SCORE.INTRA>
0

>  <SCORE.INTRA.DIHEDRAL>
0

>  <SCORE.INTRA.DIHEDRAL.0>
0

>  <SCORE.INTRA.POLAR>
0

>  <SCORE.INTRA.POLAR.0>
0

>  <SCORE.INTRA.REPUL>
0

>  <SCORE.INTRA.REPUL.0>
0

>  <SCORE.INTRA.SOLV>
0

>  <SCORE.INTRA.SOLV.lig_0>
-48.9252

>  <SCORE.INTRA.VDW>
0

>  <SCORE.INTRA.VDW.0>
0

>  <SCORE.INTRA.norm>
0

>  <SCORE.RESTR>
0

>  <SCORE.RESTR.CAVITY>
0

>  <SCORE.RESTR.norm>
0

>  <SCORE.SYSTEM>
0

>  <SCORE.SYSTEM.CONST>
0

>  <SCORE.SYSTEM.DIHEDRAL>
0

>  <SCORE.SYSTEM.SOLV>
0

>  <SCORE.SYSTEM.norm>
0

>  <SCORE.heavy>
11

>  <SCORE.norm>
-0.900486

>  <RMSD>
2.868

$$$$
ligand
 OpenBabel11021811493D
libRbt.so/2013.1/901 2013/11/27
 11 12  0  0  0  0  0  0  0  0999 V2000
   12.3969   10.7499    8.7430 N   0  0  0  0  0  0  0  0  0  0  0  0
   12.3735   10.0276    7.6079 C   0  0  0  0  0  0  0  0  0  0  0  0
   12.7608    8.6957    7.6416 N   0  0  0  0  0  0  0  0  0  0  0  0
   11.9851   10.5668    6.4416 N   0  0  0  0  0  0  0  0  0  0  0  0
   11.6081   11.8525    6.3578 C   0  0  0  0  0  0  0  0  0  0  0  0
   11.6129   12.6567    7.5197 C   0  0  0  0  0  0  0  0  0  0  0  0
   12.0285   12.0490    8.7457 C   0  0  0  0  0  0  0  0  0  0  0  0
   12.0561   12.7709    9.9138 N   0  0  0  0  0  0  0  0  0  0  0  0
   11.1920   13.9004    7.1512 N   0  0  0  0  0  0  0  0  0  0  0  0
   10.9419   13.9066    5.8763 C   0  0  0  0  0  0  0  0  0  0  0  0
   11.1791   12.6668    5.3388 N   0  0  0  0  0  0  0  0  0  0  0  0
  1  7  2  0  0  0  0
  1  2  1  0  0  0  0
  2  3  1  0  0  0  0
  2  4  2  0  0  0  0
  4  5  1  0  0  0  0
  5  6  2  0  0  0  0
  5 11  1  0  0  0  0
  6  7  1  0  0  0  0
  6  9  1  0  0  0  0
  7  8  1  0  0  0  0
  9 10  1  0  0  0  0
 10 11  2  0  0  0  0
M  END
>  <CHROM.1>
11.83857657,11.78350425,7.40628502,-0.19110424,-1.23876015,0.95799240

>  <Name>
ligand

>  <RI>
0

>  <Rbt.Current_Directory>
/home/itssahil/PROJECTS/Mol_Feturizer/New_Systems/rnas/4FEO

>  <Rbt.Executable>
rbdock ($Id: //depot/dev/client3/rdock/2013.1/src/exe/rbdock.cxx#4 $)

>  <Rbt.Library>
libRbt.so (2013.1, Build901 2013/11/27)

>  <Rbt.Parameter_File>
/export/apps/rDock/src/rDock_2013.1_src/data/scripts/dock_solv.prm

>  <Rbt.Receptor>
prm/pocket_docking_5.prm

>  <SCORE>
-9.881

>  <SCORE.INTER>
-9.88159

>  <SCORE.INTER.CONST>
1

>  <SCORE.INTER.POLAR>
0

>  <SCORE.INTER.ROT>
0

>  <SCORE.INTER.SOLV>
17.564

>  <SCORE.INTER.VDW>
-16.0424

>  <SCORE.INTER.norm>
-0.898326

>  <SCORE.INTRA>
0

>  <SCORE.INTRA.DIHEDRAL>
0

>  <SCORE.INTRA.DIHEDRAL.0>
0

>  <SCORE.INTRA.POLAR>
0

>  <SCORE.INTRA.POLAR.0>
0

>  <SCORE.INTRA.REPUL>
0

>  <SCORE.INTRA.REPUL.0>
0

>  <SCORE.INTRA.SOLV>
0

>  <SCORE.INTRA.SOLV.lig_0>
-48.9252

>  <SCORE.INTRA.VDW>
0

>  <SCORE.INTRA.VDW.0>
0

>  <SCORE.INTRA.norm>
0

>  <SCORE.RESTR>
0.000587005

>  <SCORE.RESTR.CAVITY>
0.000587005

>  <SCORE.RESTR.norm>
5.33641e-05

>  <SCORE.SYSTEM>
0

>  <SCORE.SYSTEM.CONST>
0

>  <SCORE.SYSTEM.DIHEDRAL>
0

>  <SCORE.SYSTEM.SOLV>
0

>  <SCORE.SYSTEM.norm>
0

>  <SCORE.heavy>
11

>  <SCORE.norm>
-0.898273

>  <RMSD>
2.868

$$$$
ligand
 OpenBabel11021811493D
libRbt.so/2013.1/901 2013/11/27
 11 12  0  0  0  0  0  0  0  0999 V2000
   12.4161   10.7438    8.7574 N   0  0  0  0  0  0  0  0  0  0  0  0
   12.3934   10.0122    7.6283 C   0  0  0  0  0  0  0  0  0  0  0  0
   12.7852    8.6819    7.6722 N   0  0  0  0  0  0  0  0  0  0  0  0
   12.0014   10.5405    6.4582 N   0  0  0  0  0  0  0  0  0  0  0  0
   11.6199   11.8242    6.3645 C   0  0  0  0  0  0  0  0  0  0  0  0
   11.6237   12.6378    7.5198 C   0  0  0  0  0  0  0  0  0  0  0  0
   12.0433   12.0415    8.7501 C   0  0  0  0  0  0  0  0  0  0  0  0
   12.0702   12.7731    9.9122 N   0  0  0  0  0  0  0  0  0  0  0  0
   11.1980   13.8771    7.1418 N   0  0  0  0  0  0  0  0  0  0  0  0
   10.9460   13.8720    5.8673 C   0  0  0  0  0  0  0  0  0  0  0  0
   11.1866   12.6287    5.3396 N   0  0  0  0  0  0  0  0  0  0  0  0
  1  7  2  0  0  0  0
  1  2  1  0  0  0  0
  2  3  1  0  0  0  0
  2  4  2  0  0  0  0
  4  5  1  0  0  0  0
  5  6  2  0  0  0  0
  5 11  1  0  0  0  0
  6  7  1  0  0  0  0
  6  9  1  0  0  0  0
  7  8  1  0  0  0  0
  9 10  1  0  0  0  0
 10 11  2  0  0  0  0
M  END
>  <CHROM.1>
11.85218629,11.76450573,7.41316997,-0.18900312,-1.23511398,0.95182854

>  <Name>
ligand

>  <RI>
0

>  <Rbt.Current_Directory>
/home/itssahil/PROJECTS/Mol_Feturizer/New_Systems/rnas/4FEO

>  <Rbt.Executable>
rbdock ($Id: //depot/dev/client3/rdock/2013.1/src/exe/rbdock.cxx#4 $)

>  <Rbt.Library>
libRbt.so (2013.1, Build901 2013/11/27)

>  <Rbt.Parameter_File>
/export/apps/rDock/src/rDock_2013.1_src/data/scripts/dock_solv.prm

>  <Rbt.Receptor>
prm/pocket_docking_6.prm

>  <SCORE>
-9.92427

>  <SCORE.INTER>
-9.92427

>  <SCORE.INTER.CONST>
1

>  <SCORE.INTER.POLAR>
0

>  <SCORE.INTER.ROT>
0

>  <SCORE.INTER.SOLV>
17.5162

>  <SCORE.INTER.VDW>
-16.0549

>  <SCORE.INTER.norm>
-0.902207

>  <SCORE.INTRA>
0

>  <SCORE.INTRA.DIHEDRAL>
0

>  <SCORE.INTRA.DIHEDRAL.0>
0

>  <SCORE.INTRA.POLAR>
0

>  <SCORE.INTRA.POLAR.0>
0

>  <SCORE.INTRA.REPUL>
0

>  <SCORE.INTRA.REPUL.0>
0

>  <SCORE.INTRA.SOLV>
0

>  <SCORE.INTRA.SOLV.lig_0>
-48.9252

>  <SCORE.INTRA.VDW>
0

>  <SCORE.INTRA.VDW.0>
0

>  <SCORE.INTRA.norm>
0

>  <SCORE.RESTR>
0

>  <SCORE.RESTR.CAVITY>
0

>  <SCORE.RESTR.norm>
0

>  <SCORE.SYSTEM>
0

>  <SCORE.SYSTEM.CONST>
0

>  <SCORE.SYSTEM.DIHEDRAL>
0

>  <SCORE.SYSTEM.SOLV>
0

>  <SCORE.SYSTEM.norm>
0

>  <SCORE.heavy>
11

>  <SCORE.norm>
-0.902207

>  <RMSD>
2.868

$$$$
ligand
 OpenBabel11021811493D
libRbt.so/2013.1/901 2013/11/27
 11 12  0  0  0  0  0  0  0  0999 V2000
   12.4643   10.7207    8.7235 N   0  0  0  0  0  0  0  0  0  0  0  0
   12.3695    9.9449    7.6282 C   0  0  0  0  0  0  0  0  0  0  0  0
   12.7500    8.6127    7.7037 N   0  0  0  0  0  0  0  0  0  0  0  0
   11.9162   10.4308    6.4618 N   0  0  0  0  0  0  0  0  0  0  0  0
   11.5427   11.7143    6.3380 C   0  0  0  0  0  0  0  0  0  0  0  0
   11.6210   12.5733    7.4572 C   0  0  0  0  0  0  0  0  0  0  0  0
   12.1046   12.0216    8.6848 C   0  0  0  0  0  0  0  0  0  0  0  0
   12.2055   12.7986    9.8128 N   0  0  0  0  0  0  0  0  0  0  0  0
   11.1866   13.8016    7.0541 N   0  0  0  0  0  0  0  0  0  0  0  0
   10.8617   13.7487    5.7973 C   0  0  0  0  0  0  0  0  0  0  0  0
   11.0592   12.4823    5.3077 N   0  0  0  0  0  0  0  0  0  0  0  0
  1  7  2  0  0  0  0
  1  2  1  0  0  0  0
  2  3  1  0  0  0  0
  2  4  2  0  0  0  0
  4  5  1  0  0  0  0
  5  6  2  0  0  0  0
  5 11  1  0  0  0  0
  6  7  1  0  0  0  0
  6  9  1  0  0  0  0
  7  8  1  0  0  0  0
  9 10  1  0  0  0  0
 10 11  2  0  0  0  0
M  END
>  <CHROM.1>
11.83428016,11.69371914,7.37328063,-0.33696460,-1.20617596,0.77245384

>  <Name>
ligand

>  <RI>
0

>  <Rbt.Current_Directory>
/home/itssahil/PROJECTS/Mol_Feturizer/New_Systems/rnas/4FEO

>  <Rbt.Executable>
rbdock ($Id: //depot/dev/client3/rdock/2013.1/src/exe/rbdock.cxx#4 $)

>  <Rbt.Library>
libRbt.so (2013.1, Build901 2013/11/27)

>  <Rbt.Parameter_File>
/export/apps/rDock/src/rDock_2013.1_src/data/scripts/dock_solv.prm

>  <Rbt.Receptor>
prm/pocket_docking_7.prm

>  <SCORE>
-9.91742

>  <SCORE.INTER>
-9.91822

>  <SCORE.INTER.CONST>
1

>  <SCORE.INTER.POLAR>
0

>  <SCORE.INTER.ROT>
0

>  <SCORE.INTER.SOLV>
17.362

>  <SCORE.INTER.VDW>
-15.9995

>  <SCORE.INTER.norm>
-0.901657

>  <SCORE.INTRA>
0

>  <SCORE.INTRA.DIHEDRAL>
0

>  <SCORE.INTRA.DIHEDRAL.0>
0

>  <SCORE.INTRA.POLAR>
0

>  <SCORE.INTRA.POLAR.0>
0

>  <SCORE.INTRA.REPUL>
0

>  <SCORE.INTRA.REPUL.0>
0

>  <SCORE.INTRA.SOLV>
0

>  <SCORE.INTRA.SOLV.lig_0>
-48.9252

>  <SCORE.INTRA.VDW>
0

>  <SCORE.INTRA.VDW.0>
0

>  <SCORE.INTRA.norm>
0

>  <SCORE.RESTR>
0.0008016

>  <SCORE.RESTR.CAVITY>
0.0008016

>  <SCORE.RESTR.norm>
7.28728e-05

>  <SCORE.SYSTEM>
0

>  <SCORE.SYSTEM.CONST>
0

>  <SCORE.SYSTEM.DIHEDRAL>
0

>  <SCORE.SYSTEM.SOLV>
0

>  <SCORE.SYSTEM.norm>
0

>  <SCORE.heavy>
11

>  <SCORE.norm>
-0.901584

>  <RMSD>
2.868

$$$$
ligand
 OpenBabel11021811493D
libRbt.so/2013.1/901 2013/11/27
 11 12  0  0  0  0  0  0  0  0999 V2000
   12.4170   10.7405    8.7579 N   0  0  0  0  0  0  0  0  0  0  0  0
   12.3830   10.0069    7.6304 C   0  0  0  0  0  0  0  0  0  0  0  0
   12.7648    8.6737    7.6751 N   0  0  0  0  0  0  0  0  0  0  0  0
   11.9891   10.5359    6.4613 N   0  0  0  0  0  0  0  0  0  0  0  0
   11.6170   11.8223    6.3669 C   0  0  0  0  0  0  0  0  0  0  0  0
   11.6329   12.6381    7.5206 C   0  0  0  0  0  0  0  0  0  0  0  0
   12.0541   12.0411    8.7499 C   0  0  0  0  0  0  0  0  0  0  0  0
   12.0926   12.7747    9.9104 N   0  0  0  0  0  0  0  0  0  0  0  0
   11.2148   13.8799    7.1423 N   0  0  0  0  0  0  0  0  0  0  0  0
   10.9562   13.8743    5.8691 C   0  0  0  0  0  0  0  0  0  0  0  0
   11.1846   12.6281    5.3426 N   0  0  0  0  0  0  0  0  0  0  0  0
  1  7  2  0  0  0  0
  1  2  1  0  0  0  0
  2  3  1  0  0  0  0
  2  4  2  0  0  0  0
  4  5  1  0  0  0  0
  5  6  2  0  0  0  0
  5 11  1  0  0  0  0
  6  7  1  0  0  0  0
  6  9  1  0  0  0  0
  7  8  1  0  0  0  0
  9 10  1  0  0  0  0
 10 11  2  0  0  0  0
M  END
>  <CHROM.1>
11.85414041,11.76292695,7.41453151,-0.21531649,-1.23829451,0.92497324

>  <Name>
ligand

>  <RI>
0

>  <Rbt.Current_Directory>
/home/itssahil/PROJECTS/Mol_Feturizer/New_Systems/rnas/4FEO

>  <Rbt.Executable>
rbdock ($Id: //depot/dev/client3/rdock/2013.1/src/exe/rbdock.cxx#4 $)

>  <Rbt.Library>
libRbt.so (2013.1, Build901 2013/11/27)

>  <Rbt.Parameter_File>
/export/apps/rDock/src/rDock_2013.1_src/data/scripts/dock_solv.prm

>  <Rbt.Receptor>
prm/pocket_docking_8.prm

>  <SCORE>
-9.93632

>  <SCORE.INTER>
-9.93632

>  <SCORE.INTER.CONST>
1

>  <SCORE.INTER.POLAR>
0

>  <SCORE.INTER.ROT>
0

>  <SCORE.INTER.SOLV>
17.5633

>  <SCORE.INTER.VDW>
-16.0786

>  <SCORE.INTER.norm>
-0.903302

>  <SCORE.INTRA>
0

>  <SCORE.INTRA.DIHEDRAL>
0

>  <SCORE.INTRA.DIHEDRAL.0>
0

>  <SCORE.INTRA.POLAR>
0

>  <SCORE.INTRA.POLAR.0>
0

>  <SCORE.INTRA.REPUL>
0

>  <SCORE.INTRA.REPUL.0>
0

>  <SCORE.INTRA.SOLV>
0

>  <SCORE.INTRA.SOLV.lig_0>
-48.9252

>  <SCORE.INTRA.VDW>
0

>  <SCORE.INTRA.VDW.0>
0

>  <SCORE.INTRA.norm>
0

>  <SCORE.RESTR>
0

>  <SCORE.RESTR.CAVITY>
0

>  <SCORE.RESTR.norm>
0

>  <SCORE.SYSTEM>
0

>  <SCORE.SYSTEM.CONST>
0

>  <SCORE.SYSTEM.DIHEDRAL>
0

>  <SCORE.SYSTEM.SOLV>
0

>  <SCORE.SYSTEM.norm>
0

>  <SCORE.heavy>
11

>  <SCORE.norm>
-0.903302

>  <RMSD>
2.868

$$$$
ligand
 OpenBabel11021811493D
libRbt.so/2013.1/901 2013/11/27
 11 12  0  0  0  0  0  0  0  0999 V2000
   12.0459   10.7572    8.6774 N   0  0  0  0  0  0  0  0  0  0  0  0
   12.2621    9.9051    7.6586 C   0  0  0  0  0  0  0  0  0  0  0  0
   12.7116    8.6208    7.9302 N   0  0  0  0  0  0  0  0  0  0  0  0
   12.0540   10.2695    6.3836 N   0  0  0  0  0  0  0  0  0  0  0  0
   11.6259   11.5028    6.0708 C   0  0  0  0  0  0  0  0  0  0  0  0
   11.3821   12.4377    7.1020 C   0  0  0  0  0  0  0  0  0  0  0  0
   11.6104   12.0146    8.4489 C   0  0  0  0  0  0  0  0  0  0  0  0
   11.3926   12.8706    9.5007 N   0  0  0  0  0  0  0  0  0  0  0  0
   10.9631   13.5921    6.5091 N   0  0  0  0  0  0  0  0  0  0  0  0
   10.9399   13.4268    5.2207 C   0  0  0  0  0  0  0  0  0  0  0  0
   11.3367   12.1540    4.8970 N   0  0  0  0  0  0  0  0  0  0  0  0
  1  7  2  0  0  0  0
  1  2  1  0  0  0  0
  2  3  1  0  0  0  0
  2  4  2  0  0  0  0
  4  5  1  0  0  0  0
  5  6  2  0  0  0  0
  5 11  1  0  0  0  0
  6  7  1  0  0  0  0
  6  9  1  0  0  0  0
  7  8  1  0  0  0  0
  9 10  1  0  0  0  0
 10 11  2  0  0  0  0
M  END
>  <CHROM.1>
11.67289287,11.57743546,7.14290362,0.38715796,-1.24412332,1.38034972

>  <Name>
ligand

>  <RI>
0

>  <Rbt.Current_Directory>
/home/itssahil/PROJECTS/Mol_Feturizer/New_Systems/rnas/4FEO

>  <Rbt.Executable>
rbdock ($Id: //depot/dev/client3/rdock/2013.1/src/exe/rbdock.cxx#4 $)

>  <Rbt.Library>
libRbt.so (2013.1, Build901 2013/11/27)

>  <Rbt.Parameter_File>
/export/apps/rDock/src/rDock_2013.1_src/data/scripts/dock_solv.prm

>  <Rbt.Receptor>
prm/blind_docking_20.prm

>  <SCORE>
-8.03556

>  <SCORE.INTER>
-8.58968

>  <SCORE.INTER.CONST>
1

>  <SCORE.INTER.POLAR>
0

>  <SCORE.INTER.ROT>
0

>  <SCORE.INTER.SOLV>
18.4502

>  <SCORE.INTER.VDW>
-15.4765

>  <SCORE.INTER.norm>
-0.78088

>  <SCORE.INTRA>
0

>  <SCORE.INTRA.DIHEDRAL>
0

>  <SCORE.INTRA.DIHEDRAL.0>
0

>  <SCORE.INTRA.POLAR>
0

>  <SCORE.INTRA.POLAR.0>
0

>  <SCORE.INTRA.REPUL>
0

>  <SCORE.INTRA.REPUL.0>
0

>  <SCORE.INTRA.SOLV>
0

>  <SCORE.INTRA.SOLV.lig_0>
-48.9252

>  <SCORE.INTRA.VDW>
0

>  <SCORE.INTRA.VDW.0>
0

>  <SCORE.INTRA.norm>
0

>  <SCORE.RESTR>
0.554118

>  <SCORE.RESTR.CAVITY>
0.554118

>  <SCORE.RESTR.norm>
0.0503744

>  <SCORE.SYSTEM>
0

>  <SCORE.SYSTEM.CONST>
0

>  <SCORE.SYSTEM.DIHEDRAL>
0

>  <SCORE.SYSTEM.SOLV>
0

>  <SCORE.SYSTEM.norm>
0

>  <SCORE.heavy>
11

>  <SCORE.norm>
-0.730505

>  <RMSD>
2.869

$$$$
ligand
 OpenBabel11021811493D
libRbt.so/2013.1/901 2013/11/27
 11 12  0  0  0  0  0  0  0  0999 V2000
   12.4366   10.7489    8.7494 N   0  0  0  0  0  0  0  0  0  0  0  0
   12.4248   10.0203    7.6181 C   0  0  0  0  0  0  0  0  0  0  0  0
   12.8331    8.6949    7.6589 N   0  0  0  0  0  0  0  0  0  0  0  0
   12.0281   10.5471    6.4489 N   0  0  0  0  0  0  0  0  0  0  0  0
   11.6307   11.8262    6.3583 C   0  0  0  0  0  0  0  0  0  0  0  0
   11.6226   12.6364    7.5160 C   0  0  0  0  0  0  0  0  0  0  0  0
   12.0476   12.0419    8.7453 C   0  0  0  0  0  0  0  0  0  0  0  0
   12.0635   12.7703    9.9095 N   0  0  0  0  0  0  0  0  0  0  0  0
   11.1821   13.8714    7.1409 N   0  0  0  0  0  0  0  0  0  0  0  0
   10.9321   13.8669    5.8660 C   0  0  0  0  0  0  0  0  0  0  0  0
   11.1891   12.6281    5.3350 N   0  0  0  0  0  0  0  0  0  0  0  0
  1  7  2  0  0  0  0
  1  2  1  0  0  0  0
  2  3  1  0  0  0  0
  2  4  2  0  0  0  0
  4  5  1  0  0  0  0
  5  6  2  0  0  0  0
  5 11  1  0  0  0  0
  6  7  1  0  0  0  0
  6  9  1  0  0  0  0
  7  8  1  0  0  0  0
  9 10  1  0  0  0  0
 10 11  2  0  0  0  0
M  END
>  <CHROM.1>
11.86211148,11.76636343,7.40720560,-0.16373054,-1.22576613,0.97853717

>  <Name>
ligand

>  <RI>
0

>  <Rbt.Current_Directory>
/home/itssahil/PROJECTS/Mol_Feturizer/New_Systems/rnas/4FEO

>  <Rbt.Executable>
rbdock ($Id: //depot/dev/client3/rdock/2013.1/src/exe/rbdock.cxx#4 $)

>  <Rbt.Library>
libRbt.so (2013.1, Build901 2013/11/27)

>  <Rbt.Parameter_File>
/export/apps/rDock/src/rDock_2013.1_src/data/scripts/dock_solv.prm

>  <Rbt.Receptor>
prm/blind_docking_60.prm

>  <SCORE>
-9.88016

>  <SCORE.INTER>
-9.88016

>  <SCORE.INTER.CONST>
1

>  <SCORE.INTER.POLAR>
0

>  <SCORE.INTER.ROT>
0

>  <SCORE.INTER.SOLV>
17.3286

>  <SCORE.INTER.VDW>
-15.963

>  <SCORE.INTER.norm>
-0.898196

>  <SCORE.INTRA>
0

>  <SCORE.INTRA.DIHEDRAL>
0

>  <SCORE.INTRA.DIHEDRAL.0>
0

>  <SCORE.INTRA.POLAR>
0

>  <SCORE.INTRA.POLAR.0>
0

>  <SCORE.INTRA.REPUL>
0

>  <SCORE.INTRA.REPUL.0>
0

>  <SCORE.INTRA.SOLV>
0

>  <SCORE.INTRA.SOLV.lig_0>
-48.9252

>  <SCORE.INTRA.VDW>
0

>  <SCORE.INTRA.VDW.0>
0

>  <SCORE.INTRA.norm>
0

>  <SCORE.RESTR>
0

>  <SCORE.RESTR.CAVITY>
0

>  <SCORE.RESTR.norm>
0

>  <SCORE.SYSTEM>
0

>  <SCORE.SYSTEM.CONST>
0

>  <SCORE.SYSTEM.DIHEDRAL>
0

>  <SCORE.SYSTEM.SOLV>
0

>  <SCORE.SYSTEM.norm>
0

>  <SCORE.heavy>
11

>  <SCORE.norm>
-0.898196

>  <RMSD>
2.869

$$$$
ligand
 OpenBabel11021811493D
libRbt.so/2013.1/901 2013/11/27
 11 12  0  0  0  0  0  0  0  0999 V2000
   12.3918   10.7492    8.7430 N   0  0  0  0  0  0  0  0  0  0  0  0
   12.3823   10.0313    7.6049 C   0  0  0  0  0  0  0  0  0  0  0  0
   12.7785    8.7020    7.6364 N   0  0  0  0  0  0  0  0  0  0  0  0
   11.9994   10.5725    6.4377 N   0  0  0  0  0  0  0  0  0  0  0  0
   11.6141   11.8559    6.3561 C   0  0  0  0  0  0  0  0  0  0  0  0
   11.6041   12.6554    7.5212 C   0  0  0  0  0  0  0  0  0  0  0  0
   12.0143   12.0456    8.7480 C   0  0  0  0  0  0  0  0  0  0  0  0
   12.0277   12.7630    9.9192 N   0  0  0  0  0  0  0  0  0  0  0  0
   11.1776   13.8977    7.1543 N   0  0  0  0  0  0  0  0  0  0  0  0
   10.9375   13.9073    5.8775 C   0  0  0  0  0  0  0  0  0  0  0  0
   11.1875   12.6713    5.3370 N   0  0  0  0  0  0  0  0  0  0  0  0
  1  7  2  0  0  0  0
  1  2  1  0  0  0  0
  2  3  1  0  0  0  0
  2  4  2  0  0  0  0
  4  5  1  0  0  0  0
  5  6  2  0  0  0  0
  5 11  1  0  0  0  0
  6  7  1  0  0  0  0
  6  9  1  0  0  0  0
  7  8  1  0  0  0  0
  9 10  1  0  0  0  0
 10 11  2  0  0  0  0
M  END
>  <CHROM.1>
11.83679667,11.78426648,7.40605936,-0.15919021,-1.23746321,0.99216130

>  <Name>
ligand

>  <RI>
0

>  <Rbt.Current_Directory>
/home/itssahil/PROJECTS/Mol_Feturizer/New_Systems/rnas/4FEO

>  <Rbt.Executable>
rbdock ($Id: //depot/dev/client3/rdock/2013.1/src/exe/rbdock.cxx#4 $)

>  <Rbt.Library>
libRbt.so (2013.1, Build901 2013/11/27)

>  <Rbt.Parameter_File>
/export/apps/rDock/src/rDock_2013.1_src/data/scripts/dock_solv.prm

>  <Rbt.Receptor>
prm/blind_docking_60.prm

>  <SCORE>
-9.86461

>  <SCORE.INTER>
-9.86461

>  <SCORE.INTER.CONST>
1

>  <SCORE.INTER.POLAR>
0

>  <SCORE.INTER.ROT>
0

>  <SCORE.INTER.SOLV>
17.5488

>  <SCORE.INTER.VDW>
-16.026

>  <SCORE.INTER.norm>
-0.896783

>  <SCORE.INTRA>
0

>  <SCORE.INTRA.DIHEDRAL>
0

>  <SCORE.INTRA.DIHEDRAL.0>
0

>  <SCORE.INTRA.POLAR>
0

>  <SCORE.INTRA.POLAR.0>
0

>  <SCORE.INTRA.REPUL>
0

>  <SCORE.INTRA.REPUL.0>
0

>  <SCORE.INTRA.SOLV>
0

>  <SCORE.INTRA.SOLV.lig_0>
-48.9252

>  <SCORE.INTRA.VDW>
0

>  <SCORE.INTRA.VDW.0>
0

>  <SCORE.INTRA.norm>
0

>  <SCORE.RESTR>
0

>  <SCORE.RESTR.CAVITY>
0

>  <SCORE.RESTR.norm>
0

>  <SCORE.SYSTEM>
0

>  <SCORE.SYSTEM.CONST>
0

>  <SCORE.SYSTEM.DIHEDRAL>
0

>  <SCORE.SYSTEM.SOLV>
0

>  <SCORE.SYSTEM.norm>
0

>  <SCORE.heavy>
11

>  <SCORE.norm>
-0.896783

>  <RMSD>
2.869

$$$$
ligand
 OpenBabel11021811493D
libRbt.so/2013.1/901 2013/11/27
 11 12  0  0  0  0  0  0  0  0999 V2000
   12.4016   10.7401    8.7136 N   0  0  0  0  0  0  0  0  0  0  0  0
   12.3603    9.9813    7.6031 C   0  0  0  0  0  0  0  0  0  0  0  0
   12.7222    8.6440    7.6797 N   0  0  0  0  0  0  0  0  0  0  0  0
   11.9779   10.4890    6.4208 N   0  0  0  0  0  0  0  0  0  0  0  0
   11.6251   11.7782    6.2956 C   0  0  0  0  0  0  0  0  0  0  0  0
   11.6495   12.6200    7.4302 C   0  0  0  0  0  0  0  0  0  0  0  0
   12.0580   12.0453    8.6745 C   0  0  0  0  0  0  0  0  0  0  0  0
   12.1037   12.8048    9.8179 N   0  0  0  0  0  0  0  0  0  0  0  0
   11.2510   13.8588    7.0220 N   0  0  0  0  0  0  0  0  0  0  0  0
   10.9964   13.8276    5.7484 C   0  0  0  0  0  0  0  0  0  0  0  0
   11.2079   12.5664    5.2515 N   0  0  0  0  0  0  0  0  0  0  0  0
  1  7  2  0  0  0  0
  1  2  1  0  0  0  0
  2  3  1  0  0  0  0
  2  4  2  0  0  0  0
  4  5  1  0  0  0  0
  5  6  2  0  0  0  0
  5 11  1  0  0  0  0
  6  7  1  0  0  0  0
  6  9  1  0  0  0  0
  7  8  1  0  0  0  0
  9 10  1  0  0  0  0
 10 11  2  0  0  0  0
M  END
>  <CHROM.1>
11.85810470,11.73944100,7.34510131,-0.23574373,-1.25191979,0.88260356

>  <Name>
ligand

>  <RI>
0

>  <Rbt.Current_Directory>
/home/itssahil/PROJECTS/Mol_Feturizer/New_Systems/rnas/4FEO

>  <Rbt.Executable>
rbdock ($Id: //depot/dev/client3/rdock/2013.1/src/exe/rbdock.cxx#4 $)

>  <Rbt.Library>
libRbt.so (2013.1, Build901 2013/11/27)

>  <Rbt.Parameter_File>
/export/apps/rDock/src/rDock_2013.1_src/data/scripts/dock_solv.prm

>  <Rbt.Receptor>
prm/pocket_docking_3.prm

>  <SCORE>
-9.93536

>  <SCORE.INTER>
-9.93536

>  <SCORE.INTER.CONST>
1

>  <SCORE.INTER.POLAR>
0

>  <SCORE.INTER.ROT>
0

>  <SCORE.INTER.SOLV>
17.5782

>  <SCORE.INTER.VDW>
-16.083

>  <SCORE.INTER.norm>
-0.903214

>  <SCORE.INTRA>
0

>  <SCORE.INTRA.DIHEDRAL>
0

>  <SCORE.INTRA.DIHEDRAL.0>
0

>  <SCORE.INTRA.POLAR>
0

>  <SCORE.INTRA.POLAR.0>
0

>  <SCORE.INTRA.REPUL>
0

>  <SCORE.INTRA.REPUL.0>
0

>  <SCORE.INTRA.SOLV>
0

>  <SCORE.INTRA.SOLV.lig_0>
-48.9252

>  <SCORE.INTRA.VDW>
0

>  <SCORE.INTRA.VDW.0>
0

>  <SCORE.INTRA.norm>
0

>  <SCORE.RESTR>
0

>  <SCORE.RESTR.CAVITY>
0

>  <SCORE.RESTR.norm>
0

>  <SCORE.SYSTEM>
0

>  <SCORE.SYSTEM.CONST>
0

>  <SCORE.SYSTEM.DIHEDRAL>
0

>  <SCORE.SYSTEM.SOLV>
0

>  <SCORE.SYSTEM.norm>
0

>  <SCORE.heavy>
11

>  <SCORE.norm>
-0.903214

>  <RMSD>
2.869

$$$$
ligand
 OpenBabel11021811493D
libRbt.so/2013.1/901 2013/11/27
 11 12  0  0  0  0  0  0  0  0999 V2000
   12.4076   10.7426    8.7346 N   0  0  0  0  0  0  0  0  0  0  0  0
   12.3663    9.9977    7.6146 C   0  0  0  0  0  0  0  0  0  0  0  0
   12.7287    8.6598    7.6743 N   0  0  0  0  0  0  0  0  0  0  0  0
   11.9835   10.5201    6.4389 N   0  0  0  0  0  0  0  0  0  0  0  0
   11.6302   11.8107    6.3300 C   0  0  0  0  0  0  0  0  0  0  0  0
   11.6545   12.6382    7.4752 C   0  0  0  0  0  0  0  0  0  0  0  0
   12.0636   12.0480    8.7120 C   0  0  0  0  0  0  0  0  0  0  0  0
   12.1092   12.7931    9.8649 N   0  0  0  0  0  0  0  0  0  0  0  0
   11.2555   13.8818    7.0827 N   0  0  0  0  0  0  0  0  0  0  0  0
   11.0006   13.8666    5.8088 C   0  0  0  0  0  0  0  0  0  0  0  0
   11.2125   12.6118    5.2961 N   0  0  0  0  0  0  0  0  0  0  0  0
  1  7  2  0  0  0  0
  1  2  1  0  0  0  0
  2  3  1  0  0  0  0
  2  4  2  0  0  0  0
  4  5  1  0  0  0  0
  5  6  2  0  0  0  0
  5 11  1  0  0  0  0
  6  7  1  0  0  0  0
  6  9  1  0  0  0  0
  7  8  1  0  0  0  0
  9 10  1  0  0  0  0
 10 11  2  0  0  0  0
M  END
>  <CHROM.1>
11.86346277,11.75883223,7.37889779,-0.23552940,-1.25149362,0.89540124

>  <Name>
ligand

>  <RI>
0

>  <Rbt.Current_Directory>
/home/itssahil/PROJECTS/Mol_Feturizer/New_Systems/rnas/4FEO

>  <Rbt.Executable>
rbdock ($Id: //depot/dev/client3/rdock/2013.1/src/exe/rbdock.cxx#4 $)

>  <Rbt.Library>
libRbt.so (2013.1, Build901 2013/11/27)

>  <Rbt.Parameter_File>
/export/apps/rDock/src/rDock_2013.1_src/data/scripts/dock_solv.prm

>  <Rbt.Receptor>
prm/pocket_docking_3.prm

>  <SCORE>
-9.96962

>  <SCORE.INTER>
-9.96962

>  <SCORE.INTER.CONST>
1

>  <SCORE.INTER.POLAR>
0

>  <SCORE.INTER.ROT>
0

>  <SCORE.INTER.SOLV>
17.628

>  <SCORE.INTER.VDW>
-16.1224

>  <SCORE.INTER.norm>
-0.906329

>  <SCORE.INTRA>
0

>  <SCORE.INTRA.DIHEDRAL>
0

>  <SCORE.INTRA.DIHEDRAL.0>
0

>  <SCORE.INTRA.POLAR>
0

>  <SCORE.INTRA.POLAR.0>
0

>  <SCORE.INTRA.REPUL>
0

>  <SCORE.INTRA.REPUL.0>
0

>  <SCORE.INTRA.SOLV>
0

>  <SCORE.INTRA.SOLV.lig_0>
-48.9252

>  <SCORE.INTRA.VDW>
0

>  <SCORE.INTRA.VDW.0>
0

>  <SCORE.INTRA.norm>
0

>  <SCORE.RESTR>
0

>  <SCORE.RESTR.CAVITY>
0

>  <SCORE.RESTR.norm>
0

>  <SCORE.SYSTEM>
0

>  <SCORE.SYSTEM.CONST>
0

>  <SCORE.SYSTEM.DIHEDRAL>
0

>  <SCORE.SYSTEM.SOLV>
0

>  <SCORE.SYSTEM.norm>
0

>  <SCORE.heavy>
11

>  <SCORE.norm>
-0.906329

>  <RMSD>
2.869

$$$$
ligand
 OpenBabel11021811493D
libRbt.so/2013.1/901 2013/11/27
 11 12  0  0  0  0  0  0  0  0999 V2000
   12.4599   10.7163    8.7226 N   0  0  0  0  0  0  0  0  0  0  0  0
   12.3599    9.9401    7.6279 C   0  0  0  0  0  0  0  0  0  0  0  0
   12.7314    8.6055    7.7046 N   0  0  0  0  0  0  0  0  0  0  0  0
   11.9098   10.4281    6.4611 N   0  0  0  0  0  0  0  0  0  0  0  0
   11.5449   11.7139    6.3362 C   0  0  0  0  0  0  0  0  0  0  0  0
   11.6289   12.5734    7.4547 C   0  0  0  0  0  0  0  0  0  0  0  0
   12.1089   12.0195    8.6828 C   0  0  0  0  0  0  0  0  0  0  0  0
   12.2150   12.7968    9.8101 N   0  0  0  0  0  0  0  0  0  0  0  0
   11.2029   13.8042    7.0505 N   0  0  0  0  0  0  0  0  0  0  0  0
   10.8776   13.7524    5.7938 C   0  0  0  0  0  0  0  0  0  0  0  0
   11.0666   12.4843    5.3052 N   0  0  0  0  0  0  0  0  0  0  0  0
  1  7  2  0  0  0  0
  1  2  1  0  0  0  0
  2  3  1  0  0  0  0
  2  4  2  0  0  0  0
  4  5  1  0  0  0  0
  5  6  2  0  0  0  0
  5 11  1  0  0  0  0
  6  7  1  0  0  0  0
  6  9  1  0  0  0  0
  7  8  1  0  0  0  0
  9 10  1  0  0  0  0
 10 11  2  0  0  0  0
M  END
>  <CHROM.1>
11.83636281,11.69230760,7.37149559,-0.35056581,-1.21082766,0.75887707

>  <Name>
ligand

>  <RI>
0

>  <Rbt.Current_Directory>
/home/itssahil/PROJECTS/Mol_Feturizer/New_Systems/rnas/4FEO

>  <Rbt.Executable>
rbdock ($Id: //depot/dev/client3/rdock/2013.1/src/exe/rbdock.cxx#4 $)

>  <Rbt.Library>
libRbt.so (2013.1, Build901 2013/11/27)

>  <Rbt.Parameter_File>
/export/apps/rDock/src/rDock_2013.1_src/data/scripts/dock_solv.prm

>  <Rbt.Receptor>
prm/pocket_docking_4.prm

>  <SCORE>
-9.93036

>  <SCORE.INTER>
-9.93446

>  <SCORE.INTER.CONST>
1

>  <SCORE.INTER.POLAR>
0

>  <SCORE.INTER.ROT>
0

>  <SCORE.INTER.SOLV>
17.4104

>  <SCORE.INTER.VDW>
-16.0264

>  <SCORE.INTER.norm>
-0.903133

>  <SCORE.INTRA>
0

>  <SCORE.INTRA.DIHEDRAL>
0

>  <SCORE.INTRA.DIHEDRAL.0>
0

>  <SCORE.INTRA.POLAR>
0

>  <SCORE.INTRA.POLAR.0>
0

>  <SCORE.INTRA.REPUL>
0

>  <SCORE.INTRA.REPUL.0>
0

>  <SCORE.INTRA.SOLV>
0

>  <SCORE.INTRA.SOLV.lig_0>
-48.9252

>  <SCORE.INTRA.VDW>
0

>  <SCORE.INTRA.VDW.0>
0

>  <SCORE.INTRA.norm>
0

>  <SCORE.RESTR>
0.00410167

>  <SCORE.RESTR.CAVITY>
0.00410167

>  <SCORE.RESTR.norm>
0.000372879

>  <SCORE.SYSTEM>
0

>  <SCORE.SYSTEM.CONST>
0

>  <SCORE.SYSTEM.DIHEDRAL>
0

>  <SCORE.SYSTEM.SOLV>
0

>  <SCORE.SYSTEM.norm>
0

>  <SCORE.heavy>
11

>  <SCORE.norm>
-0.90276

>  <RMSD>
2.869

$$$$
ligand
 OpenBabel11021811493D
libRbt.so/2013.1/901 2013/11/27
 11 12  0  0  0  0  0  0  0  0999 V2000
   12.4313   10.7326    8.7662 N   0  0  0  0  0  0  0  0  0  0  0  0
   12.4003    9.9959    7.6406 C   0  0  0  0  0  0  0  0  0  0  0  0
   12.7786    8.6619    7.6905 N   0  0  0  0  0  0  0  0  0  0  0  0
   12.0127   10.5227    6.4683 N   0  0  0  0  0  0  0  0  0  0  0  0
   11.6442   11.8097    6.3688 C   0  0  0  0  0  0  0  0  0  0  0  0
   11.6572   12.6287    7.5203 C   0  0  0  0  0  0  0  0  0  0  0  0
   12.0717   12.0340    8.7531 C   0  0  0  0  0  0  0  0  0  0  0  0
   12.1070   12.7707    9.9117 N   0  0  0  0  0  0  0  0  0  0  0  0
   11.2438   13.8704    7.1368 N   0  0  0  0  0  0  0  0  0  0  0  0
   10.9907   13.8619    5.8625 C   0  0  0  0  0  0  0  0  0  0  0  0
   11.2182   12.6136    5.3405 N   0  0  0  0  0  0  0  0  0  0  0  0
  1  7  2  0  0  0  0
  1  2  1  0  0  0  0
  2  3  1  0  0  0  0
  2  4  2  0  0  0  0
  4  5  1  0  0  0  0
  5  6  2  0  0  0  0
  5 11  1  0  0  0  0
  6  7  1  0  0  0  0
  6  9  1  0  0  0  0
  7  8  1  0  0  0  0
  9 10  1  0  0  0  0
 10 11  2  0  0  0  0
M  END
>  <CHROM.1>
11.87673527,11.75260339,7.41759395,-0.20931246,-1.24283279,0.92789537

>  <Name>
ligand

>  <RI>
0

>  <Rbt.Current_Directory>
/home/itssahil/PROJECTS/Mol_Feturizer/New_Systems/rnas/4FEO

>  <Rbt.Executable>
rbdock ($Id: //depot/dev/client3/rdock/2013.1/src/exe/rbdock.cxx#4 $)

>  <Rbt.Library>
libRbt.so (2013.1, Build901 2013/11/27)

>  <Rbt.Parameter_File>
/export/apps/rDock/src/rDock_2013.1_src/data/scripts/dock_solv.prm

>  <Rbt.Receptor>
prm/pocket_docking_5.prm

>  <SCORE>
-9.90907

>  <SCORE.INTER>
-9.90907

>  <SCORE.INTER.CONST>
1

>  <SCORE.INTER.POLAR>
0

>  <SCORE.INTER.ROT>
0

>  <SCORE.INTER.SOLV>
17.5474

>  <SCORE.INTER.VDW>
-16.0552

>  <SCORE.INTER.norm>
-0.900825

>  <SCORE.INTRA>
0

>  <SCORE.INTRA.DIHEDRAL>
0

>  <SCORE.INTRA.DIHEDRAL.0>
0

>  <SCORE.INTRA.POLAR>
0

>  <SCORE.INTRA.POLAR.0>
0

>  <SCORE.INTRA.REPUL>
0

>  <SCORE.INTRA.REPUL.0>
0

>  <SCORE.INTRA.SOLV>
0

>  <SCORE.INTRA.SOLV.lig_0>
-48.9252

>  <SCORE.INTRA.VDW>
0

>  <SCORE.INTRA.VDW.0>
0

>  <SCORE.INTRA.norm>
0

>  <SCORE.RESTR>
0

>  <SCORE.RESTR.CAVITY>
0

>  <SCORE.RESTR.norm>
0

>  <SCORE.SYSTEM>
0

>  <SCORE.SYSTEM.CONST>
0

>  <SCORE.SYSTEM.DIHEDRAL>
0

>  <SCORE.SYSTEM.SOLV>
0

>  <SCORE.SYSTEM.norm>
0

>  <SCORE.heavy>
11

>  <SCORE.norm>
-0.900825

>  <RMSD>
2.869

$$$$
ligand
 OpenBabel11021811493D
libRbt.so/2013.1/901 2013/11/27
 11 12  0  0  0  0  0  0  0  0999 V2000
   12.4240   10.7359    8.7579 N   0  0  0  0  0  0  0  0  0  0  0  0
   12.3942    9.9998    7.6319 C   0  0  0  0  0  0  0  0  0  0  0  0
   12.7767    8.6669    7.6807 N   0  0  0  0  0  0  0  0  0  0  0  0
   12.0038   10.5260    6.4603 N   0  0  0  0  0  0  0  0  0  0  0  0
   11.6312   11.8119    6.3620 C   0  0  0  0  0  0  0  0  0  0  0  0
   11.6428   12.6303    7.5139 C   0  0  0  0  0  0  0  0  0  0  0  0
   12.0604   12.0362    8.7459 C   0  0  0  0  0  0  0  0  0  0  0  0
   12.0945   12.7723    9.9049 N   0  0  0  0  0  0  0  0  0  0  0  0
   11.2252   13.8710    7.1315 N   0  0  0  0  0  0  0  0  0  0  0  0
   10.9709   13.8624    5.8574 C   0  0  0  0  0  0  0  0  0  0  0  0
   11.2018   12.6152    5.3345 N   0  0  0  0  0  0  0  0  0  0  0  0
  1  7  2  0  0  0  0
  1  2  1  0  0  0  0
  2  3  1  0  0  0  0
  2  4  2  0  0  0  0
  4  5  1  0  0  0  0
  5  6  2  0  0  0  0
  5 11  1  0  0  0  0
  6  7  1  0  0  0  0
  6  9  1  0  0  0  0
  7  8  1  0  0  0  0
  9 10  1  0  0  0  0
 10 11  2  0  0  0  0
M  END
>  <CHROM.1>
11.86496712,11.75497423,7.41046324,-0.20602937,-1.23977772,0.93157537

>  <Name>
ligand

>  <RI>
0

>  <Rbt.Current_Directory>
/home/itssahil/PROJECTS/Mol_Feturizer/New_Systems/rnas/4FEO

>  <Rbt.Executable>
rbdock ($Id: //depot/dev/client3/rdock/2013.1/src/exe/rbdock.cxx#4 $)

>  <Rbt.Library>
libRbt.so (2013.1, Build901 2013/11/27)

>  <Rbt.Parameter_File>
/export/apps/rDock/src/rDock_2013.1_src/data/scripts/dock_solv.prm

>  <Rbt.Receptor>
prm/pocket_docking_6.prm

>  <SCORE>
-9.89676

>  <SCORE.INTER>
-9.90008

>  <SCORE.INTER.CONST>
1

>  <SCORE.INTER.POLAR>
0

>  <SCORE.INTER.ROT>
0

>  <SCORE.INTER.SOLV>
17.5217

>  <SCORE.INTER.VDW>
-16.0406

>  <SCORE.INTER.norm>
-0.900007

>  <SCORE.INTRA>
0

>  <SCORE.INTRA.DIHEDRAL>
0

>  <SCORE.INTRA.DIHEDRAL.0>
0

>  <SCORE.INTRA.POLAR>
0

>  <SCORE.INTRA.POLAR.0>
0

>  <SCORE.INTRA.REPUL>
0

>  <SCORE.INTRA.REPUL.0>
0

>  <SCORE.INTRA.SOLV>
0

>  <SCORE.INTRA.SOLV.lig_0>
-48.9252

>  <SCORE.INTRA.VDW>
0

>  <SCORE.INTRA.VDW.0>
0

>  <SCORE.INTRA.norm>
0

>  <SCORE.RESTR>
0.00331671

>  <SCORE.RESTR.CAVITY>
0.00331671

>  <SCORE.RESTR.norm>
0.000301519

>  <SCORE.SYSTEM>
0

>  <SCORE.SYSTEM.CONST>
0

>  <SCORE.SYSTEM.DIHEDRAL>
0

>  <SCORE.SYSTEM.SOLV>
0

>  <SCORE.SYSTEM.norm>
0

>  <SCORE.heavy>
11

>  <SCORE.norm>
-0.899706

>  <RMSD>
2.869

$$$$
ligand
 OpenBabel11021811493D
libRbt.so/2013.1/901 2013/11/27
 11 12  0  0  0  0  0  0  0  0999 V2000
   12.4225   10.7441    8.7468 N   0  0  0  0  0  0  0  0  0  0  0  0
   12.3990   10.0139    7.6168 C   0  0  0  0  0  0  0  0  0  0  0  0
   12.7953    8.6848    7.6579 N   0  0  0  0  0  0  0  0  0  0  0  0
   12.0019   10.5425    6.4485 N   0  0  0  0  0  0  0  0  0  0  0  0
   11.6159   11.8250    6.3577 C   0  0  0  0  0  0  0  0  0  0  0  0
   11.6204   12.6371    7.5140 C   0  0  0  0  0  0  0  0  0  0  0  0
   12.0454   12.0406    8.7423 C   0  0  0  0  0  0  0  0  0  0  0  0
   12.0732   12.7707    9.9053 N   0  0  0  0  0  0  0  0  0  0  0  0
   11.1896   13.8755    7.1389 N   0  0  0  0  0  0  0  0  0  0  0  0
   10.9339   13.8713    5.8651 C   0  0  0  0  0  0  0  0  0  0  0  0
   11.1771   12.6294    5.3350 N   0  0  0  0  0  0  0  0  0  0  0  0
  1  7  2  0  0  0  0
  1  2  1  0  0  0  0
  2  3  1  0  0  0  0
  2  4  2  0  0  0  0
  4  5  1  0  0  0  0
  5  6  2  0  0  0  0
  5 11  1  0  0  0  0
  6  7  1  0  0  0  0
  6  9  1  0  0  0  0
  7  8  1  0  0  0  0
  9 10  1  0  0  0  0
 10 11  2  0  0  0  0
M  END
>  <CHROM.1>
11.85141921,11.76473477,7.40556905,-0.19021536,-1.23078712,0.95200244

>  <Name>
ligand

>  <RI>
0

>  <Rbt.Current_Directory>
/home/itssahil/PROJECTS/Mol_Feturizer/New_Systems/rnas/4FEO

>  <Rbt.Executable>
rbdock ($Id: //depot/dev/client3/rdock/2013.1/src/exe/rbdock.cxx#4 $)

>  <Rbt.Library>
libRbt.so (2013.1, Build901 2013/11/27)

>  <Rbt.Parameter_File>
/export/apps/rDock/src/rDock_2013.1_src/data/scripts/dock_solv.prm

>  <Rbt.Receptor>
prm/pocket_docking_6.prm

>  <SCORE>
-9.88059

>  <SCORE.INTER>
-9.88076

>  <SCORE.INTER.CONST>
1

>  <SCORE.INTER.POLAR>
0

>  <SCORE.INTER.ROT>
0

>  <SCORE.INTER.SOLV>
17.4281

>  <SCORE.INTER.VDW>
-15.9965

>  <SCORE.INTER.norm>
-0.898251

>  <SCORE.INTRA>
0

>  <SCORE.INTRA.DIHEDRAL>
0

>  <SCORE.INTRA.DIHEDRAL.0>
0

>  <SCORE.INTRA.POLAR>
0

>  <SCORE.INTRA.POLAR.0>
0

>  <SCORE.INTRA.REPUL>
0

>  <SCORE.INTRA.REPUL.0>
0

>  <SCORE.INTRA.SOLV>
0

>  <SCORE.INTRA.SOLV.lig_0>
-48.9252

>  <SCORE.INTRA.VDW>
0

>  <SCORE.INTRA.VDW.0>
0

>  <SCORE.INTRA.norm>
0

>  <SCORE.RESTR>
0.00016594

>  <SCORE.RESTR.CAVITY>
0.00016594

>  <SCORE.RESTR.norm>
1.50854e-05

>  <SCORE.SYSTEM>
0

>  <SCORE.SYSTEM.CONST>
0

>  <SCORE.SYSTEM.DIHEDRAL>
0

>  <SCORE.SYSTEM.SOLV>
0

>  <SCORE.SYSTEM.norm>
0

>  <SCORE.heavy>
11

>  <SCORE.norm>
-0.898236

>  <RMSD>
2.869

$$$$
ligand
 OpenBabel11021811493D
libRbt.so/2013.1/901 2013/11/27
 11 12  0  0  0  0  0  0  0  0999 V2000
   12.4358   10.7276    8.7607 N   0  0  0  0  0  0  0  0  0  0  0  0
   12.3910    9.9887    7.6370 C   0  0  0  0  0  0  0  0  0  0  0  0
   12.7599    8.6521    7.6872 N   0  0  0  0  0  0  0  0  0  0  0  0
   11.9986   10.5157    6.4664 N   0  0  0  0  0  0  0  0  0  0  0  0
   11.6388   11.8052    6.3668 C   0  0  0  0  0  0  0  0  0  0  0  0
   11.6664   12.6266    7.5162 C   0  0  0  0  0  0  0  0  0  0  0  0
   12.0856   12.0316    8.7473 C   0  0  0  0  0  0  0  0  0  0  0  0
   12.1349   12.7706    9.9039 N   0  0  0  0  0  0  0  0  0  0  0  0
   11.2593   13.8705    7.1330 N   0  0  0  0  0  0  0  0  0  0  0  0
   10.9967   13.8610    5.8606 C   0  0  0  0  0  0  0  0  0  0  0  0
   11.2112   12.6100    5.3398 N   0  0  0  0  0  0  0  0  0  0  0  0
  1  7  2  0  0  0  0
  1  2  1  0  0  0  0
  2  3  1  0  0  0  0
  2  4  2  0  0  0  0
  4  5  1  0  0  0  0
  5  6  2  0  0  0  0
  5 11  1  0  0  0  0
  6  7  1  0  0  0  0
  6  9  1  0  0  0  0
  7  8  1  0  0  0  0
  9 10  1  0  0  0  0
 10 11  2  0  0  0  0
M  END
>  <CHROM.1>
11.87872418,11.74875008,7.41390965,-0.24154355,-1.24412426,0.89513145

>  <Name>
ligand

>  <RI>
0

>  <Rbt.Current_Directory>
/home/itssahil/PROJECTS/Mol_Feturizer/New_Systems/rnas/4FEO

>  <Rbt.Executable>
rbdock ($Id: //depot/dev/client3/rdock/2013.1/src/exe/rbdock.cxx#4 $)

>  <Rbt.Library>
libRbt.so (2013.1, Build901 2013/11/27)

>  <Rbt.Parameter_File>
/export/apps/rDock/src/rDock_2013.1_src/data/scripts/dock_solv.prm

>  <Rbt.Receptor>
prm/blind_docking_80.prm

>  <SCORE>
-9.91244

>  <SCORE.INTER>
-9.91308

>  <SCORE.INTER.CONST>
1

>  <SCORE.INTER.POLAR>
0

>  <SCORE.INTER.ROT>
0

>  <SCORE.INTER.SOLV>
17.5691

>  <SCORE.INTER.VDW>
-16.0651

>  <SCORE.INTER.norm>
-0.901189

>  <SCORE.INTRA>
0

>  <SCORE.INTRA.DIHEDRAL>
0

>  <SCORE.INTRA.DIHEDRAL.0>
0

>  <SCORE.INTRA.POLAR>
0

>  <SCORE.INTRA.POLAR.0>
0

>  <SCORE.INTRA.REPUL>
0

>  <SCORE.INTRA.REPUL.0>
0

>  <SCORE.INTRA.SOLV>
0

>  <SCORE.INTRA.SOLV.lig_0>
-48.9252

>  <SCORE.INTRA.VDW>
0

>  <SCORE.INTRA.VDW.0>
0

>  <SCORE.INTRA.norm>
0

>  <SCORE.RESTR>
0.000641462

>  <SCORE.RESTR.CAVITY>
0.000641462

>  <SCORE.RESTR.norm>
5.83147e-05

>  <SCORE.SYSTEM>
0

>  <SCORE.SYSTEM.CONST>
0

>  <SCORE.SYSTEM.DIHEDRAL>
0

>  <SCORE.SYSTEM.SOLV>
0

>  <SCORE.SYSTEM.norm>
0

>  <SCORE.heavy>
11

>  <SCORE.norm>
-0.901131

>  <RMSD>
2.870

$$$$
ligand
 OpenBabel11021811493D
libRbt.so/2013.1/901 2013/11/27
 11 12  0  0  0  0  0  0  0  0999 V2000
   12.4459   10.7303    8.7556 N   0  0  0  0  0  0  0  0  0  0  0  0
   12.3903    9.9940    7.6306 C   0  0  0  0  0  0  0  0  0  0  0  0
   12.7612    8.6577    7.6738 N   0  0  0  0  0  0  0  0  0  0  0  0
   11.9853   10.5234    6.4655 N   0  0  0  0  0  0  0  0  0  0  0  0
   11.6230   11.8127    6.3726 C   0  0  0  0  0  0  0  0  0  0  0  0
   11.6615   12.6314    7.5237 C   0  0  0  0  0  0  0  0  0  0  0  0
   12.0941   12.0339    8.7489 C   0  0  0  0  0  0  0  0  0  0  0  0
   12.1545   12.7702    9.9068 N   0  0  0  0  0  0  0  0  0  0  0  0
   11.2491   13.8757    7.1477 N   0  0  0  0  0  0  0  0  0  0  0  0
   10.9734   13.8690    5.8781 C   0  0  0  0  0  0  0  0  0  0  0  0
   11.1839   12.6195    5.3520 N   0  0  0  0  0  0  0  0  0  0  0  0
  1  7  2  0  0  0  0
  1  2  1  0  0  0  0
  2  3  1  0  0  0  0
  2  4  2  0  0  0  0
  4  5  1  0  0  0  0
  5  6  2  0  0  0  0
  5 11  1  0  0  0  0
  6  7  1  0  0  0  0
  6  9  1  0  0  0  0
  7  8  1  0  0  0  0
  9 10  1  0  0  0  0
 10 11  2  0  0  0  0
M  END
>  <CHROM.1>
11.87377441,11.75400426,7.41709549,-0.26397959,-1.23671187,0.87630893

>  <Name>
ligand

>  <RI>
0

>  <Rbt.Current_Directory>
/home/itssahil/PROJECTS/Mol_Feturizer/New_Systems/rnas/4FEO

>  <Rbt.Executable>
rbdock ($Id: //depot/dev/client3/rdock/2013.1/src/exe/rbdock.cxx#4 $)

>  <Rbt.Library>
libRbt.so (2013.1, Build901 2013/11/27)

>  <Rbt.Parameter_File>
/export/apps/rDock/src/rDock_2013.1_src/data/scripts/dock_solv.prm

>  <Rbt.Receptor>
prm/pocket_docking_4.prm

>  <SCORE>
-9.92615

>  <SCORE.INTER>
-9.92615

>  <SCORE.INTER.CONST>
1

>  <SCORE.INTER.POLAR>
0

>  <SCORE.INTER.ROT>
0

>  <SCORE.INTER.SOLV>
17.5252

>  <SCORE.INTER.VDW>
-16.0591

>  <SCORE.INTER.norm>
-0.902377

>  <SCORE.INTRA>
0

>  <SCORE.INTRA.DIHEDRAL>
0

>  <SCORE.INTRA.DIHEDRAL.0>
0

>  <SCORE.INTRA.POLAR>
0

>  <SCORE.INTRA.POLAR.0>
0

>  <SCORE.INTRA.REPUL>
0

>  <SCORE.INTRA.REPUL.0>
0

>  <SCORE.INTRA.SOLV>
0

>  <SCORE.INTRA.SOLV.lig_0>
-48.9252

>  <SCORE.INTRA.VDW>
0

>  <SCORE.INTRA.VDW.0>
0

>  <SCORE.INTRA.norm>
0

>  <SCORE.RESTR>
0

>  <SCORE.RESTR.CAVITY>
0

>  <SCORE.RESTR.norm>
0

>  <SCORE.SYSTEM>
0

>  <SCORE.SYSTEM.CONST>
0

>  <SCORE.SYSTEM.DIHEDRAL>
0

>  <SCORE.SYSTEM.SOLV>
0

>  <SCORE.SYSTEM.norm>
0

>  <SCORE.heavy>
11

>  <SCORE.norm>
-0.902377

>  <RMSD>
2.870

$$$$
ligand
 OpenBabel11021811493D
libRbt.so/2013.1/901 2013/11/27
 11 12  0  0  0  0  0  0  0  0999 V2000
   12.4827   10.7419    8.7271 N   0  0  0  0  0  0  0  0  0  0  0  0
   12.4258    9.9794    7.6198 C   0  0  0  0  0  0  0  0  0  0  0  0
   12.8298    8.6537    7.6859 N   0  0  0  0  0  0  0  0  0  0  0  0
   11.9881   10.4726    6.4505 N   0  0  0  0  0  0  0  0  0  0  0  0
   11.5931   11.7504    6.3357 C   0  0  0  0  0  0  0  0  0  0  0  0
   11.6313   12.5954    7.4676 C   0  0  0  0  0  0  0  0  0  0  0  0
   12.0992   12.0362    8.6979 C   0  0  0  0  0  0  0  0  0  0  0  0
   12.1614   12.7996    9.8379 N   0  0  0  0  0  0  0  0  0  0  0  0
   11.1823   13.8208    7.0715 N   0  0  0  0  0  0  0  0  0  0  0  0
   10.8851   13.7788    5.8074 C   0  0  0  0  0  0  0  0  0  0  0  0
   11.1170   12.5232    5.3054 N   0  0  0  0  0  0  0  0  0  0  0  0
  1  7  2  0  0  0  0
  1  2  1  0  0  0  0
  2  3  1  0  0  0  0
  2  4  2  0  0  0  0
  4  5  1  0  0  0  0
  5  6  2  0  0  0  0
  5 11  1  0  0  0  0
  6  7  1  0  0  0  0
  6  9  1  0  0  0  0
  7  8  1  0  0  0  0
  9 10  1  0  0  0  0
 10 11  2  0  0  0  0
M  END
>  <CHROM.1>
11.86298642,11.72121514,7.37661397,-0.25708792,-1.20702649,0.86049744

>  <Name>
ligand

>  <RI>
0

>  <Rbt.Current_Directory>
/home/itssahil/PROJECTS/Mol_Feturizer/New_Systems/rnas/4FEO

>  <Rbt.Executable>
rbdock ($Id: //depot/dev/client3/rdock/2013.1/src/exe/rbdock.cxx#4 $)

>  <Rbt.Library>
libRbt.so (2013.1, Build901 2013/11/27)

>  <Rbt.Parameter_File>
/export/apps/rDock/src/rDock_2013.1_src/data/scripts/dock_solv.prm

>  <Rbt.Receptor>
prm/pocket_docking_6.prm

>  <SCORE>
-9.89072

>  <SCORE.INTER>
-9.89812

>  <SCORE.INTER.CONST>
1

>  <SCORE.INTER.POLAR>
0

>  <SCORE.INTER.ROT>
0

>  <SCORE.INTER.SOLV>
17.1833

>  <SCORE.INTER.VDW>
-15.9265

>  <SCORE.INTER.norm>
-0.899829

>  <SCORE.INTRA>
0

>  <SCORE.INTRA.DIHEDRAL>
0

>  <SCORE.INTRA.DIHEDRAL.0>
0

>  <SCORE.INTRA.POLAR>
0

>  <SCORE.INTRA.POLAR.0>
0

>  <SCORE.INTRA.REPUL>
0

>  <SCORE.INTRA.REPUL.0>
0

>  <SCORE.INTRA.SOLV>
0

>  <SCORE.INTRA.SOLV.lig_0>
-48.9252

>  <SCORE.INTRA.VDW>
0

>  <SCORE.INTRA.VDW.0>
0

>  <SCORE.INTRA.norm>
0

>  <SCORE.RESTR>
0.0073988

>  <SCORE.RESTR.CAVITY>
0.0073988

>  <SCORE.RESTR.norm>
0.000672618

>  <SCORE.SYSTEM>
0

>  <SCORE.SYSTEM.CONST>
0

>  <SCORE.SYSTEM.DIHEDRAL>
0

>  <SCORE.SYSTEM.SOLV>
0

>  <SCORE.SYSTEM.norm>
0

>  <SCORE.heavy>
11

>  <SCORE.norm>
-0.899157

>  <RMSD>
2.870

$$$$
ligand
 OpenBabel11021811493D
libRbt.so/2013.1/901 2013/11/27
 11 12  0  0  0  0  0  0  0  0999 V2000
   12.4330   10.7368    8.7455 N   0  0  0  0  0  0  0  0  0  0  0  0
   12.3823   10.0021    7.6193 C   0  0  0  0  0  0  0  0  0  0  0  0
   12.7569    8.6668    7.6614 N   0  0  0  0  0  0  0  0  0  0  0  0
   11.9787   10.5321    6.4539 N   0  0  0  0  0  0  0  0  0  0  0  0
   11.6130   11.8205    6.3622 C   0  0  0  0  0  0  0  0  0  0  0  0
   11.6463   12.6375    7.5146 C   0  0  0  0  0  0  0  0  0  0  0  0
   12.0776   12.0394    8.7400 C   0  0  0  0  0  0  0  0  0  0  0  0
   12.1330   12.7741    9.8991 N   0  0  0  0  0  0  0  0  0  0  0  0
   11.2314   13.8813    7.1394 N   0  0  0  0  0  0  0  0  0  0  0  0
   10.9588   13.8757    5.8691 C   0  0  0  0  0  0  0  0  0  0  0  0
   11.1742   12.6276    5.3417 N   0  0  0  0  0  0  0  0  0  0  0  0
  1  7  2  0  0  0  0
  1  2  1  0  0  0  0
  2  3  1  0  0  0  0
  2  4  2  0  0  0  0
  4  5  1  0  0  0  0
  5  6  2  0  0  0  0
  5 11  1  0  0  0  0
  6  7  1  0  0  0  0
  6  9  1  0  0  0  0
  7  8  1  0  0  0  0
  9 10  1  0  0  0  0
 10 11  2  0  0  0  0
M  END
>  <CHROM.1>
11.86133990,11.76093911,7.40716833,-0.25259461,-1.23611724,0.88859965

>  <Name>
ligand

>  <RI>
0

>  <Rbt.Current_Directory>
/home/itssahil/PROJECTS/Mol_Feturizer/New_Systems/rnas/4FEO

>  <Rbt.Executable>
rbdock ($Id: //depot/dev/client3/rdock/2013.1/src/exe/rbdock.cxx#4 $)

>  <Rbt.Library>
libRbt.so (2013.1, Build901 2013/11/27)

>  <Rbt.Parameter_File>
/export/apps/rDock/src/rDock_2013.1_src/data/scripts/dock_solv.prm

>  <Rbt.Receptor>
prm/pocket_docking_8.prm

>  <SCORE>
-9.91948

>  <SCORE.INTER>
-9.91948

>  <SCORE.INTER.CONST>
1

>  <SCORE.INTER.POLAR>
0

>  <SCORE.INTER.ROT>
0

>  <SCORE.INTER.SOLV>
17.5141

>  <SCORE.INTER.VDW>
-16.051

>  <SCORE.INTER.norm>
-0.901771

>  <SCORE.INTRA>
0

>  <SCORE.INTRA.DIHEDRAL>
0

>  <SCORE.INTRA.DIHEDRAL.0>
0

>  <SCORE.INTRA.POLAR>
0

>  <SCORE.INTRA.POLAR.0>
0

>  <SCORE.INTRA.REPUL>
0

>  <SCORE.INTRA.REPUL.0>
0

>  <SCORE.INTRA.SOLV>
0

>  <SCORE.INTRA.SOLV.lig_0>
-48.9252

>  <SCORE.INTRA.VDW>
0

>  <SCORE.INTRA.VDW.0>
0

>  <SCORE.INTRA.norm>
0

>  <SCORE.RESTR>
0

>  <SCORE.RESTR.CAVITY>
0

>  <SCORE.RESTR.norm>
0

>  <SCORE.SYSTEM>
0

>  <SCORE.SYSTEM.CONST>
0

>  <SCORE.SYSTEM.DIHEDRAL>
0

>  <SCORE.SYSTEM.SOLV>
0

>  <SCORE.SYSTEM.norm>
0

>  <SCORE.heavy>
11

>  <SCORE.norm>
-0.901771

>  <RMSD>
2.870

$$$$
ligand
 OpenBabel11021811493D
libRbt.so/2013.1/901 2013/11/27
 11 12  0  0  0  0  0  0  0  0999 V2000
   12.4336   10.7292    8.7518 N   0  0  0  0  0  0  0  0  0  0  0  0
   12.3867    9.9966    7.6240 C   0  0  0  0  0  0  0  0  0  0  0  0
   12.7592    8.6607    7.6652 N   0  0  0  0  0  0  0  0  0  0  0  0
   11.9887   10.5293    6.4579 N   0  0  0  0  0  0  0  0  0  0  0  0
   11.6252   11.8184    6.3670 C   0  0  0  0  0  0  0  0  0  0  0  0
   11.6547   12.6332    7.5211 C   0  0  0  0  0  0  0  0  0  0  0  0
   12.0800   12.0323    8.7472 C   0  0  0  0  0  0  0  0  0  0  0  0
   12.1315   12.7648    9.9079 N   0  0  0  0  0  0  0  0  0  0  0  0
   11.2430   13.8782    7.1464 N   0  0  0  0  0  0  0  0  0  0  0  0
   10.9758   13.8753    5.8750 C   0  0  0  0  0  0  0  0  0  0  0  0
   11.1917   12.6279    5.3462 N   0  0  0  0  0  0  0  0  0  0  0  0
  1  7  2  0  0  0  0
  1  2  1  0  0  0  0
  2  3  1  0  0  0  0
  2  4  2  0  0  0  0
  4  5  1  0  0  0  0
  5  6  2  0  0  0  0
  5 11  1  0  0  0  0
  6  7  1  0  0  0  0
  6  9  1  0  0  0  0
  7  8  1  0  0  0  0
  9 10  1  0  0  0  0
 10 11  2  0  0  0  0
M  END
>  <CHROM.1>
11.86898407,11.75651243,7.41293913,-0.24514818,-1.23981618,0.89747012

>  <Name>
ligand

>  <RI>
0

>  <Rbt.Current_Directory>
/home/itssahil/PROJECTS/Mol_Feturizer/New_Systems/rnas/4FEO

>  <Rbt.Executable>
rbdock ($Id: //depot/dev/client3/rdock/2013.1/src/exe/rbdock.cxx#4 $)

>  <Rbt.Library>
libRbt.so (2013.1, Build901 2013/11/27)

>  <Rbt.Parameter_File>
/export/apps/rDock/src/rDock_2013.1_src/data/scripts/dock_solv.prm

>  <Rbt.Receptor>
prm/blind_docking_60.prm

>  <SCORE>
-9.93389

>  <SCORE.INTER>
-9.93389

>  <SCORE.INTER.CONST>
1

>  <SCORE.INTER.POLAR>
0

>  <SCORE.INTER.ROT>
0

>  <SCORE.INTER.SOLV>
17.5257

>  <SCORE.INTER.VDW>
-16.0645

>  <SCORE.INTER.norm>
-0.903081

>  <SCORE.INTRA>
0

>  <SCORE.INTRA.DIHEDRAL>
0

>  <SCORE.INTRA.DIHEDRAL.0>
0

>  <SCORE.INTRA.POLAR>
0

>  <SCORE.INTRA.POLAR.0>
0

>  <SCORE.INTRA.REPUL>
0

>  <SCORE.INTRA.REPUL.0>
0

>  <SCORE.INTRA.SOLV>
0

>  <SCORE.INTRA.SOLV.lig_0>
-48.9252

>  <SCORE.INTRA.VDW>
0

>  <SCORE.INTRA.VDW.0>
0

>  <SCORE.INTRA.norm>
0

>  <SCORE.RESTR>
0

>  <SCORE.RESTR.CAVITY>
0

>  <SCORE.RESTR.norm>
0

>  <SCORE.SYSTEM>
0

>  <SCORE.SYSTEM.CONST>
0

>  <SCORE.SYSTEM.DIHEDRAL>
0

>  <SCORE.SYSTEM.SOLV>
0

>  <SCORE.SYSTEM.norm>
0

>  <SCORE.heavy>
11

>  <SCORE.norm>
-0.903081

>  <RMSD>
2.871

$$$$
ligand
 OpenBabel11021811493D
libRbt.so/2013.1/901 2013/11/27
 11 12  0  0  0  0  0  0  0  0999 V2000
   12.4640   10.7321    8.7318 N   0  0  0  0  0  0  0  0  0  0  0  0
   12.4249    9.9727    7.6216 C   0  0  0  0  0  0  0  0  0  0  0  0
   12.8284    8.6470    7.6902 N   0  0  0  0  0  0  0  0  0  0  0  0
   12.0054   10.4691    6.4470 N   0  0  0  0  0  0  0  0  0  0  0  0
   11.6116   11.7470    6.3296 C   0  0  0  0  0  0  0  0  0  0  0  0
   11.6316   12.5889    7.4644 C   0  0  0  0  0  0  0  0  0  0  0  0
   12.0804   12.0263    8.7002 C   0  0  0  0  0  0  0  0  0  0  0  0
   12.1244   12.7865    9.8433 N   0  0  0  0  0  0  0  0  0  0  0  0
   11.1884   13.8152    7.0648 N   0  0  0  0  0  0  0  0  0  0  0  0
   10.9111   13.7767    5.7961 C   0  0  0  0  0  0  0  0  0  0  0  0
   11.1514   12.5227    5.2942 N   0  0  0  0  0  0  0  0  0  0  0  0
  1  7  2  0  0  0  0
  1  2  1  0  0  0  0
  2  3  1  0  0  0  0
  2  4  2  0  0  0  0
  4  5  1  0  0  0  0
  5  6  2  0  0  0  0
  5 11  1  0  0  0  0
  6  7  1  0  0  0  0
  6  9  1  0  0  0  0
  7  8  1  0  0  0  0
  9 10  1  0  0  0  0
 10 11  2  0  0  0  0
M  END
>  <CHROM.1>
11.86512622,11.71502442,7.37456645,-0.22187974,-1.21672943,0.89632193

>  <Name>
ligand

>  <RI>
0

>  <Rbt.Current_Directory>
/home/itssahil/PROJECTS/Mol_Feturizer/New_Systems/rnas/4FEO

>  <Rbt.Executable>
rbdock ($Id: //depot/dev/client3/rdock/2013.1/src/exe/rbdock.cxx#4 $)

>  <Rbt.Library>
libRbt.so (2013.1, Build901 2013/11/27)

>  <Rbt.Parameter_File>
/export/apps/rDock/src/rDock_2013.1_src/data/scripts/dock_solv.prm

>  <Rbt.Receptor>
prm/blind_docking_60.prm

>  <SCORE>
-9.91608

>  <SCORE.INTER>
-9.92894

>  <SCORE.INTER.CONST>
1

>  <SCORE.INTER.POLAR>
0

>  <SCORE.INTER.ROT>
0

>  <SCORE.INTER.SOLV>
17.2119

>  <SCORE.INTER.VDW>
-15.9566

>  <SCORE.INTER.norm>
-0.902631

>  <SCORE.INTRA>
0

>  <SCORE.INTRA.DIHEDRAL>
0

>  <SCORE.INTRA.DIHEDRAL.0>
0

>  <SCORE.INTRA.POLAR>
0

>  <SCORE.INTRA.POLAR.0>
0

>  <SCORE.INTRA.REPUL>
0

>  <SCORE.INTRA.REPUL.0>
0

>  <SCORE.INTRA.SOLV>
0

>  <SCORE.INTRA.SOLV.lig_0>
-48.9252

>  <SCORE.INTRA.VDW>
0

>  <SCORE.INTRA.VDW.0>
0

>  <SCORE.INTRA.norm>
0

>  <SCORE.RESTR>
0.0128627

>  <SCORE.RESTR.CAVITY>
0.0128627

>  <SCORE.RESTR.norm>
0.00116934

>  <SCORE.SYSTEM>
0

>  <SCORE.SYSTEM.CONST>
0

>  <SCORE.SYSTEM.DIHEDRAL>
0

>  <SCORE.SYSTEM.SOLV>
0

>  <SCORE.SYSTEM.norm>
0

>  <SCORE.heavy>
11

>  <SCORE.norm>
-0.901462

>  <RMSD>
2.871

$$$$
ligand
 OpenBabel11021811493D
libRbt.so/2013.1/901 2013/11/27
 11 12  0  0  0  0  0  0  0  0999 V2000
   12.4813   10.7217    8.7110 N   0  0  0  0  0  0  0  0  0  0  0  0
   12.3807    9.9472    7.6152 C   0  0  0  0  0  0  0  0  0  0  0  0
   12.7645    8.6157    7.6863 N   0  0  0  0  0  0  0  0  0  0  0  0
   11.9184   10.4338    6.4527 N   0  0  0  0  0  0  0  0  0  0  0  0
   11.5414   11.7166    6.3333 C   0  0  0  0  0  0  0  0  0  0  0  0
   11.6254   12.5742    7.4532 C   0  0  0  0  0  0  0  0  0  0  0  0
   12.1186   12.0218    8.6767 C   0  0  0  0  0  0  0  0  0  0  0  0
   12.2255   12.7975    9.8051 N   0  0  0  0  0  0  0  0  0  0  0  0
   11.1857   13.8022    7.0548 N   0  0  0  0  0  0  0  0  0  0  0  0
   10.8524   13.7503    5.8002 C   0  0  0  0  0  0  0  0  0  0  0  0
   11.0492   12.4851    5.3073 N   0  0  0  0  0  0  0  0  0  0  0  0
  1  7  2  0  0  0  0
  1  2  1  0  0  0  0
  2  3  1  0  0  0  0
  2  4  2  0  0  0  0
  4  5  1  0  0  0  0
  5  6  2  0  0  0  0
  5 11  1  0  0  0  0
  6  7  1  0  0  0  0
  6  9  1  0  0  0  0
  7  8  1  0  0  0  0
  9 10  1  0  0  0  0
 10 11  2  0  0  0  0
M  END
>  <CHROM.1>
11.84000944,11.69523439,7.36652159,-0.34582055,-1.19980505,0.76562245

>  <Name>
ligand

>  <RI>
0

>  <Rbt.Current_Directory>
/home/itssahil/PROJECTS/Mol_Feturizer/New_Systems/rnas/4FEO

>  <Rbt.Executable>
rbdock ($Id: //depot/dev/client3/rdock/2013.1/src/exe/rbdock.cxx#4 $)

>  <Rbt.Library>
libRbt.so (2013.1, Build901 2013/11/27)

>  <Rbt.Parameter_File>
/export/apps/rDock/src/rDock_2013.1_src/data/scripts/dock_solv.prm

>  <Rbt.Receptor>
prm/blind_docking_80.prm

>  <SCORE>
-9.87999

>  <SCORE.INTER>
-9.88005

>  <SCORE.INTER.CONST>
1

>  <SCORE.INTER.POLAR>
0

>  <SCORE.INTER.ROT>
0

>  <SCORE.INTER.SOLV>
17.2468

>  <SCORE.INTER.VDW>
-15.9356

>  <SCORE.INTER.norm>
-0.898186

>  <SCORE.INTRA>
0

>  <SCORE.INTRA.DIHEDRAL>
0

>  <SCORE.INTRA.DIHEDRAL.0>
0

>  <SCORE.INTRA.POLAR>
0

>  <SCORE.INTRA.POLAR.0>
0

>  <SCORE.INTRA.REPUL>
0

>  <SCORE.INTRA.REPUL.0>
0

>  <SCORE.INTRA.SOLV>
0

>  <SCORE.INTRA.SOLV.lig_0>
-48.9252

>  <SCORE.INTRA.VDW>
0

>  <SCORE.INTRA.VDW.0>
0

>  <SCORE.INTRA.norm>
0

>  <SCORE.RESTR>
5.40783e-05

>  <SCORE.RESTR.CAVITY>
5.40783e-05

>  <SCORE.RESTR.norm>
4.91621e-06

>  <SCORE.SYSTEM>
0

>  <SCORE.SYSTEM.CONST>
0

>  <SCORE.SYSTEM.DIHEDRAL>
0

>  <SCORE.SYSTEM.SOLV>
0

>  <SCORE.SYSTEM.norm>
0

>  <SCORE.heavy>
11

>  <SCORE.norm>
-0.898181

>  <RMSD>
2.871

$$$$
ligand
 OpenBabel11021811493D
libRbt.so/2013.1/901 2013/11/27
 11 12  0  0  0  0  0  0  0  0999 V2000
   12.4343   10.7316    8.7375 N   0  0  0  0  0  0  0  0  0  0  0  0
   12.3754    9.9982    7.6109 C   0  0  0  0  0  0  0  0  0  0  0  0
   12.7427    8.6609    7.6503 N   0  0  0  0  0  0  0  0  0  0  0  0
   11.9703   10.5316    6.4475 N   0  0  0  0  0  0  0  0  0  0  0  0
   11.6114   11.8220    6.3583 C   0  0  0  0  0  0  0  0  0  0  0  0
   11.6535   12.6378    7.5113 C   0  0  0  0  0  0  0  0  0  0  0  0
   12.0860   12.0362    8.7345 C   0  0  0  0  0  0  0  0  0  0  0  0
   12.1498   12.7695    9.8941 N   0  0  0  0  0  0  0  0  0  0  0  0
   11.2440   13.8842    7.1388 N   0  0  0  0  0  0  0  0  0  0  0  0
   10.9667   13.8812    5.8696 C   0  0  0  0  0  0  0  0  0  0  0  0
   11.1732   12.6325    5.3402 N   0  0  0  0  0  0  0  0  0  0  0  0
  1  7  2  0  0  0  0
  1  2  1  0  0  0  0
  2  3  1  0  0  0  0
  2  4  2  0  0  0  0
  4  5  1  0  0  0  0
  5  6  2  0  0  0  0
  5 11  1  0  0  0  0
  6  7  1  0  0  0  0
  6  9  1  0  0  0  0
  7  8  1  0  0  0  0
  9 10  1  0  0  0  0
 10 11  2  0  0  0  0
M  END
>  <CHROM.1>
11.86327428,11.76010361,7.40226594,-0.27207028,-1.23796797,0.87111915

>  <Name>
ligand

>  <RI>
0

>  <Rbt.Current_Directory>
/home/itssahil/PROJECTS/Mol_Feturizer/New_Systems/rnas/4FEO

>  <Rbt.Executable>
rbdock ($Id: //depot/dev/client3/rdock/2013.1/src/exe/rbdock.cxx#4 $)

>  <Rbt.Library>
libRbt.so (2013.1, Build901 2013/11/27)

>  <Rbt.Parameter_File>
/export/apps/rDock/src/rDock_2013.1_src/data/scripts/dock_solv.prm

>  <Rbt.Receptor>
prm/pocket_docking_7.prm

>  <SCORE>
-9.92903

>  <SCORE.INTER>
-9.92903

>  <SCORE.INTER.CONST>
1

>  <SCORE.INTER.POLAR>
0

>  <SCORE.INTER.ROT>
0

>  <SCORE.INTER.SOLV>
17.5134

>  <SCORE.INTER.VDW>
-16.0572

>  <SCORE.INTER.norm>
-0.902639

>  <SCORE.INTRA>
0

>  <SCORE.INTRA.DIHEDRAL>
0

>  <SCORE.INTRA.DIHEDRAL.0>
0

>  <SCORE.INTRA.POLAR>
0

>  <SCORE.INTRA.POLAR.0>
0

>  <SCORE.INTRA.REPUL>
0

>  <SCORE.INTRA.REPUL.0>
0

>  <SCORE.INTRA.SOLV>
0

>  <SCORE.INTRA.SOLV.lig_0>
-48.9252

>  <SCORE.INTRA.VDW>
0

>  <SCORE.INTRA.VDW.0>
0

>  <SCORE.INTRA.norm>
0

>  <SCORE.RESTR>
0

>  <SCORE.RESTR.CAVITY>
0

>  <SCORE.RESTR.norm>
0

>  <SCORE.SYSTEM>
0

>  <SCORE.SYSTEM.CONST>
0

>  <SCORE.SYSTEM.DIHEDRAL>
0

>  <SCORE.SYSTEM.SOLV>
0

>  <SCORE.SYSTEM.norm>
0

>  <SCORE.heavy>
11

>  <SCORE.norm>
-0.902639

>  <RMSD>
2.871

$$$$
ligand
 OpenBabel11021811493D
libRbt.so/2013.1/901 2013/11/27
 11 12  0  0  0  0  0  0  0  0999 V2000
   12.4365   10.7300    8.7396 N   0  0  0  0  0  0  0  0  0  0  0  0
   12.3770    9.9967    7.6129 C   0  0  0  0  0  0  0  0  0  0  0  0
   12.7427    8.6589    7.6525 N   0  0  0  0  0  0  0  0  0  0  0  0
   11.9727   10.5304    6.4494 N   0  0  0  0  0  0  0  0  0  0  0  0
   11.6153   11.8213    6.3601 C   0  0  0  0  0  0  0  0  0  0  0  0
   11.6582   12.6370    7.5131 C   0  0  0  0  0  0  0  0  0  0  0  0
   12.0898   12.0350    8.7364 C   0  0  0  0  0  0  0  0  0  0  0  0
   12.1542   12.7683    9.8960 N   0  0  0  0  0  0  0  0  0  0  0  0
   11.2501   13.8839    7.1405 N   0  0  0  0  0  0  0  0  0  0  0  0
   10.9730   13.8812    5.8712 C   0  0  0  0  0  0  0  0  0  0  0  0
   11.1782   12.6322    5.3419 N   0  0  0  0  0  0  0  0  0  0  0  0
  1  7  2  0  0  0  0
  1  2  1  0  0  0  0
  2  3  1  0  0  0  0
  2  4  2  0  0  0  0
  4  5  1  0  0  0  0
  5  6  2  0  0  0  0
  5 11  1  0  0  0  0
  6  7  1  0  0  0  0
  6  9  1  0  0  0  0
  7  8  1  0  0  0  0
  9 10  1  0  0  0  0
 10 11  2  0  0  0  0
M  END
>  <CHROM.1>
11.86693062,11.75911240,7.40415140,-0.27399680,-1.23895405,0.86924664

>  <Name>
ligand

>  <RI>
0

>  <Rbt.Current_Directory>
/home/itssahil/PROJECTS/Mol_Feturizer/New_Systems/rnas/4FEO

>  <Rbt.Executable>
rbdock ($Id: //depot/dev/client3/rdock/2013.1/src/exe/rbdock.cxx#4 $)

>  <Rbt.Library>
libRbt.so (2013.1, Build901 2013/11/27)

>  <Rbt.Parameter_File>
/export/apps/rDock/src/rDock_2013.1_src/data/scripts/dock_solv.prm

>  <Rbt.Receptor>
prm/pocket_docking_8.prm

>  <SCORE>
-9.93383

>  <SCORE.INTER>
-9.93383

>  <SCORE.INTER.CONST>
1

>  <SCORE.INTER.POLAR>
0

>  <SCORE.INTER.ROT>
0

>  <SCORE.INTER.SOLV>
17.5196

>  <SCORE.INTER.VDW>
-16.0624

>  <SCORE.INTER.norm>
-0.903075

>  <SCORE.INTRA>
0

>  <SCORE.INTRA.DIHEDRAL>
0

>  <SCORE.INTRA.DIHEDRAL.0>
0

>  <SCORE.INTRA.POLAR>
0

>  <SCORE.INTRA.POLAR.0>
0

>  <SCORE.INTRA.REPUL>
0

>  <SCORE.INTRA.REPUL.0>
0

>  <SCORE.INTRA.SOLV>
0

>  <SCORE.INTRA.SOLV.lig_0>
-48.9252

>  <SCORE.INTRA.VDW>
0

>  <SCORE.INTRA.VDW.0>
0

>  <SCORE.INTRA.norm>
0

>  <SCORE.RESTR>
0

>  <SCORE.RESTR.CAVITY>
0

>  <SCORE.RESTR.norm>
0

>  <SCORE.SYSTEM>
0

>  <SCORE.SYSTEM.CONST>
0

>  <SCORE.SYSTEM.DIHEDRAL>
0

>  <SCORE.SYSTEM.SOLV>
0

>  <SCORE.SYSTEM.norm>
0

>  <SCORE.heavy>
11

>  <SCORE.norm>
-0.903075

>  <RMSD>
2.871

$$$$
ligand
 OpenBabel11021811493D
libRbt.so/2013.1/901 2013/11/27
 11 12  0  0  0  0  0  0  0  0999 V2000
   12.4391   10.7250    8.7328 N   0  0  0  0  0  0  0  0  0  0  0  0
   12.4232    9.9736    7.6166 C   0  0  0  0  0  0  0  0  0  0  0  0
   12.8367    8.6508    7.6817 N   0  0  0  0  0  0  0  0  0  0  0  0
   12.0174   10.4752    6.4394 N   0  0  0  0  0  0  0  0  0  0  0  0
   11.6148   11.7507    6.3254 C   0  0  0  0  0  0  0  0  0  0  0  0
   11.6105   12.5842    7.4664 C   0  0  0  0  0  0  0  0  0  0  0  0
   12.0452   12.0162    8.7049 C   0  0  0  0  0  0  0  0  0  0  0  0
   12.0654   12.7682    9.8540 N   0  0  0  0  0  0  0  0  0  0  0  0
   11.1632   13.8097    7.0691 N   0  0  0  0  0  0  0  0  0  0  0  0
   10.9055   13.7785    5.7961 C   0  0  0  0  0  0  0  0  0  0  0  0
   11.1639   12.5302    5.2888 N   0  0  0  0  0  0  0  0  0  0  0  0
  1  7  2  0  0  0  0
  1  2  1  0  0  0  0
  2  3  1  0  0  0  0
  2  4  2  0  0  0  0
  4  5  1  0  0  0  0
  5  6  2  0  0  0  0
  5 11  1  0  0  0  0
  6  7  1  0  0  0  0
  6  9  1  0  0  0  0
  7  8  1  0  0  0  0
  9 10  1  0  0  0  0
 10 11  2  0  0  0  0
M  END
>  <CHROM.1>
11.85269200,11.71301477,7.37382614,-0.17220431,-1.21926743,0.95032285

>  <Name>
ligand

>  <RI>
0

>  <Rbt.Current_Directory>
/home/itssahil/PROJECTS/Mol_Feturizer/New_Systems/rnas/4FEO

>  <Rbt.Executable>
rbdock ($Id: //depot/dev/client3/rdock/2013.1/src/exe/rbdock.cxx#4 $)

>  <Rbt.Library>
libRbt.so (2013.1, Build901 2013/11/27)

>  <Rbt.Parameter_File>
/export/apps/rDock/src/rDock_2013.1_src/data/scripts/dock_solv.prm

>  <Rbt.Receptor>
prm/blind_docking_100.prm

>  <SCORE>
-9.87327

>  <SCORE.INTER>
-9.88683

>  <SCORE.INTER.CONST>
1

>  <SCORE.INTER.POLAR>
0

>  <SCORE.INTER.ROT>
0

>  <SCORE.INTER.SOLV>
17.1784

>  <SCORE.INTER.VDW>
-15.9173

>  <SCORE.INTER.norm>
-0.898802

>  <SCORE.INTRA>
0

>  <SCORE.INTRA.DIHEDRAL>
0

>  <SCORE.INTRA.DIHEDRAL.0>
0

>  <SCORE.INTRA.POLAR>
0

>  <SCORE.INTRA.POLAR.0>
0

>  <SCORE.INTRA.REPUL>
0

>  <SCORE.INTRA.REPUL.0>
0

>  <SCORE.INTRA.SOLV>
0

>  <SCORE.INTRA.SOLV.lig_0>
-48.9252

>  <SCORE.INTRA.VDW>
0

>  <SCORE.INTRA.VDW.0>
0

>  <SCORE.INTRA.norm>
0

>  <SCORE.RESTR>
0.0135504

>  <SCORE.RESTR.CAVITY>
0.0135504

>  <SCORE.RESTR.norm>
0.00123185

>  <SCORE.SYSTEM>
0

>  <SCORE.SYSTEM.CONST>
0

>  <SCORE.SYSTEM.DIHEDRAL>
0

>  <SCORE.SYSTEM.SOLV>
0

>  <SCORE.SYSTEM.norm>
0

>  <SCORE.heavy>
11

>  <SCORE.norm>
-0.89757

>  <RMSD>
2.872

$$$$
ligand
 OpenBabel11021811493D
libRbt.so/2013.1/901 2013/11/27
 11 12  0  0  0  0  0  0  0  0999 V2000
   12.4952   10.7206    8.7068 N   0  0  0  0  0  0  0  0  0  0  0  0
   12.3953    9.9450    7.6118 C   0  0  0  0  0  0  0  0  0  0  0  0
   12.7807    8.6141    7.6840 N   0  0  0  0  0  0  0  0  0  0  0  0
   11.9320   10.4299    6.4490 N   0  0  0  0  0  0  0  0  0  0  0  0
   11.5534   11.7122    6.3284 C   0  0  0  0  0  0  0  0  0  0  0  0
   11.6366   12.5709    7.4475 C   0  0  0  0  0  0  0  0  0  0  0  0
   12.1308   12.0203    8.6714 C   0  0  0  0  0  0  0  0  0  0  0  0
   12.2370   12.7971    9.7990 N   0  0  0  0  0  0  0  0  0  0  0  0
   11.1953   13.7980    7.0481 N   0  0  0  0  0  0  0  0  0  0  0  0
   10.8617   13.7445    5.7936 C   0  0  0  0  0  0  0  0  0  0  0  0
   11.0600   12.4791    5.3019 N   0  0  0  0  0  0  0  0  0  0  0  0
  1  7  2  0  0  0  0
  1  2  1  0  0  0  0
  2  3  1  0  0  0  0
  2  4  2  0  0  0  0
  4  5  1  0  0  0  0
  5  6  2  0  0  0  0
  5 11  1  0  0  0  0
  6  7  1  0  0  0  0
  6  9  1  0  0  0  0
  7  8  1  0  0  0  0
  9 10  1  0  0  0  0
 10 11  2  0  0  0  0
M  END
>  <CHROM.1>
11.85232485,11.69213374,7.36159555,-0.34382940,-1.19875365,0.76654899

>  <Name>
ligand

>  <RI>
0

>  <Rbt.Current_Directory>
/home/itssahil/PROJECTS/Mol_Feturizer/New_Systems/rnas/4FEO

>  <Rbt.Executable>
rbdock ($Id: //depot/dev/client3/rdock/2013.1/src/exe/rbdock.cxx#4 $)

>  <Rbt.Library>
libRbt.so (2013.1, Build901 2013/11/27)

>  <Rbt.Parameter_File>
/export/apps/rDock/src/rDock_2013.1_src/data/scripts/dock_solv.prm

>  <Rbt.Receptor>
prm/blind_docking_40.prm

>  <SCORE>
-9.89865

>  <SCORE.INTER>
-9.8996

>  <SCORE.INTER.CONST>
1

>  <SCORE.INTER.POLAR>
0

>  <SCORE.INTER.ROT>
0

>  <SCORE.INTER.SOLV>
17.171

>  <SCORE.INTER.VDW>
-15.9234

>  <SCORE.INTER.norm>
-0.899964

>  <SCORE.INTRA>
0

>  <SCORE.INTRA.DIHEDRAL>
0

>  <SCORE.INTRA.DIHEDRAL.0>
0

>  <SCORE.INTRA.POLAR>
0

>  <SCORE.INTRA.POLAR.0>
0

>  <SCORE.INTRA.REPUL>
0

>  <SCORE.INTRA.REPUL.0>
0

>  <SCORE.INTRA.SOLV>
0

>  <SCORE.INTRA.SOLV.lig_0>
-48.9252

>  <SCORE.INTRA.VDW>
0

>  <SCORE.INTRA.VDW.0>
0

>  <SCORE.INTRA.norm>
0

>  <SCORE.RESTR>
0.000956901

>  <SCORE.RESTR.CAVITY>
0.000956901

>  <SCORE.RESTR.norm>
8.6991e-05

>  <SCORE.SYSTEM>
0

>  <SCORE.SYSTEM.CONST>
0

>  <SCORE.SYSTEM.DIHEDRAL>
0

>  <SCORE.SYSTEM.SOLV>
0

>  <SCORE.SYSTEM.norm>
0

>  <SCORE.heavy>
11

>  <SCORE.norm>
-0.899877

>  <RMSD>
2.872

$$$$
ligand
 OpenBabel11021811493D
libRbt.so/2013.1/901 2013/11/27
 11 12  0  0  0  0  0  0  0  0999 V2000
   12.5027   10.7239    8.7048 N   0  0  0  0  0  0  0  0  0  0  0  0
   12.4019    9.9482    7.6098 C   0  0  0  0  0  0  0  0  0  0  0  0
   12.7903    8.6181    7.6809 N   0  0  0  0  0  0  0  0  0  0  0  0
   11.9350   10.4324    6.4481 N   0  0  0  0  0  0  0  0  0  0  0  0
   11.5534   11.7139    6.3287 C   0  0  0  0  0  0  0  0  0  0  0  0
   11.6375   12.5726    7.4477 C   0  0  0  0  0  0  0  0  0  0  0  0
   12.1355   12.0228    8.6703 C   0  0  0  0  0  0  0  0  0  0  0  0
   12.2427   12.7997    9.7979 N   0  0  0  0  0  0  0  0  0  0  0  0
   11.1927   13.7988    7.0495 N   0  0  0  0  0  0  0  0  0  0  0  0
   10.8563   13.7449    5.7957 C   0  0  0  0  0  0  0  0  0  0  0  0
   11.0562   12.4800    5.3034 N   0  0  0  0  0  0  0  0  0  0  0  0
  1  7  2  0  0  0  0
  1  2  1  0  0  0  0
  2  3  1  0  0  0  0
  2  4  2  0  0  0  0
  4  5  1  0  0  0  0
  5  6  2  0  0  0  0
  5 11  1  0  0  0  0
  6  7  1  0  0  0  0
  6  9  1  0  0  0  0
  7  8  1  0  0  0  0
  9 10  1  0  0  0  0
 10 11  2  0  0  0  0
M  END
>  <CHROM.1>
11.85477760,11.69426896,7.36115756,-0.34405031,-1.19567252,0.76651053

>  <Name>
ligand

>  <RI>
0

>  <Rbt.Current_Directory>
/home/itssahil/PROJECTS/Mol_Feturizer/New_Systems/rnas/4FEO

>  <Rbt.Executable>
rbdock ($Id: //depot/dev/client3/rdock/2013.1/src/exe/rbdock.cxx#4 $)

>  <Rbt.Library>
libRbt.so (2013.1, Build901 2013/11/27)

>  <Rbt.Parameter_File>
/export/apps/rDock/src/rDock_2013.1_src/data/scripts/dock_solv.prm

>  <Rbt.Receptor>
prm/blind_docking_40.prm

>  <SCORE>
-9.89317

>  <SCORE.INTER>
-9.8932

>  <SCORE.INTER.CONST>
1

>  <SCORE.INTER.POLAR>
0

>  <SCORE.INTER.ROT>
0

>  <SCORE.INTER.SOLV>
17.1367

>  <SCORE.INTER.VDW>
-15.9077

>  <SCORE.INTER.norm>
-0.899382

>  <SCORE.INTRA>
0

>  <SCORE.INTRA.DIHEDRAL>
0

>  <SCORE.INTRA.DIHEDRAL.0>
0

>  <SCORE.INTRA.POLAR>
0

>  <SCORE.INTRA.POLAR.0>
0

>  <SCORE.INTRA.REPUL>
0

>  <SCORE.INTRA.REPUL.0>
0

>  <SCORE.INTRA.SOLV>
0

>  <SCORE.INTRA.SOLV.lig_0>
-48.9252

>  <SCORE.INTRA.VDW>
0

>  <SCORE.INTRA.VDW.0>
0

>  <SCORE.INTRA.norm>
0

>  <SCORE.RESTR>
3.11834e-05

>  <SCORE.RESTR.CAVITY>
3.11834e-05

>  <SCORE.RESTR.norm>
2.83486e-06

>  <SCORE.SYSTEM>
0

>  <SCORE.SYSTEM.CONST>
0

>  <SCORE.SYSTEM.DIHEDRAL>
0

>  <SCORE.SYSTEM.SOLV>
0

>  <SCORE.SYSTEM.norm>
0

>  <SCORE.heavy>
11

>  <SCORE.norm>
-0.899379

>  <RMSD>
2.872

$$$$
ligand
 OpenBabel11021811493D
libRbt.so/2013.1/901 2013/11/27
 11 12  0  0  0  0  0  0  0  0999 V2000
   12.4484   10.7200    8.7463 N   0  0  0  0  0  0  0  0  0  0  0  0
   12.3801    9.9846    7.6215 C   0  0  0  0  0  0  0  0  0  0  0  0
   12.7415    8.6456    7.6617 N   0  0  0  0  0  0  0  0  0  0  0  0
   11.9713   10.5174    6.4591 N   0  0  0  0  0  0  0  0  0  0  0  0
   11.6179   11.8093    6.3691 C   0  0  0  0  0  0  0  0  0  0  0  0
   11.6698   12.6272    7.5202 C   0  0  0  0  0  0  0  0  0  0  0  0
   12.1061   12.0261    8.7424 C   0  0  0  0  0  0  0  0  0  0  0  0
   12.1794   12.7615    9.9001 N   0  0  0  0  0  0  0  0  0  0  0  0
   11.2641   13.8747    7.1473 N   0  0  0  0  0  0  0  0  0  0  0  0
   10.9800   13.8705    5.8796 C   0  0  0  0  0  0  0  0  0  0  0  0
   11.1779   12.6197    5.3517 N   0  0  0  0  0  0  0  0  0  0  0  0
  1  7  2  0  0  0  0
  1  2  1  0  0  0  0
  2  3  1  0  0  0  0
  2  4  2  0  0  0  0
  4  5  1  0  0  0  0
  5  6  2  0  0  0  0
  5 11  1  0  0  0  0
  6  7  1  0  0  0  0
  6  9  1  0  0  0  0
  7  8  1  0  0  0  0
  9 10  1  0  0  0  0
 10 11  2  0  0  0  0
M  END
>  <CHROM.1>
11.87499348,11.74836779,7.41192008,-0.29363958,-1.23798410,0.84865851

>  <Name>
ligand

>  <RI>
0

>  <Rbt.Current_Directory>
/home/itssahil/PROJECTS/Mol_Feturizer/New_Systems/rnas/4FEO

>  <Rbt.Executable>
rbdock ($Id: //depot/dev/client3/rdock/2013.1/src/exe/rbdock.cxx#4 $)

>  <Rbt.Library>
libRbt.so (2013.1, Build901 2013/11/27)

>  <Rbt.Parameter_File>
/export/apps/rDock/src/rDock_2013.1_src/data/scripts/dock_solv.prm

>  <Rbt.Receptor>
prm/blind_docking_60.prm

>  <SCORE>
-9.93489

>  <SCORE.INTER>
-9.93489

>  <SCORE.INTER.CONST>
1

>  <SCORE.INTER.POLAR>
0

>  <SCORE.INTER.ROT>
0

>  <SCORE.INTER.SOLV>
17.5205

>  <SCORE.INTER.VDW>
-16.0634

>  <SCORE.INTER.norm>
-0.903172

>  <SCORE.INTRA>
0

>  <SCORE.INTRA.DIHEDRAL>
0

>  <SCORE.INTRA.DIHEDRAL.0>
0

>  <SCORE.INTRA.POLAR>
0

>  <SCORE.INTRA.POLAR.0>
0

>  <SCORE.INTRA.REPUL>
0

>  <SCORE.INTRA.REPUL.0>
0

>  <SCORE.INTRA.SOLV>
0

>  <SCORE.INTRA.SOLV.lig_0>
-48.9252

>  <SCORE.INTRA.VDW>
0

>  <SCORE.INTRA.VDW.0>
0

>  <SCORE.INTRA.norm>
0

>  <SCORE.RESTR>
0

>  <SCORE.RESTR.CAVITY>
0

>  <SCORE.RESTR.norm>
0

>  <SCORE.SYSTEM>
0

>  <SCORE.SYSTEM.CONST>
0

>  <SCORE.SYSTEM.DIHEDRAL>
0

>  <SCORE.SYSTEM.SOLV>
0

>  <SCORE.SYSTEM.norm>
0

>  <SCORE.heavy>
11

>  <SCORE.norm>
-0.903172

>  <RMSD>
2.872

$$$$
ligand
 OpenBabel11021811493D
libRbt.so/2013.1/901 2013/11/27
 11 12  0  0  0  0  0  0  0  0999 V2000
   12.4437   10.7284    8.7312 N   0  0  0  0  0  0  0  0  0  0  0  0
   12.3703    9.9940    7.6060 C   0  0  0  0  0  0  0  0  0  0  0  0
   12.7277    8.6539    7.6444 N   0  0  0  0  0  0  0  0  0  0  0  0
   11.9601   10.5288    6.4451 N   0  0  0  0  0  0  0  0  0  0  0  0
   11.6104   11.8219    6.3570 C   0  0  0  0  0  0  0  0  0  0  0  0
   11.6679   12.6388    7.5085 C   0  0  0  0  0  0  0  0  0  0  0  0
   12.1055   12.0355    8.7291 C   0  0  0  0  0  0  0  0  0  0  0  0
   12.1840   12.7699    9.8871 N   0  0  0  0  0  0  0  0  0  0  0  0
   11.2650   13.8878    7.1375 N   0  0  0  0  0  0  0  0  0  0  0  0
   10.9775   13.8853    5.8705 C   0  0  0  0  0  0  0  0  0  0  0  0
   11.1703   12.6343    5.3413 N   0  0  0  0  0  0  0  0  0  0  0  0
  1  7  2  0  0  0  0
  1  2  1  0  0  0  0
  2  3  1  0  0  0  0
  2  4  2  0  0  0  0
  4  5  1  0  0  0  0
  5  6  2  0  0  0  0
  5 11  1  0  0  0  0
  6  7  1  0  0  0  0
  6  9  1  0  0  0  0
  7  8  1  0  0  0  0
  9 10  1  0  0  0  0
 10 11  2  0  0  0  0
M  END
>  <CHROM.1>
11.87003733,11.75942997,7.39904578,-0.30583826,-1.23853739,0.83783966

>  <Name>
ligand

>  <RI>
0

>  <Rbt.Current_Directory>
/home/itssahil/PROJECTS/Mol_Feturizer/New_Systems/rnas/4FEO

>  <Rbt.Executable>
rbdock ($Id: //depot/dev/client3/rdock/2013.1/src/exe/rbdock.cxx#4 $)

>  <Rbt.Library>
libRbt.so (2013.1, Build901 2013/11/27)

>  <Rbt.Parameter_File>
/export/apps/rDock/src/rDock_2013.1_src/data/scripts/dock_solv.prm

>  <Rbt.Receptor>
prm/pocket_docking_5.prm

>  <SCORE>
-9.93551

>  <SCORE.INTER>
-9.93551

>  <SCORE.INTER.CONST>
1

>  <SCORE.INTER.POLAR>
0

>  <SCORE.INTER.ROT>
0

>  <SCORE.INTER.SOLV>
17.5202

>  <SCORE.INTER.VDW>
-16.0637

>  <SCORE.INTER.norm>
-0.903228

>  <SCORE.INTRA>
0

>  <SCORE.INTRA.DIHEDRAL>
0

>  <SCORE.INTRA.DIHEDRAL.0>
0

>  <SCORE.INTRA.POLAR>
0

>  <SCORE.INTRA.POLAR.0>
0

>  <SCORE.INTRA.REPUL>
0

>  <SCORE.INTRA.REPUL.0>
0

>  <SCORE.INTRA.SOLV>
0

>  <SCORE.INTRA.SOLV.lig_0>
-48.9252

>  <SCORE.INTRA.VDW>
0

>  <SCORE.INTRA.VDW.0>
0

>  <SCORE.INTRA.norm>
0

>  <SCORE.RESTR>
0

>  <SCORE.RESTR.CAVITY>
0

>  <SCORE.RESTR.norm>
0

>  <SCORE.SYSTEM>
0

>  <SCORE.SYSTEM.CONST>
0

>  <SCORE.SYSTEM.DIHEDRAL>
0

>  <SCORE.SYSTEM.SOLV>
0

>  <SCORE.SYSTEM.norm>
0

>  <SCORE.heavy>
11

>  <SCORE.norm>
-0.903228

>  <RMSD>
2.872

$$$$
ligand
 OpenBabel11021811493D
libRbt.so/2013.1/901 2013/11/27
 11 12  0  0  0  0  0  0  0  0999 V2000
   12.4493   10.7343    8.7485 N   0  0  0  0  0  0  0  0  0  0  0  0
   12.4062   10.0021    7.6203 C   0  0  0  0  0  0  0  0  0  0  0  0
   12.7871    8.6686    7.6605 N   0  0  0  0  0  0  0  0  0  0  0  0
   12.0039   10.5330    6.4549 N   0  0  0  0  0  0  0  0  0  0  0  0
   11.6322   11.8198    6.3650 C   0  0  0  0  0  0  0  0  0  0  0  0
   11.6575   12.6341    7.5195 C   0  0  0  0  0  0  0  0  0  0  0  0
   12.0875   12.0352    8.7449 C   0  0  0  0  0  0  0  0  0  0  0  0
   12.1353   12.7673    9.9059 N   0  0  0  0  0  0  0  0  0  0  0  0
   11.2377   13.8767    7.1458 N   0  0  0  0  0  0  0  0  0  0  0  0
   10.9695   13.8729    5.8746 C   0  0  0  0  0  0  0  0  0  0  0  0
   11.1929   12.6272    5.3449 N   0  0  0  0  0  0  0  0  0  0  0  0
  1  7  2  0  0  0  0
  1  2  1  0  0  0  0
  2  3  1  0  0  0  0
  2  4  2  0  0  0  0
  4  5  1  0  0  0  0
  5  6  2  0  0  0  0
  5 11  1  0  0  0  0
  6  7  1  0  0  0  0
  6  9  1  0  0  0  0
  7  8  1  0  0  0  0
  9 10  1  0  0  0  0
 10 11  2  0  0  0  0
M  END
>  <CHROM.1>
11.87721433,11.75885371,7.41065125,-0.23507895,-1.23439754,0.90755825

>  <Name>
ligand

>  <RI>
0

>  <Rbt.Current_Directory>
/home/itssahil/PROJECTS/Mol_Feturizer/New_Systems/rnas/4FEO

>  <Rbt.Executable>
rbdock ($Id: //depot/dev/client3/rdock/2013.1/src/exe/rbdock.cxx#4 $)

>  <Rbt.Library>
libRbt.so (2013.1, Build901 2013/11/27)

>  <Rbt.Parameter_File>
/export/apps/rDock/src/rDock_2013.1_src/data/scripts/dock_solv.prm

>  <Rbt.Receptor>
prm/pocket_docking_5.prm

>  <SCORE>
-9.89605

>  <SCORE.INTER>
-9.89605

>  <SCORE.INTER.CONST>
1

>  <SCORE.INTER.POLAR>
0

>  <SCORE.INTER.ROT>
0

>  <SCORE.INTER.SOLV>
17.4253

>  <SCORE.INTER.VDW>
-16.0058

>  <SCORE.INTER.norm>
-0.899641

>  <SCORE.INTRA>
0

>  <SCORE.INTRA.DIHEDRAL>
0

>  <SCORE.INTRA.DIHEDRAL.0>
0

>  <SCORE.INTRA.POLAR>
0

>  <SCORE.INTRA.POLAR.0>
0

>  <SCORE.INTRA.REPUL>
0

>  <SCORE.INTRA.REPUL.0>
0

>  <SCORE.INTRA.SOLV>
0

>  <SCORE.INTRA.SOLV.lig_0>
-48.9252

>  <SCORE.INTRA.VDW>
0

>  <SCORE.INTRA.VDW.0>
0

>  <SCORE.INTRA.norm>
0

>  <SCORE.RESTR>
0

>  <SCORE.RESTR.CAVITY>
0

>  <SCORE.RESTR.norm>
0

>  <SCORE.SYSTEM>
0

>  <SCORE.SYSTEM.CONST>
0

>  <SCORE.SYSTEM.DIHEDRAL>
0

>  <SCORE.SYSTEM.SOLV>
0

>  <SCORE.SYSTEM.norm>
0

>  <SCORE.heavy>
11

>  <SCORE.norm>
-0.899641

>  <RMSD>
2.872

$$$$
ligand
 OpenBabel11021811493D
libRbt.so/2013.1/901 2013/11/27
 11 12  0  0  0  0  0  0  0  0999 V2000
   12.4881   10.7199    8.7083 N   0  0  0  0  0  0  0  0  0  0  0  0
   12.3861    9.9450    7.6129 C   0  0  0  0  0  0  0  0  0  0  0  0
   12.7674    8.6129    7.6848 N   0  0  0  0  0  0  0  0  0  0  0  0
   11.9248   10.4318    6.4501 N   0  0  0  0  0  0  0  0  0  0  0  0
   11.5502   11.7153    6.3299 C   0  0  0  0  0  0  0  0  0  0  0  0
   11.6358   12.5734    7.4493 C   0  0  0  0  0  0  0  0  0  0  0  0
   12.1278   12.0207    8.6731 C   0  0  0  0  0  0  0  0  0  0  0  0
   12.2361   12.7968    9.8011 N   0  0  0  0  0  0  0  0  0  0  0  0
   11.1984   13.8019    7.0502 N   0  0  0  0  0  0  0  0  0  0  0  0
   10.8650   13.7499    5.7955 C   0  0  0  0  0  0  0  0  0  0  0  0
   11.0596   12.4841    5.3035 N   0  0  0  0  0  0  0  0  0  0  0  0
  1  7  2  0  0  0  0
  1  2  1  0  0  0  0
  2  3  1  0  0  0  0
  2  4  2  0  0  0  0
  4  5  1  0  0  0  0
  5  6  2  0  0  0  0
  5 11  1  0  0  0  0
  6  7  1  0  0  0  0
  6  9  1  0  0  0  0
  7  8  1  0  0  0  0
  9 10  1  0  0  0  0
 10 11  2  0  0  0  0
M  END
>  <CHROM.1>
11.84872754,11.69390232,7.36314762,-0.34943604,-1.20114399,0.76167454

>  <Name>
ligand

>  <RI>
0

>  <Rbt.Current_Directory>
/home/itssahil/PROJECTS/Mol_Feturizer/New_Systems/rnas/4FEO

>  <Rbt.Executable>
rbdock ($Id: //depot/dev/client3/rdock/2013.1/src/exe/rbdock.cxx#4 $)

>  <Rbt.Library>
libRbt.so (2013.1, Build901 2013/11/27)

>  <Rbt.Parameter_File>
/export/apps/rDock/src/rDock_2013.1_src/data/scripts/dock_solv.prm

>  <Rbt.Receptor>
prm/pocket_docking_5.prm

>  <SCORE>
-9.89899

>  <SCORE.INTER>
-9.9012

>  <SCORE.INTER.CONST>
1

>  <SCORE.INTER.POLAR>
0

>  <SCORE.INTER.ROT>
0

>  <SCORE.INTER.SOLV>
17.2212

>  <SCORE.INTER.VDW>
-15.9412

>  <SCORE.INTER.norm>
-0.900109

>  <SCORE.INTRA>
0

>  <SCORE.INTRA.DIHEDRAL>
0

>  <SCORE.INTRA.DIHEDRAL.0>
0

>  <SCORE.INTRA.POLAR>
0

>  <SCORE.INTRA.POLAR.0>
0

>  <SCORE.INTRA.REPUL>
0

>  <SCORE.INTRA.REPUL.0>
0

>  <SCORE.INTRA.SOLV>
0

>  <SCORE.INTRA.SOLV.lig_0>
-48.9252

>  <SCORE.INTRA.VDW>
0

>  <SCORE.INTRA.VDW.0>
0

>  <SCORE.INTRA.norm>
0

>  <SCORE.RESTR>
0.00220776

>  <SCORE.RESTR.CAVITY>
0.00220776

>  <SCORE.RESTR.norm>
0.000200705

>  <SCORE.SYSTEM>
0

>  <SCORE.SYSTEM.CONST>
0

>  <SCORE.SYSTEM.DIHEDRAL>
0

>  <SCORE.SYSTEM.SOLV>
0

>  <SCORE.SYSTEM.norm>
0

>  <SCORE.heavy>
11

>  <SCORE.norm>
-0.899908

>  <RMSD>
2.872

$$$$
ligand
 OpenBabel11021811493D
libRbt.so/2013.1/901 2013/11/27
 11 12  0  0  0  0  0  0  0  0999 V2000
   12.3885   10.7224    8.7535 N   0  0  0  0  0  0  0  0  0  0  0  0
   12.3789   10.0015    7.6173 C   0  0  0  0  0  0  0  0  0  0  0  0
   12.7617    8.6685    7.6548 N   0  0  0  0  0  0  0  0  0  0  0  0
   12.0083   10.5433    6.4464 N   0  0  0  0  0  0  0  0  0  0  0  0
   11.6363   11.8301    6.3589 C   0  0  0  0  0  0  0  0  0  0  0  0
   11.6271   12.6329    7.5217 C   0  0  0  0  0  0  0  0  0  0  0  0
   12.0238   12.0225    8.7527 C   0  0  0  0  0  0  0  0  0  0  0  0
   12.0371   12.7430    9.9220 N   0  0  0  0  0  0  0  0  0  0  0  0
   11.2150   13.8783    7.1489 N   0  0  0  0  0  0  0  0  0  0  0  0
   10.9828   13.8867    5.8707 C   0  0  0  0  0  0  0  0  0  0  0  0
   11.2239   12.6468    5.3350 N   0  0  0  0  0  0  0  0  0  0  0  0
  1  7  2  0  0  0  0
  1  2  1  0  0  0  0
  2  3  1  0  0  0  0
  2  4  2  0  0  0  0
  4  5  1  0  0  0  0
  5  6  2  0  0  0  0
  5 11  1  0  0  0  0
  6  7  1  0  0  0  0
  6  9  1  0  0  0  0
  7  8  1  0  0  0  0
  9 10  1  0  0  0  0
 10 11  2  0  0  0  0
M  END
>  <CHROM.1>
11.85185733,11.75920060,7.41042322,-0.16017261,-1.24903407,0.98849953

>  <Name>
ligand

>  <RI>
0

>  <Rbt.Current_Directory>
/home/itssahil/PROJECTS/Mol_Feturizer/New_Systems/rnas/4FEO

>  <Rbt.Executable>
rbdock ($Id: //depot/dev/client3/rdock/2013.1/src/exe/rbdock.cxx#4 $)

>  <Rbt.Library>
libRbt.so (2013.1, Build901 2013/11/27)

>  <Rbt.Parameter_File>
/export/apps/rDock/src/rDock_2013.1_src/data/scripts/dock_solv.prm

>  <Rbt.Receptor>
prm/pocket_docking_6.prm

>  <SCORE>
-9.87179

>  <SCORE.INTER>
-9.87182

>  <SCORE.INTER.CONST>
1

>  <SCORE.INTER.POLAR>
0

>  <SCORE.INTER.ROT>
0

>  <SCORE.INTER.SOLV>
17.6157

>  <SCORE.INTER.VDW>
-16.0531

>  <SCORE.INTER.norm>
-0.897438

>  <SCORE.INTRA>
0

>  <SCORE.INTRA.DIHEDRAL>
0

>  <SCORE.INTRA.DIHEDRAL.0>
0

>  <SCORE.INTRA.POLAR>
0

>  <SCORE.INTRA.POLAR.0>
0

>  <SCORE.INTRA.REPUL>
0

>  <SCORE.INTRA.REPUL.0>
0

>  <SCORE.INTRA.SOLV>
0

>  <SCORE.INTRA.SOLV.lig_0>
-48.9252

>  <SCORE.INTRA.VDW>
0

>  <SCORE.INTRA.VDW.0>
0

>  <SCORE.INTRA.norm>
0

>  <SCORE.RESTR>
2.85033e-05

>  <SCORE.RESTR.CAVITY>
2.85033e-05

>  <SCORE.RESTR.norm>
2.59121e-06

>  <SCORE.SYSTEM>
0

>  <SCORE.SYSTEM.CONST>
0

>  <SCORE.SYSTEM.DIHEDRAL>
0

>  <SCORE.SYSTEM.SOLV>
0

>  <SCORE.SYSTEM.norm>
0

>  <SCORE.heavy>
11

>  <SCORE.norm>
-0.897435

>  <RMSD>
2.872

$$$$
ligand
 OpenBabel11021811493D
libRbt.so/2013.1/901 2013/11/27
 11 12  0  0  0  0  0  0  0  0999 V2000
   12.4578   10.7289    8.7302 N   0  0  0  0  0  0  0  0  0  0  0  0
   12.3712    9.9898    7.6091 C   0  0  0  0  0  0  0  0  0  0  0  0
   12.7276    8.6495    7.6493 N   0  0  0  0  0  0  0  0  0  0  0  0
   11.9488   10.5201    6.4505 N   0  0  0  0  0  0  0  0  0  0  0  0
   11.5994   11.8131    6.3606 C   0  0  0  0  0  0  0  0  0  0  0  0
   11.6704   12.6349    7.5079 C   0  0  0  0  0  0  0  0  0  0  0  0
   12.1208   12.0364    8.7262 C   0  0  0  0  0  0  0  0  0  0  0  0
   12.2129   12.7756    9.8801 N   0  0  0  0  0  0  0  0  0  0  0  0
   11.2647   13.8828    7.1361 N   0  0  0  0  0  0  0  0  0  0  0  0
   10.9634   13.8752    5.8723 C   0  0  0  0  0  0  0  0  0  0  0  0
   11.1490   12.6217    5.3464 N   0  0  0  0  0  0  0  0  0  0  0  0
  1  7  2  0  0  0  0
  1  2  1  0  0  0  0
  2  3  1  0  0  0  0
  2  4  2  0  0  0  0
  4  5  1  0  0  0  0
  5  6  2  0  0  0  0
  5 11  1  0  0  0  0
  6  7  1  0  0  0  0
  6  9  1  0  0  0  0
  7  8  1  0  0  0  0
  9 10  1  0  0  0  0
 10 11  2  0  0  0  0
M  END
>  <CHROM.1>
11.87049481,11.75486804,7.40003393,-0.33250035,-1.23180976,0.80837102

>  <Name>
ligand

>  <RI>
0

>  <Rbt.Current_Directory>
/home/itssahil/PROJECTS/Mol_Feturizer/New_Systems/rnas/4FEO

>  <Rbt.Executable>
rbdock ($Id: //depot/dev/client3/rdock/2013.1/src/exe/rbdock.cxx#4 $)

>  <Rbt.Library>
libRbt.so (2013.1, Build901 2013/11/27)

>  <Rbt.Parameter_File>
/export/apps/rDock/src/rDock_2013.1_src/data/scripts/dock_solv.prm

>  <Rbt.Receptor>
prm/pocket_docking_8.prm

>  <SCORE>
-9.92234

>  <SCORE.INTER>
-9.92234

>  <SCORE.INTER.CONST>
1

>  <SCORE.INTER.POLAR>
0

>  <SCORE.INTER.ROT>
0

>  <SCORE.INTER.SOLV>
17.4909

>  <SCORE.INTER.VDW>
-16.0452

>  <SCORE.INTER.norm>
-0.902031

>  <SCORE.INTRA>
0

>  <SCORE.INTRA.DIHEDRAL>
0

>  <SCORE.INTRA.DIHEDRAL.0>
0

>  <SCORE.INTRA.POLAR>
0

>  <SCORE.INTRA.POLAR.0>
0

>  <SCORE.INTRA.REPUL>
0

>  <SCORE.INTRA.REPUL.0>
0

>  <SCORE.INTRA.SOLV>
0

>  <SCORE.INTRA.SOLV.lig_0>
-48.9252

>  <SCORE.INTRA.VDW>
0

>  <SCORE.INTRA.VDW.0>
0

>  <SCORE.INTRA.norm>
0

>  <SCORE.RESTR>
0

>  <SCORE.RESTR.CAVITY>
0

>  <SCORE.RESTR.norm>
0

>  <SCORE.SYSTEM>
0

>  <SCORE.SYSTEM.CONST>
0

>  <SCORE.SYSTEM.DIHEDRAL>
0

>  <SCORE.SYSTEM.SOLV>
0

>  <SCORE.SYSTEM.norm>
0

>  <SCORE.heavy>
11

>  <SCORE.norm>
-0.902031

>  <RMSD>
2.872

$$$$
ligand
 OpenBabel11021811493D
libRbt.so/2013.1/901 2013/11/27
 11 12  0  0  0  0  0  0  0  0999 V2000
   12.0821   10.7150    8.6903 N   0  0  0  0  0  0  0  0  0  0  0  0
   12.2452    9.8586    7.6652 C   0  0  0  0  0  0  0  0  0  0  0  0
   12.6903    8.5695    7.9206 N   0  0  0  0  0  0  0  0  0  0  0  0
   11.9883   10.2234    6.3991 N   0  0  0  0  0  0  0  0  0  0  0  0
   11.5622   11.4612    6.1019 C   0  0  0  0  0  0  0  0  0  0  0  0
   11.3731   12.4007    7.1403 C   0  0  0  0  0  0  0  0  0  0  0  0
   11.6524   11.9772    8.4774 C   0  0  0  0  0  0  0  0  0  0  0  0
   11.4892   12.8375    9.5355 N   0  0  0  0  0  0  0  0  0  0  0  0
   10.9433   13.5591    6.5630 N   0  0  0  0  0  0  0  0  0  0  0  0
   10.8642   13.3919    5.2770 C   0  0  0  0  0  0  0  0  0  0  0  0
   11.2319   12.1138    4.9398 N   0  0  0  0  0  0  0  0  0  0  0  0
  1  7  2  0  0  0  0
  1  2  1  0  0  0  0
  2  3  1  0  0  0  0
  2  4  2  0  0  0  0
  4  5  1  0  0  0  0
  5  6  2  0  0  0  0
  5 11  1  0  0  0  0
  6  7  1  0  0  0  0
  6  9  1  0  0  0  0
  7  8  1  0  0  0  0
  9 10  1  0  0  0  0
 10 11  2  0  0  0  0
M  END
>  <CHROM.1>
11.65495487,11.53708007,7.17090914,0.25109478,-1.24512504,1.24949303

>  <Name>
ligand

>  <RI>
0

>  <Rbt.Current_Directory>
/home/itssahil/PROJECTS/Mol_Feturizer/New_Systems/rnas/4FEO

>  <Rbt.Executable>
rbdock ($Id: //depot/dev/client3/rdock/2013.1/src/exe/rbdock.cxx#4 $)

>  <Rbt.Library>
libRbt.so (2013.1, Build901 2013/11/27)

>  <Rbt.Parameter_File>
/export/apps/rDock/src/rDock_2013.1_src/data/scripts/dock_solv.prm

>  <Rbt.Receptor>
prm/blind_docking_20.prm

>  <SCORE>
-8.04898

>  <SCORE.INTER>
-8.62751

>  <SCORE.INTER.CONST>
1

>  <SCORE.INTER.POLAR>
0

>  <SCORE.INTER.ROT>
0

>  <SCORE.INTER.SOLV>
18.347

>  <SCORE.INTER.VDW>
-15.4673

>  <SCORE.INTER.norm>
-0.78432

>  <SCORE.INTRA>
0

>  <SCORE.INTRA.DIHEDRAL>
0

>  <SCORE.INTRA.DIHEDRAL.0>
0

>  <SCORE.INTRA.POLAR>
0

>  <SCORE.INTRA.POLAR.0>
0

>  <SCORE.INTRA.REPUL>
0

>  <SCORE.INTRA.REPUL.0>
0

>  <SCORE.INTRA.SOLV>
0

>  <SCORE.INTRA.SOLV.lig_0>
-48.9252

>  <SCORE.INTRA.VDW>
0

>  <SCORE.INTRA.VDW.0>
0

>  <SCORE.INTRA.norm>
0

>  <SCORE.RESTR>
0.578538

>  <SCORE.RESTR.CAVITY>
0.578538

>  <SCORE.RESTR.norm>
0.0525943

>  <SCORE.SYSTEM>
0

>  <SCORE.SYSTEM.CONST>
0

>  <SCORE.SYSTEM.DIHEDRAL>
0

>  <SCORE.SYSTEM.SOLV>
0

>  <SCORE.SYSTEM.norm>
0

>  <SCORE.heavy>
11

>  <SCORE.norm>
-0.731725

>  <RMSD>
2.873

$$$$
ligand
 OpenBabel11021811493D
libRbt.so/2013.1/901 2013/11/27
 11 12  0  0  0  0  0  0  0  0999 V2000
   12.1277   10.7169    8.6995 N   0  0  0  0  0  0  0  0  0  0  0  0
   12.3009    9.8505    7.6846 C   0  0  0  0  0  0  0  0  0  0  0  0
   12.7716    8.5734    7.9538 N   0  0  0  0  0  0  0  0  0  0  0  0
   12.0298   10.1940    6.4155 N   0  0  0  0  0  0  0  0  0  0  0  0
   11.5789   11.4197    6.1050 C   0  0  0  0  0  0  0  0  0  0  0  0
   11.3782   12.3688    7.1324 C   0  0  0  0  0  0  0  0  0  0  0  0
   11.6732   11.9680    8.4731 C   0  0  0  0  0  0  0  0  0  0  0  0
   11.5000   12.8388    9.5210 N   0  0  0  0  0  0  0  0  0  0  0  0
   10.9235   13.5114    6.5428 N   0  0  0  0  0  0  0  0  0  0  0  0
   10.8401   13.3261    5.2596 C   0  0  0  0  0  0  0  0  0  0  0  0
   11.2297   12.0509    4.9366 N   0  0  0  0  0  0  0  0  0  0  0  0
  1  7  2  0  0  0  0
  1  2  1  0  0  0  0
  2  3  1  0  0  0  0
  2  4  2  0  0  0  0
  4  5  1  0  0  0  0
  5  6  2  0  0  0  0
  5 11  1  0  0  0  0
  6  7  1  0  0  0  0
  6  9  1  0  0  0  0
  7  8  1  0  0  0  0
  9 10  1  0  0  0  0
 10 11  2  0  0  0  0
M  END
>  <CHROM.1>
11.67639666,11.51112266,7.17235530,0.25234229,-1.22549897,1.23776214

>  <Name>
ligand

>  <RI>
0

>  <Rbt.Current_Directory>
/home/itssahil/PROJECTS/Mol_Feturizer/New_Systems/rnas/4FEO

>  <Rbt.Executable>
rbdock ($Id: //depot/dev/client3/rdock/2013.1/src/exe/rbdock.cxx#4 $)

>  <Rbt.Library>
libRbt.so (2013.1, Build901 2013/11/27)

>  <Rbt.Parameter_File>
/export/apps/rDock/src/rDock_2013.1_src/data/scripts/dock_solv.prm

>  <Rbt.Receptor>
prm/blind_docking_20.prm

>  <SCORE>
-7.95187

>  <SCORE.INTER>
-8.51069

>  <SCORE.INTER.CONST>
1

>  <SCORE.INTER.POLAR>
0

>  <SCORE.INTER.ROT>
0

>  <SCORE.INTER.SOLV>
18.1429

>  <SCORE.INTER.VDW>
-15.3214

>  <SCORE.INTER.norm>
-0.773699

>  <SCORE.INTRA>
0

>  <SCORE.INTRA.DIHEDRAL>
0

>  <SCORE.INTRA.DIHEDRAL.0>
0

>  <SCORE.INTRA.POLAR>
0

>  <SCORE.INTRA.POLAR.0>
0

>  <SCORE.INTRA.REPUL>
0

>  <SCORE.INTRA.REPUL.0>
0

>  <SCORE.INTRA.SOLV>
0

>  <SCORE.INTRA.SOLV.lig_0>
-48.9252

>  <SCORE.INTRA.VDW>
0

>  <SCORE.INTRA.VDW.0>
0

>  <SCORE.INTRA.norm>
0

>  <SCORE.RESTR>
0.558814

>  <SCORE.RESTR.CAVITY>
0.558814

>  <SCORE.RESTR.norm>
0.0508013

>  <SCORE.SYSTEM>
0

>  <SCORE.SYSTEM.CONST>
0

>  <SCORE.SYSTEM.DIHEDRAL>
0

>  <SCORE.SYSTEM.SOLV>
0

>  <SCORE.SYSTEM.norm>
0

>  <SCORE.heavy>
11

>  <SCORE.norm>
-0.722898

>  <RMSD>
2.873

$$$$
ligand
 OpenBabel11021811493D
libRbt.so/2013.1/901 2013/11/27
 11 12  0  0  0  0  0  0  0  0999 V2000
   12.1394   10.7135    8.7036 N   0  0  0  0  0  0  0  0  0  0  0  0
   12.3267    9.8502    7.6886 C   0  0  0  0  0  0  0  0  0  0  0  0
   12.8108    8.5783    7.9586 N   0  0  0  0  0  0  0  0  0  0  0  0
   12.0571   10.1918    6.4187 N   0  0  0  0  0  0  0  0  0  0  0  0
   11.5935   11.4125    6.1074 C   0  0  0  0  0  0  0  0  0  0  0  0
   11.3776   12.3583    7.1348 C   0  0  0  0  0  0  0  0  0  0  0  0
   11.6716   11.9596    8.4764 C   0  0  0  0  0  0  0  0  0  0  0  0
   11.4840   12.8273    9.5244 N   0  0  0  0  0  0  0  0  0  0  0  0
   10.9123   13.4962    6.5444 N   0  0  0  0  0  0  0  0  0  0  0  0
   10.8365   13.3112    5.2607 C   0  0  0  0  0  0  0  0  0  0  0  0
   11.2420   12.0408    4.9382 N   0  0  0  0  0  0  0  0  0  0  0  0
  1  7  2  0  0  0  0
  1  2  1  0  0  0  0
  2  3  1  0  0  0  0
  2  4  2  0  0  0  0
  4  5  1  0  0  0  0
  5  6  2  0  0  0  0
  5 11  1  0  0  0  0
  6  7  1  0  0  0  0
  6  9  1  0  0  0  0
  7  8  1  0  0  0  0
  9 10  1  0  0  0  0
 10 11  2  0  0  0  0
M  END
>  <CHROM.1>
11.68545163,11.50402210,7.17528035,0.27454651,-1.21598210,1.25956578

>  <Name>
ligand

>  <RI>
0

>  <Rbt.Current_Directory>
/home/itssahil/PROJECTS/Mol_Feturizer/New_Systems/rnas/4FEO

>  <Rbt.Executable>
rbdock ($Id: //depot/dev/client3/rdock/2013.1/src/exe/rbdock.cxx#4 $)

>  <Rbt.Library>
libRbt.so (2013.1, Build901 2013/11/27)

>  <Rbt.Parameter_File>
/export/apps/rDock/src/rDock_2013.1_src/data/scripts/dock_solv.prm

>  <Rbt.Receptor>
prm/blind_docking_20.prm

>  <SCORE>
-7.95595

>  <SCORE.INTER>
-8.51308

>  <SCORE.INTER.CONST>
1

>  <SCORE.INTER.POLAR>
0

>  <SCORE.INTER.ROT>
0

>  <SCORE.INTER.SOLV>
18.0835

>  <SCORE.INTER.VDW>
-15.3032

>  <SCORE.INTER.norm>
-0.773916

>  <SCORE.INTRA>
0

>  <SCORE.INTRA.DIHEDRAL>
0

>  <SCORE.INTRA.DIHEDRAL.0>
0

>  <SCORE.INTRA.POLAR>
0

>  <SCORE.INTRA.POLAR.0>
0

>  <SCORE.INTRA.REPUL>
0

>  <SCORE.INTRA.REPUL.0>
0

>  <SCORE.INTRA.SOLV>
0

>  <SCORE.INTRA.SOLV.lig_0>
-48.9252

>  <SCORE.INTRA.VDW>
0

>  <SCORE.INTRA.VDW.0>
0

>  <SCORE.INTRA.norm>
0

>  <SCORE.RESTR>
0.557132

>  <SCORE.RESTR.CAVITY>
0.557132

>  <SCORE.RESTR.norm>
0.0506484

>  <SCORE.SYSTEM>
0

>  <SCORE.SYSTEM.CONST>
0

>  <SCORE.SYSTEM.DIHEDRAL>
0

>  <SCORE.SYSTEM.SOLV>
0

>  <SCORE.SYSTEM.norm>
0

>  <SCORE.heavy>
11

>  <SCORE.norm>
-0.723268

>  <RMSD>
2.873

$$$$
ligand
 OpenBabel11021811493D
libRbt.so/2013.1/901 2013/11/27
 11 12  0  0  0  0  0  0  0  0999 V2000
   12.4427   10.7245    8.7309 N   0  0  0  0  0  0  0  0  0  0  0  0
   12.3686    9.9910    7.6052 C   0  0  0  0  0  0  0  0  0  0  0  0
   12.7247    8.6506    7.6426 N   0  0  0  0  0  0  0  0  0  0  0  0
   11.9588   10.5271    6.4447 N   0  0  0  0  0  0  0  0  0  0  0  0
   11.6103   11.8206    6.3575 C   0  0  0  0  0  0  0  0  0  0  0  0
   11.6686   12.6366    7.5096 C   0  0  0  0  0  0  0  0  0  0  0  0
   12.1057   12.0320    8.7297 C   0  0  0  0  0  0  0  0  0  0  0  0
   12.1850   12.7655    9.8883 N   0  0  0  0  0  0  0  0  0  0  0  0
   11.2669   13.8862    7.1395 N   0  0  0  0  0  0  0  0  0  0  0  0
   10.9794   13.8850    5.8725 C   0  0  0  0  0  0  0  0  0  0  0  0
   11.1710   12.6341    5.3424 N   0  0  0  0  0  0  0  0  0  0  0  0
  1  7  2  0  0  0  0
  1  2  1  0  0  0  0
  2  3  1  0  0  0  0
  2  4  2  0  0  0  0
  4  5  1  0  0  0  0
  5  6  2  0  0  0  0
  5 11  1  0  0  0  0
  6  7  1  0  0  0  0
  6  9  1  0  0  0  0
  7  8  1  0  0  0  0
  9 10  1  0  0  0  0
 10 11  2  0  0  0  0
M  END
>  <CHROM.1>
11.86996775,11.75710246,7.39948430,-0.30779374,-1.23922179,0.83671033

>  <Name>
ligand

>  <RI>
0

>  <Rbt.Current_Directory>
/home/itssahil/PROJECTS/Mol_Feturizer/New_Systems/rnas/4FEO

>  <Rbt.Executable>
rbdock ($Id: //depot/dev/client3/rdock/2013.1/src/exe/rbdock.cxx#4 $)

>  <Rbt.Library>
libRbt.so (2013.1, Build901 2013/11/27)

>  <Rbt.Parameter_File>
/export/apps/rDock/src/rDock_2013.1_src/data/scripts/dock_solv.prm

>  <Rbt.Receptor>
prm/blind_docking_40.prm

>  <SCORE>
-9.93623

>  <SCORE.INTER>
-9.93623

>  <SCORE.INTER.CONST>
1

>  <SCORE.INTER.POLAR>
0

>  <SCORE.INTER.ROT>
0

>  <SCORE.INTER.SOLV>
17.5221

>  <SCORE.INTER.VDW>
-16.0648

>  <SCORE.INTER.norm>
-0.903293

>  <SCORE.INTRA>
0

>  <SCORE.INTRA.DIHEDRAL>
0

>  <SCORE.INTRA.DIHEDRAL.0>
0

>  <SCORE.INTRA.POLAR>
0

>  <SCORE.INTRA.POLAR.0>
0

>  <SCORE.INTRA.REPUL>
0

>  <SCORE.INTRA.REPUL.0>
0

>  <SCORE.INTRA.SOLV>
0

>  <SCORE.INTRA.SOLV.lig_0>
-48.9252

>  <SCORE.INTRA.VDW>
0

>  <SCORE.INTRA.VDW.0>
0

>  <SCORE.INTRA.norm>
0

>  <SCORE.RESTR>
0

>  <SCORE.RESTR.CAVITY>
0

>  <SCORE.RESTR.norm>
0

>  <SCORE.SYSTEM>
0

>  <SCORE.SYSTEM.CONST>
0

>  <SCORE.SYSTEM.DIHEDRAL>
0

>  <SCORE.SYSTEM.SOLV>
0

>  <SCORE.SYSTEM.norm>
0

>  <SCORE.heavy>
11

>  <SCORE.norm>
-0.903293

>  <RMSD>
2.873

$$$$
ligand
 OpenBabel11021811493D
libRbt.so/2013.1/901 2013/11/27
 11 12  0  0  0  0  0  0  0  0999 V2000
   12.5117   10.7322    8.7386 N   0  0  0  0  0  0  0  0  0  0  0  0
   12.4555    9.9698    7.6311 C   0  0  0  0  0  0  0  0  0  0  0  0
   12.8581    8.6437    7.6976 N   0  0  0  0  0  0  0  0  0  0  0  0
   12.0198   10.4636    6.4614 N   0  0  0  0  0  0  0  0  0  0  0  0
   11.6261   11.7418    6.3462 C   0  0  0  0  0  0  0  0  0  0  0  0
   11.6638   12.5867    7.4782 C   0  0  0  0  0  0  0  0  0  0  0  0
   12.1296   12.0269    8.7090 C   0  0  0  0  0  0  0  0  0  0  0  0
   12.1911   12.7901    9.8492 N   0  0  0  0  0  0  0  0  0  0  0  0
   11.2166   13.8125    7.0816 N   0  0  0  0  0  0  0  0  0  0  0  0
   10.9209   13.7710    5.8172 C   0  0  0  0  0  0  0  0  0  0  0  0
   11.1522   12.5152    5.3154 N   0  0  0  0  0  0  0  0  0  0  0  0
  1  7  2  0  0  0  0
  1  2  1  0  0  0  0
  2  3  1  0  0  0  0
  2  4  2  0  0  0  0
  4  5  1  0  0  0  0
  5  6  2  0  0  0  0
  5 11  1  0  0  0  0
  6  7  1  0  0  0  0
  6  9  1  0  0  0  0
  7  8  1  0  0  0  0
  9 10  1  0  0  0  0
 10 11  2  0  0  0  0
M  END
>  <CHROM.1>
11.89471653,11.71225449,7.38741804,-0.25625487,-1.20861733,0.86138256

>  <Name>
ligand

>  <RI>
0

>  <Rbt.Current_Directory>
/home/itssahil/PROJECTS/Mol_Feturizer/New_Systems/rnas/4FEO

>  <Rbt.Executable>
rbdock ($Id: //depot/dev/client3/rdock/2013.1/src/exe/rbdock.cxx#4 $)

>  <Rbt.Library>
libRbt.so (2013.1, Build901 2013/11/27)

>  <Rbt.Parameter_File>
/export/apps/rDock/src/rDock_2013.1_src/data/scripts/dock_solv.prm

>  <Rbt.Receptor>
prm/blind_docking_40.prm

>  <SCORE>
-9.85984

>  <SCORE.INTER>
-9.85984

>  <SCORE.INTER.CONST>
1

>  <SCORE.INTER.POLAR>
0

>  <SCORE.INTER.ROT>
0

>  <SCORE.INTER.SOLV>
17.1272

>  <SCORE.INTER.VDW>
-15.8823

>  <SCORE.INTER.norm>
-0.896349

>  <SCORE.INTRA>
0

>  <SCORE.INTRA.DIHEDRAL>
0

>  <SCORE.INTRA.DIHEDRAL.0>
0

>  <SCORE.INTRA.POLAR>
0

>  <SCORE.INTRA.POLAR.0>
0

>  <SCORE.INTRA.REPUL>
0

>  <SCORE.INTRA.REPUL.0>
0

>  <SCORE.INTRA.SOLV>
0

>  <SCORE.INTRA.SOLV.lig_0>
-48.9252

>  <SCORE.INTRA.VDW>
0

>  <SCORE.INTRA.VDW.0>
0

>  <SCORE.INTRA.norm>
0

>  <SCORE.RESTR>
0

>  <SCORE.RESTR.CAVITY>
0

>  <SCORE.RESTR.norm>
0

>  <SCORE.SYSTEM>
0

>  <SCORE.SYSTEM.CONST>
0

>  <SCORE.SYSTEM.DIHEDRAL>
0

>  <SCORE.SYSTEM.SOLV>
0

>  <SCORE.SYSTEM.norm>
0

>  <SCORE.heavy>
11

>  <SCORE.norm>
-0.896349

>  <RMSD>
2.873

$$$$
ligand
 OpenBabel11021811493D
libRbt.so/2013.1/901 2013/11/27
 11 12  0  0  0  0  0  0  0  0999 V2000
   12.4949   10.7253    8.7296 N   0  0  0  0  0  0  0  0  0  0  0  0
   12.4357    9.9668    7.6198 C   0  0  0  0  0  0  0  0  0  0  0  0
   12.8356    8.6396    7.6813 N   0  0  0  0  0  0  0  0  0  0  0  0
   11.9993   10.4652    6.4522 N   0  0  0  0  0  0  0  0  0  0  0  0
   11.6081   11.7446    6.3418 C   0  0  0  0  0  0  0  0  0  0  0  0
   11.6489   12.5857    7.4765 C   0  0  0  0  0  0  0  0  0  0  0  0
   12.1153   12.0209    8.7049 C   0  0  0  0  0  0  0  0  0  0  0  0
   12.1799   12.7802    9.8475 N   0  0  0  0  0  0  0  0  0  0  0  0
   11.2036   13.8137    7.0847 N   0  0  0  0  0  0  0  0  0  0  0  0
   10.9062   13.7770    5.8205 C   0  0  0  0  0  0  0  0  0  0  0  0
   11.1343   12.5224    5.3142 N   0  0  0  0  0  0  0  0  0  0  0  0
  1  7  2  0  0  0  0
  1  2  1  0  0  0  0
  2  3  1  0  0  0  0
  2  4  2  0  0  0  0
  4  5  1  0  0  0  0
  5  6  2  0  0  0  0
  5 11  1  0  0  0  0
  6  7  1  0  0  0  0
  6  9  1  0  0  0  0
  7  8  1  0  0  0  0
  9 10  1  0  0  0  0
 10 11  2  0  0  0  0
M  END
>  <CHROM.1>
11.87801117,11.71110851,7.38257178,-0.26280133,-1.20924879,0.85856991

>  <Name>
ligand

>  <RI>
0

>  <Rbt.Current_Directory>
/home/itssahil/PROJECTS/Mol_Feturizer/New_Systems/rnas/4FEO

>  <Rbt.Executable>
rbdock ($Id: //depot/dev/client3/rdock/2013.1/src/exe/rbdock.cxx#4 $)

>  <Rbt.Library>
libRbt.so (2013.1, Build901 2013/11/27)

>  <Rbt.Parameter_File>
/export/apps/rDock/src/rDock_2013.1_src/data/scripts/dock_solv.prm

>  <Rbt.Receptor>
prm/blind_docking_60.prm

>  <SCORE>
-9.89487

>  <SCORE.INTER>
-9.89487

>  <SCORE.INTER.CONST>
1

>  <SCORE.INTER.POLAR>
0

>  <SCORE.INTER.ROT>
0

>  <SCORE.INTER.SOLV>
17.1252

>  <SCORE.INTER.VDW>
-15.905

>  <SCORE.INTER.norm>
-0.899533

>  <SCORE.INTRA>
0

>  <SCORE.INTRA.DIHEDRAL>
0

>  <SCORE.INTRA.DIHEDRAL.0>
0

>  <SCORE.INTRA.POLAR>
0

>  <SCORE.INTRA.POLAR.0>
0

>  <SCORE.INTRA.REPUL>
0

>  <SCORE.INTRA.REPUL.0>
0

>  <SCORE.INTRA.SOLV>
0

>  <SCORE.INTRA.SOLV.lig_0>
-48.9252

>  <SCORE.INTRA.VDW>
0

>  <SCORE.INTRA.VDW.0>
0

>  <SCORE.INTRA.norm>
0

>  <SCORE.RESTR>
0

>  <SCORE.RESTR.CAVITY>
0

>  <SCORE.RESTR.norm>
0

>  <SCORE.SYSTEM>
0

>  <SCORE.SYSTEM.CONST>
0

>  <SCORE.SYSTEM.DIHEDRAL>
0

>  <SCORE.SYSTEM.SOLV>
0

>  <SCORE.SYSTEM.norm>
0

>  <SCORE.heavy>
11

>  <SCORE.norm>
-0.899533

>  <RMSD>
2.873

$$$$
ligand
 OpenBabel11021811493D
libRbt.so/2013.1/901 2013/11/27
 11 12  0  0  0  0  0  0  0  0999 V2000
   12.4952   10.7261    8.7298 N   0  0  0  0  0  0  0  0  0  0  0  0
   12.4335    9.9664    7.6208 C   0  0  0  0  0  0  0  0  0  0  0  0
   12.8324    8.6390    7.6830 N   0  0  0  0  0  0  0  0  0  0  0  0
   11.9958   10.4641    6.4534 N   0  0  0  0  0  0  0  0  0  0  0  0
   11.6056   11.7438    6.3423 C   0  0  0  0  0  0  0  0  0  0  0  0
   11.6490   12.5859    7.4762 C   0  0  0  0  0  0  0  0  0  0  0  0
   12.1168   12.0219    8.7043 C   0  0  0  0  0  0  0  0  0  0  0  0
   12.1839   12.7823    9.8461 N   0  0  0  0  0  0  0  0  0  0  0  0
   11.2042   13.8140    7.0838 N   0  0  0  0  0  0  0  0  0  0  0  0
   10.9047   13.7763    5.8201 C   0  0  0  0  0  0  0  0  0  0  0  0
   11.1308   12.5209    5.3147 N   0  0  0  0  0  0  0  0  0  0  0  0
  1  7  2  0  0  0  0
  1  2  1  0  0  0  0
  2  3  1  0  0  0  0
  2  4  2  0  0  0  0
  4  5  1  0  0  0  0
  5  6  2  0  0  0  0
  5 11  1  0  0  0  0
  6  7  1  0  0  0  0
  6  9  1  0  0  0  0
  7  8  1  0  0  0  0
  9 10  1  0  0  0  0
 10 11  2  0  0  0  0
M  END
>  <CHROM.1>
11.87710547,11.71104052,7.38271509,-0.26788402,-1.20890034,0.85280661

>  <Name>
ligand

>  <RI>
0

>  <Rbt.Current_Directory>
/home/itssahil/PROJECTS/Mol_Feturizer/New_Systems/rnas/4FEO

>  <Rbt.Executable>
rbdock ($Id: //depot/dev/client3/rdock/2013.1/src/exe/rbdock.cxx#4 $)

>  <Rbt.Library>
libRbt.so (2013.1, Build901 2013/11/27)

>  <Rbt.Parameter_File>
/export/apps/rDock/src/rDock_2013.1_src/data/scripts/dock_solv.prm

>  <Rbt.Receptor>
prm/blind_docking_80.prm

>  <SCORE>
-9.89233

>  <SCORE.INTER>
-9.89233

>  <SCORE.INTER.CONST>
1

>  <SCORE.INTER.POLAR>
0

>  <SCORE.INTER.ROT>
0

>  <SCORE.INTER.SOLV>
17.1371

>  <SCORE.INTER.VDW>
-15.9072

>  <SCORE.INTER.norm>
-0.899303

>  <SCORE.INTRA>
0

>  <SCORE.INTRA.DIHEDRAL>
0

>  <SCORE.INTRA.DIHEDRAL.0>
0

>  <SCORE.INTRA.POLAR>
0

>  <SCORE.INTRA.POLAR.0>
0

>  <SCORE.INTRA.REPUL>
0

>  <SCORE.INTRA.REPUL.0>
0

>  <SCORE.INTRA.SOLV>
0

>  <SCORE.INTRA.SOLV.lig_0>
-48.9252

>  <SCORE.INTRA.VDW>
0

>  <SCORE.INTRA.VDW.0>
0

>  <SCORE.INTRA.norm>
0

>  <SCORE.RESTR>
0

>  <SCORE.RESTR.CAVITY>
0

>  <SCORE.RESTR.norm>
0

>  <SCORE.SYSTEM>
0

>  <SCORE.SYSTEM.CONST>
0

>  <SCORE.SYSTEM.DIHEDRAL>
0

>  <SCORE.SYSTEM.SOLV>
0

>  <SCORE.SYSTEM.norm>
0

>  <SCORE.heavy>
11

>  <SCORE.norm>
-0.899303

>  <RMSD>
2.873

$$$$
ligand
 OpenBabel11021811493D
libRbt.so/2013.1/901 2013/11/27
 11 12  0  0  0  0  0  0  0  0999 V2000
   12.4903   10.7235    8.7313 N   0  0  0  0  0  0  0  0  0  0  0  0
   12.4296    9.9643    7.6220 C   0  0  0  0  0  0  0  0  0  0  0  0
   12.8268    8.6364    7.6845 N   0  0  0  0  0  0  0  0  0  0  0  0
   11.9943   10.4629    6.4541 N   0  0  0  0  0  0  0  0  0  0  0  0
   11.6057   11.7430    6.3428 C   0  0  0  0  0  0  0  0  0  0  0  0
   11.6482   12.5848    7.4769 C   0  0  0  0  0  0  0  0  0  0  0  0
   12.1134   12.0198    8.7057 C   0  0  0  0  0  0  0  0  0  0  0  0
   12.1795   12.7798    9.8478 N   0  0  0  0  0  0  0  0  0  0  0  0
   11.2055   13.8134    7.0842 N   0  0  0  0  0  0  0  0  0  0  0  0
   10.9081   13.7765    5.8201 C   0  0  0  0  0  0  0  0  0  0  0  0
   11.1336   12.5211    5.3146 N   0  0  0  0  0  0  0  0  0  0  0  0
  1  7  2  0  0  0  0
  1  2  1  0  0  0  0
  2  3  1  0  0  0  0
  2  4  2  0  0  0  0
  4  5  1  0  0  0  0
  5  6  2  0  0  0  0
  5 11  1  0  0  0  0
  6  7  1  0  0  0  0
  6  9  1  0  0  0  0
  7  8  1  0  0  0  0
  9 10  1  0  0  0  0
 10 11  2  0  0  0  0
M  END
>  <CHROM.1>
11.87552174,11.70963185,7.38359199,-0.26649627,-1.21083302,0.85443262

>  <Name>
ligand

>  <RI>
0

>  <Rbt.Current_Directory>
/home/itssahil/PROJECTS/Mol_Feturizer/New_Systems/rnas/4FEO

>  <Rbt.Executable>
rbdock ($Id: //depot/dev/client3/rdock/2013.1/src/exe/rbdock.cxx#4 $)

>  <Rbt.Library>
libRbt.so (2013.1, Build901 2013/11/27)

>  <Rbt.Parameter_File>
/export/apps/rDock/src/rDock_2013.1_src/data/scripts/dock_solv.prm

>  <Rbt.Receptor>
prm/pocket_docking_5.prm

>  <SCORE>
-9.8954

>  <SCORE.INTER>
-9.8954

>  <SCORE.INTER.CONST>
1

>  <SCORE.INTER.POLAR>
0

>  <SCORE.INTER.ROT>
0

>  <SCORE.INTER.SOLV>
17.1594

>  <SCORE.INTER.VDW>
-15.9167

>  <SCORE.INTER.norm>
-0.899582

>  <SCORE.INTRA>
0

>  <SCORE.INTRA.DIHEDRAL>
0

>  <SCORE.INTRA.DIHEDRAL.0>
0

>  <SCORE.INTRA.POLAR>
0

>  <SCORE.INTRA.POLAR.0>
0

>  <SCORE.INTRA.REPUL>
0

>  <SCORE.INTRA.REPUL.0>
0

>  <SCORE.INTRA.SOLV>
0

>  <SCORE.INTRA.SOLV.lig_0>
-48.9252

>  <SCORE.INTRA.VDW>
0

>  <SCORE.INTRA.VDW.0>
0

>  <SCORE.INTRA.norm>
0

>  <SCORE.RESTR>
0

>  <SCORE.RESTR.CAVITY>
0

>  <SCORE.RESTR.norm>
0

>  <SCORE.SYSTEM>
0

>  <SCORE.SYSTEM.CONST>
0

>  <SCORE.SYSTEM.DIHEDRAL>
0

>  <SCORE.SYSTEM.SOLV>
0

>  <SCORE.SYSTEM.norm>
0

>  <SCORE.heavy>
11

>  <SCORE.norm>
-0.899582

>  <RMSD>
2.873

$$$$
ligand
 OpenBabel11021811493D
libRbt.so/2013.1/901 2013/11/27
 11 12  0  0  0  0  0  0  0  0999 V2000
   12.4929   10.7317    8.7132 N   0  0  0  0  0  0  0  0  0  0  0  0
   12.4225    9.9673    7.6080 C   0  0  0  0  0  0  0  0  0  0  0  0
   12.8175    8.6389    7.6739 N   0  0  0  0  0  0  0  0  0  0  0  0
   11.9797   10.4612    6.4410 N   0  0  0  0  0  0  0  0  0  0  0  0
   11.5929   11.7415    6.3263 C   0  0  0  0  0  0  0  0  0  0  0  0
   11.6455   12.5886    7.4561 C   0  0  0  0  0  0  0  0  0  0  0  0
   12.1185   12.0286    8.6841 C   0  0  0  0  0  0  0  0  0  0  0  0
   12.1945   12.7939    9.8221 N   0  0  0  0  0  0  0  0  0  0  0  0
   11.2023   13.8163    7.0607 N   0  0  0  0  0  0  0  0  0  0  0  0
   10.8955   13.7739    5.7990 C   0  0  0  0  0  0  0  0  0  0  0  0
   11.1147   12.5156    5.2980 N   0  0  0  0  0  0  0  0  0  0  0  0
  1  7  2  0  0  0  0
  1  2  1  0  0  0  0
  2  3  1  0  0  0  0
  2  4  2  0  0  0  0
  4  5  1  0  0  0  0
  5  6  2  0  0  0  0
  5 11  1  0  0  0  0
  6  7  1  0  0  0  0
  6  9  1  0  0  0  0
  7  8  1  0  0  0  0
  9 10  1  0  0  0  0
 10 11  2  0  0  0  0
M  END
>  <CHROM.1>
11.87026742,11.71260652,7.36529239,-0.28589236,-1.20747199,0.83148699

>  <Name>
ligand

>  <RI>
0

>  <Rbt.Current_Directory>
/home/itssahil/PROJECTS/Mol_Feturizer/New_Systems/rnas/4FEO

>  <Rbt.Executable>
rbdock ($Id: //depot/dev/client3/rdock/2013.1/src/exe/rbdock.cxx#4 $)

>  <Rbt.Library>
libRbt.so (2013.1, Build901 2013/11/27)

>  <Rbt.Parameter_File>
/export/apps/rDock/src/rDock_2013.1_src/data/scripts/dock_solv.prm

>  <Rbt.Receptor>
prm/pocket_docking_6.prm

>  <SCORE>
-9.90739

>  <SCORE.INTER>
-9.9175

>  <SCORE.INTER.CONST>
1

>  <SCORE.INTER.POLAR>
0

>  <SCORE.INTER.ROT>
0

>  <SCORE.INTER.SOLV>
17.1321

>  <SCORE.INTER.VDW>
-15.9224

>  <SCORE.INTER.norm>
-0.901591

>  <SCORE.INTRA>
0

>  <SCORE.INTRA.DIHEDRAL>
0

>  <SCORE.INTRA.DIHEDRAL.0>
0

>  <SCORE.INTRA.POLAR>
0

>  <SCORE.INTRA.POLAR.0>
0

>  <SCORE.INTRA.REPUL>
0

>  <SCORE.INTRA.REPUL.0>
0

>  <SCORE.INTRA.SOLV>
0

>  <SCORE.INTRA.SOLV.lig_0>
-48.9252

>  <SCORE.INTRA.VDW>
0

>  <SCORE.INTRA.VDW.0>
0

>  <SCORE.INTRA.norm>
0

>  <SCORE.RESTR>
0.0101163

>  <SCORE.RESTR.CAVITY>
0.0101163

>  <SCORE.RESTR.norm>
0.000919665

>  <SCORE.SYSTEM>
0

>  <SCORE.SYSTEM.CONST>
0

>  <SCORE.SYSTEM.DIHEDRAL>
0

>  <SCORE.SYSTEM.SOLV>
0

>  <SCORE.SYSTEM.norm>
0

>  <SCORE.heavy>
11

>  <SCORE.norm>
-0.900672

>  <RMSD>
2.873

$$$$
ligand
 OpenBabel11021811493D
libRbt.so/2013.1/901 2013/11/27
 11 12  0  0  0  0  0  0  0  0999 V2000
   12.4993   10.7209    8.7034 N   0  0  0  0  0  0  0  0  0  0  0  0
   12.4022    9.9464    7.6074 C   0  0  0  0  0  0  0  0  0  0  0  0
   12.7922    8.6168    7.6778 N   0  0  0  0  0  0  0  0  0  0  0  0
   11.9374   10.4313    6.4451 N   0  0  0  0  0  0  0  0  0  0  0  0
   11.5544   11.7125    6.3263 C   0  0  0  0  0  0  0  0  0  0  0  0
   11.6346   12.5700    7.4465 C   0  0  0  0  0  0  0  0  0  0  0  0
   12.1305   12.0194    8.6697 C   0  0  0  0  0  0  0  0  0  0  0  0
   12.2340   12.7951    9.7984 N   0  0  0  0  0  0  0  0  0  0  0  0
   11.1892   13.7961    7.0486 N   0  0  0  0  0  0  0  0  0  0  0  0
   10.8559   13.7432    5.7940 C   0  0  0  0  0  0  0  0  0  0  0  0
   11.0586   12.4791    5.3007 N   0  0  0  0  0  0  0  0  0  0  0  0
  1  7  2  0  0  0  0
  1  2  1  0  0  0  0
  2  3  1  0  0  0  0
  2  4  2  0  0  0  0
  4  5  1  0  0  0  0
  5  6  2  0  0  0  0
  5 11  1  0  0  0  0
  6  7  1  0  0  0  0
  6  9  1  0  0  0  0
  7  8  1  0  0  0  0
  9 10  1  0  0  0  0
 10 11  2  0  0  0  0
M  END
>  <CHROM.1>
11.85332459,11.69204613,7.35942608,-0.33694149,-1.19645858,0.77429701

>  <Name>
ligand

>  <RI>
0

>  <Rbt.Current_Directory>
/home/itssahil/PROJECTS/Mol_Feturizer/New_Systems/rnas/4FEO

>  <Rbt.Executable>
rbdock ($Id: //depot/dev/client3/rdock/2013.1/src/exe/rbdock.cxx#4 $)

>  <Rbt.Library>
libRbt.so (2013.1, Build901 2013/11/27)

>  <Rbt.Parameter_File>
/export/apps/rDock/src/rDock_2013.1_src/data/scripts/dock_solv.prm

>  <Rbt.Receptor>
prm/pocket_docking_6.prm

>  <SCORE>
-9.89511

>  <SCORE.INTER>
-9.89527

>  <SCORE.INTER.CONST>
1

>  <SCORE.INTER.POLAR>
0

>  <SCORE.INTER.ROT>
0

>  <SCORE.INTER.SOLV>
17.1169

>  <SCORE.INTER.VDW>
-15.9025

>  <SCORE.INTER.norm>
-0.89957

>  <SCORE.INTRA>
0

>  <SCORE.INTRA.DIHEDRAL>
0

>  <SCORE.INTRA.DIHEDRAL.0>
0

>  <SCORE.INTRA.POLAR>
0

>  <SCORE.INTRA.POLAR.0>
0

>  <SCORE.INTRA.REPUL>
0

>  <SCORE.INTRA.REPUL.0>
0

>  <SCORE.INTRA.SOLV>
0

>  <SCORE.INTRA.SOLV.lig_0>
-48.9252

>  <SCORE.INTRA.VDW>
0

>  <SCORE.INTRA.VDW.0>
0

>  <SCORE.INTRA.norm>
0

>  <SCORE.RESTR>
0.000161262

>  <SCORE.RESTR.CAVITY>
0.000161262

>  <SCORE.RESTR.norm>
1.46602e-05

>  <SCORE.SYSTEM>
0

>  <SCORE.SYSTEM.CONST>
0

>  <SCORE.SYSTEM.DIHEDRAL>
0

>  <SCORE.SYSTEM.SOLV>
0

>  <SCORE.SYSTEM.norm>
0

>  <SCORE.heavy>
11

>  <SCORE.norm>
-0.899556

>  <RMSD>
2.873

$$$$
ligand
 OpenBabel11021811493D
libRbt.so/2013.1/901 2013/11/27
 11 12  0  0  0  0  0  0  0  0999 V2000
   12.4362   10.7179    8.7262 N   0  0  0  0  0  0  0  0  0  0  0  0
   12.3618    9.9861    7.5994 C   0  0  0  0  0  0  0  0  0  0  0  0
   12.7165    8.6452    7.6351 N   0  0  0  0  0  0  0  0  0  0  0  0
   11.9531   10.5242    6.4395 N   0  0  0  0  0  0  0  0  0  0  0  0
   11.6060   11.8181    6.3539 C   0  0  0  0  0  0  0  0  0  0  0  0
   11.6647   12.6325    7.5072 C   0  0  0  0  0  0  0  0  0  0  0  0
   12.1006   12.0258    8.7267 C   0  0  0  0  0  0  0  0  0  0  0  0
   12.1801   12.7575    9.8863 N   0  0  0  0  0  0  0  0  0  0  0  0
   11.2644   13.8831    7.1387 N   0  0  0  0  0  0  0  0  0  0  0  0
   10.9775   13.8839    5.8716 C   0  0  0  0  0  0  0  0  0  0  0  0
   11.1680   12.6336    5.3398 N   0  0  0  0  0  0  0  0  0  0  0  0
  1  7  2  0  0  0  0
  1  2  1  0  0  0  0
  2  3  1  0  0  0  0
  2  4  2  0  0  0  0
  4  5  1  0  0  0  0
  5  6  2  0  0  0  0
  5 11  1  0  0  0  0
  6  7  1  0  0  0  0
  6  9  1  0  0  0  0
  7  8  1  0  0  0  0
  9 10  1  0  0  0  0
 10 11  2  0  0  0  0
M  END
>  <CHROM.1>
11.86513941,11.75295758,7.39597657,-0.30900713,-1.24028499,0.83694698

>  <Name>
ligand

>  <RI>
0

>  <Rbt.Current_Directory>
/home/itssahil/PROJECTS/Mol_Feturizer/New_Systems/rnas/4FEO

>  <Rbt.Executable>
rbdock ($Id: //depot/dev/client3/rdock/2013.1/src/exe/rbdock.cxx#4 $)

>  <Rbt.Library>
libRbt.so (2013.1, Build901 2013/11/27)

>  <Rbt.Parameter_File>
/export/apps/rDock/src/rDock_2013.1_src/data/scripts/dock_solv.prm

>  <Rbt.Receptor>
prm/blind_docking_80.prm

>  <SCORE>
-9.93505

>  <SCORE.INTER>
-9.93505

>  <SCORE.INTER.CONST>
1

>  <SCORE.INTER.POLAR>
0

>  <SCORE.INTER.ROT>
0

>  <SCORE.INTER.SOLV>
17.5221

>  <SCORE.INTER.VDW>
-16.0641

>  <SCORE.INTER.norm>
-0.903187

>  <SCORE.INTRA>
0

>  <SCORE.INTRA.DIHEDRAL>
0

>  <SCORE.INTRA.DIHEDRAL.0>
0

>  <SCORE.INTRA.POLAR>
0

>  <SCORE.INTRA.POLAR.0>
0

>  <SCORE.INTRA.REPUL>
0

>  <SCORE.INTRA.REPUL.0>
0

>  <SCORE.INTRA.SOLV>
0

>  <SCORE.INTRA.SOLV.lig_0>
-48.9252

>  <SCORE.INTRA.VDW>
0

>  <SCORE.INTRA.VDW.0>
0

>  <SCORE.INTRA.norm>
0

>  <SCORE.RESTR>
0

>  <SCORE.RESTR.CAVITY>
0

>  <SCORE.RESTR.norm>
0

>  <SCORE.SYSTEM>
0

>  <SCORE.SYSTEM.CONST>
0

>  <SCORE.SYSTEM.DIHEDRAL>
0

>  <SCORE.SYSTEM.SOLV>
0

>  <SCORE.SYSTEM.norm>
0

>  <SCORE.heavy>
11

>  <SCORE.norm>
-0.903187

>  <RMSD>
2.874

$$$$
ligand
 OpenBabel11021811493D
libRbt.so/2013.1/901 2013/11/27
 11 12  0  0  0  0  0  0  0  0999 V2000
   12.4945   10.7215    8.7254 N   0  0  0  0  0  0  0  0  0  0  0  0
   12.4288    9.9632    7.6157 C   0  0  0  0  0  0  0  0  0  0  0  0
   12.8255    8.6350    7.6755 N   0  0  0  0  0  0  0  0  0  0  0  0
   11.9892   10.4630    6.4500 N   0  0  0  0  0  0  0  0  0  0  0  0
   11.6009   11.7435    6.3413 C   0  0  0  0  0  0  0  0  0  0  0  0
   11.6486   12.5843    7.4759 C   0  0  0  0  0  0  0  0  0  0  0  0
   12.1184   12.0181    8.7023 C   0  0  0  0  0  0  0  0  0  0  0  0
   12.1896   12.7771    9.8448 N   0  0  0  0  0  0  0  0  0  0  0  0
   11.2051   13.8136    7.0860 N   0  0  0  0  0  0  0  0  0  0  0  0
   10.9025   13.7778    5.8230 C   0  0  0  0  0  0  0  0  0  0  0  0
   11.1251   12.5227    5.3157 N   0  0  0  0  0  0  0  0  0  0  0  0
  1  7  2  0  0  0  0
  1  2  1  0  0  0  0
  2  3  1  0  0  0  0
  2  4  2  0  0  0  0
  4  5  1  0  0  0  0
  5  6  2  0  0  0  0
  5 11  1  0  0  0  0
  6  7  1  0  0  0  0
  6  9  1  0  0  0  0
  7  8  1  0  0  0  0
  9 10  1  0  0  0  0
 10 11  2  0  0  0  0
M  END
>  <CHROM.1>
11.87496024,11.70910519,7.38093765,-0.27634969,-1.20863366,0.84600662

>  <Name>
ligand

>  <RI>
0

>  <Rbt.Current_Directory>
/home/itssahil/PROJECTS/Mol_Feturizer/New_Systems/rnas/4FEO

>  <Rbt.Executable>
rbdock ($Id: //depot/dev/client3/rdock/2013.1/src/exe/rbdock.cxx#4 $)

>  <Rbt.Library>
libRbt.so (2013.1, Build901 2013/11/27)

>  <Rbt.Parameter_File>
/export/apps/rDock/src/rDock_2013.1_src/data/scripts/dock_solv.prm

>  <Rbt.Receptor>
prm/blind_docking_80.prm

>  <SCORE>
-9.89271

>  <SCORE.INTER>
-9.89271

>  <SCORE.INTER.CONST>
1

>  <SCORE.INTER.POLAR>
0

>  <SCORE.INTER.ROT>
0

>  <SCORE.INTER.SOLV>
17.1246

>  <SCORE.INTER.VDW>
-15.9033

>  <SCORE.INTER.norm>
-0.899337

>  <SCORE.INTRA>
0

>  <SCORE.INTRA.DIHEDRAL>
0

>  <SCORE.INTRA.DIHEDRAL.0>
0

>  <SCORE.INTRA.POLAR>
0

>  <SCORE.INTRA.POLAR.0>
0

>  <SCORE.INTRA.REPUL>
0

>  <SCORE.INTRA.REPUL.0>
0

>  <SCORE.INTRA.SOLV>
0

>  <SCORE.INTRA.SOLV.lig_0>
-48.9252

>  <SCORE.INTRA.VDW>
0

>  <SCORE.INTRA.VDW.0>
0

>  <SCORE.INTRA.norm>
0

>  <SCORE.RESTR>
0

>  <SCORE.RESTR.CAVITY>
0

>  <SCORE.RESTR.norm>
0

>  <SCORE.SYSTEM>
0

>  <SCORE.SYSTEM.CONST>
0

>  <SCORE.SYSTEM.DIHEDRAL>
0

>  <SCORE.SYSTEM.SOLV>
0

>  <SCORE.SYSTEM.norm>
0

>  <SCORE.heavy>
11

>  <SCORE.norm>
-0.899337

>  <RMSD>
2.874

$$$$
ligand
 OpenBabel11021811493D
libRbt.so/2013.1/901 2013/11/27
 11 12  0  0  0  0  0  0  0  0999 V2000
   12.4928   10.7208    8.7204 N   0  0  0  0  0  0  0  0  0  0  0  0
   12.4209    9.9620    7.6115 C   0  0  0  0  0  0  0  0  0  0  0  0
   12.8137    8.6326    7.6707 N   0  0  0  0  0  0  0  0  0  0  0  0
   11.9786   10.4624    6.4470 N   0  0  0  0  0  0  0  0  0  0  0  0
   11.5939   11.7439    6.3388 C   0  0  0  0  0  0  0  0  0  0  0  0
   11.6481   12.5853    7.4727 C   0  0  0  0  0  0  0  0  0  0  0  0
   12.1205   12.0185    8.6978 C   0  0  0  0  0  0  0  0  0  0  0  0
   12.1981   12.7780    9.8395 N   0  0  0  0  0  0  0  0  0  0  0  0
   11.2069   13.8157    7.0836 N   0  0  0  0  0  0  0  0  0  0  0  0
   10.8998   13.7800    5.8217 C   0  0  0  0  0  0  0  0  0  0  0  0
   11.1168   12.5239    5.3144 N   0  0  0  0  0  0  0  0  0  0  0  0
  1  7  2  0  0  0  0
  1  2  1  0  0  0  0
  2  3  1  0  0  0  0
  2  4  2  0  0  0  0
  4  5  1  0  0  0  0
  5  6  2  0  0  0  0
  5 11  1  0  0  0  0
  6  7  1  0  0  0  0
  6  9  1  0  0  0  0
  7  8  1  0  0  0  0
  9 10  1  0  0  0  0
 10 11  2  0  0  0  0
M  END
>  <CHROM.1>
11.87145183,11.70939958,7.37753486,-0.28950750,-1.20853589,0.83305961

>  <Name>
ligand

>  <RI>
0

>  <Rbt.Current_Directory>
/home/itssahil/PROJECTS/Mol_Feturizer/New_Systems/rnas/4FEO

>  <Rbt.Executable>
rbdock ($Id: //depot/dev/client3/rdock/2013.1/src/exe/rbdock.cxx#4 $)

>  <Rbt.Library>
libRbt.so (2013.1, Build901 2013/11/27)

>  <Rbt.Parameter_File>
/export/apps/rDock/src/rDock_2013.1_src/data/scripts/dock_solv.prm

>  <Rbt.Receptor>
prm/pocket_docking_5.prm

>  <SCORE>
-9.89039

>  <SCORE.INTER>
-9.89039

>  <SCORE.INTER.CONST>
1

>  <SCORE.INTER.POLAR>
0

>  <SCORE.INTER.ROT>
0

>  <SCORE.INTER.SOLV>
17.1378

>  <SCORE.INTER.VDW>
-15.9062

>  <SCORE.INTER.norm>
-0.899126

>  <SCORE.INTRA>
0

>  <SCORE.INTRA.DIHEDRAL>
0

>  <SCORE.INTRA.DIHEDRAL.0>
0

>  <SCORE.INTRA.POLAR>
0

>  <SCORE.INTRA.POLAR.0>
0

>  <SCORE.INTRA.REPUL>
0

>  <SCORE.INTRA.REPUL.0>
0

>  <SCORE.INTRA.SOLV>
0

>  <SCORE.INTRA.SOLV.lig_0>
-48.9252

>  <SCORE.INTRA.VDW>
0

>  <SCORE.INTRA.VDW.0>
0

>  <SCORE.INTRA.norm>
0

>  <SCORE.RESTR>
0

>  <SCORE.RESTR.CAVITY>
0

>  <SCORE.RESTR.norm>
0

>  <SCORE.SYSTEM>
0

>  <SCORE.SYSTEM.CONST>
0

>  <SCORE.SYSTEM.DIHEDRAL>
0

>  <SCORE.SYSTEM.SOLV>
0

>  <SCORE.SYSTEM.norm>
0

>  <SCORE.heavy>
11

>  <SCORE.norm>
-0.899126

>  <RMSD>
2.874

$$$$
ligand
 OpenBabel11021811493D
libRbt.so/2013.1/901 2013/11/27
 11 12  0  0  0  0  0  0  0  0999 V2000
   12.0981   10.7017    8.7042 N   0  0  0  0  0  0  0  0  0  0  0  0
   12.2879    9.8409    7.6875 C   0  0  0  0  0  0  0  0  0  0  0  0
   12.7624    8.5652    7.9565 N   0  0  0  0  0  0  0  0  0  0  0  0
   12.0297   10.1886    6.4169 N   0  0  0  0  0  0  0  0  0  0  0  0
   11.5756   11.4131    6.1065 C   0  0  0  0  0  0  0  0  0  0  0  0
   11.3577   12.3565    7.1357 C   0  0  0  0  0  0  0  0  0  0  0  0
   11.6394   11.9513    8.4780 C   0  0  0  0  0  0  0  0  0  0  0  0
   11.4491   12.8165    9.5276 N   0  0  0  0  0  0  0  0  0  0  0  0
   10.9036   13.4993    6.5459 N   0  0  0  0  0  0  0  0  0  0  0  0
   10.8362   13.3192    5.2610 C   0  0  0  0  0  0  0  0  0  0  0  0
   11.2366   12.0476    4.9369 N   0  0  0  0  0  0  0  0  0  0  0  0
  1  7  2  0  0  0  0
  1  2  1  0  0  0  0
  2  3  1  0  0  0  0
  2  4  2  0  0  0  0
  4  5  1  0  0  0  0
  5  6  2  0  0  0  0
  5 11  1  0  0  0  0
  6  7  1  0  0  0  0
  6  9  1  0  0  0  0
  7  8  1  0  0  0  0
  9 10  1  0  0  0  0
 10 11  2  0  0  0  0
M  END
>  <CHROM.1>
11.66022210,11.50030841,7.17535033,0.28999031,-1.22384845,1.27762749

>  <Name>
ligand

>  <RI>
0

>  <Rbt.Current_Directory>
/home/itssahil/PROJECTS/Mol_Feturizer/New_Systems/rnas/4FEO

>  <Rbt.Executable>
rbdock ($Id: //depot/dev/client3/rdock/2013.1/src/exe/rbdock.cxx#4 $)

>  <Rbt.Library>
libRbt.so (2013.1, Build901 2013/11/27)

>  <Rbt.Parameter_File>
/export/apps/rDock/src/rDock_2013.1_src/data/scripts/dock_solv.prm

>  <Rbt.Receptor>
prm/blind_docking_20.prm

>  <SCORE>
-7.95872

>  <SCORE.INTER>
-8.51433

>  <SCORE.INTER.CONST>
1

>  <SCORE.INTER.POLAR>
0

>  <SCORE.INTER.ROT>
0

>  <SCORE.INTER.SOLV>
18.2736

>  <SCORE.INTER.VDW>
-15.3674

>  <SCORE.INTER.norm>
-0.77403

>  <SCORE.INTRA>
0

>  <SCORE.INTRA.DIHEDRAL>
0

>  <SCORE.INTRA.DIHEDRAL.0>
0

>  <SCORE.INTRA.POLAR>
0

>  <SCORE.INTRA.POLAR.0>
0

>  <SCORE.INTRA.REPUL>
0

>  <SCORE.INTRA.REPUL.0>
0

>  <SCORE.INTRA.SOLV>
0

>  <SCORE.INTRA.SOLV.lig_0>
-48.9252

>  <SCORE.INTRA.VDW>
0

>  <SCORE.INTRA.VDW.0>
0

>  <SCORE.INTRA.norm>
0

>  <SCORE.RESTR>
0.555603

>  <SCORE.RESTR.CAVITY>
0.555603

>  <SCORE.RESTR.norm>
0.0505093

>  <SCORE.SYSTEM>
0

>  <SCORE.SYSTEM.CONST>
0

>  <SCORE.SYSTEM.DIHEDRAL>
0

>  <SCORE.SYSTEM.SOLV>
0

>  <SCORE.SYSTEM.norm>
0

>  <SCORE.heavy>
11

>  <SCORE.norm>
-0.72352

>  <RMSD>
2.875

$$$$
ligand
 OpenBabel11021811493D
libRbt.so/2013.1/901 2013/11/27
 11 12  0  0  0  0  0  0  0  0999 V2000
   12.4650   10.7279    8.7348 N   0  0  0  0  0  0  0  0  0  0  0  0
   12.4124    9.9971    7.6061 C   0  0  0  0  0  0  0  0  0  0  0  0
   12.7907    8.6627    7.6420 N   0  0  0  0  0  0  0  0  0  0  0  0
   12.0031   10.5302    6.4441 N   0  0  0  0  0  0  0  0  0  0  0  0
   11.6336   11.8179    6.3583 C   0  0  0  0  0  0  0  0  0  0  0  0
   11.6687   12.6309    7.5135 C   0  0  0  0  0  0  0  0  0  0  0  0
   12.1060   12.0296    8.7352 C   0  0  0  0  0  0  0  0  0  0  0  0
   12.1636   12.7602    9.8968 N   0  0  0  0  0  0  0  0  0  0  0  0
   11.2490   13.8748    7.1443 N   0  0  0  0  0  0  0  0  0  0  0  0
   10.9719   13.8731    5.8750 C   0  0  0  0  0  0  0  0  0  0  0  0
   11.1888   12.6275    5.3423 N   0  0  0  0  0  0  0  0  0  0  0  0
  1  7  2  0  0  0  0
  1  2  1  0  0  0  0
  2  3  1  0  0  0  0
  2  4  2  0  0  0  0
  4  5  1  0  0  0  0
  5  6  2  0  0  0  0
  5 11  1  0  0  0  0
  6  7  1  0  0  0  0
  6  9  1  0  0  0  0
  7  8  1  0  0  0  0
  9 10  1  0  0  0  0
 10 11  2  0  0  0  0
M  END
>  <CHROM.1>
11.88577022,11.75527327,7.40218120,-0.25576075,-1.23171386,0.88920832

>  <Name>
ligand

>  <RI>
0

>  <Rbt.Current_Directory>
/home/itssahil/PROJECTS/Mol_Feturizer/New_Systems/rnas/4FEO

>  <Rbt.Executable>
rbdock ($Id: //depot/dev/client3/rdock/2013.1/src/exe/rbdock.cxx#4 $)

>  <Rbt.Library>
libRbt.so (2013.1, Build901 2013/11/27)

>  <Rbt.Parameter_File>
/export/apps/rDock/src/rDock_2013.1_src/data/scripts/dock_solv.prm

>  <Rbt.Receptor>
prm/blind_docking_60.prm

>  <SCORE>
-9.90904

>  <SCORE.INTER>
-9.90904

>  <SCORE.INTER.CONST>
1

>  <SCORE.INTER.POLAR>
0

>  <SCORE.INTER.ROT>
0

>  <SCORE.INTER.SOLV>
17.3312

>  <SCORE.INTER.VDW>
-15.9831

>  <SCORE.INTER.norm>
-0.900822

>  <SCORE.INTRA>
0

>  <SCORE.INTRA.DIHEDRAL>
0

>  <SCORE.INTRA.DIHEDRAL.0>
0

>  <SCORE.INTRA.POLAR>
0

>  <SCORE.INTRA.POLAR.0>
0

>  <SCORE.INTRA.REPUL>
0

>  <SCORE.INTRA.REPUL.0>
0

>  <SCORE.INTRA.SOLV>
0

>  <SCORE.INTRA.SOLV.lig_0>
-48.9252

>  <SCORE.INTRA.VDW>
0

>  <SCORE.INTRA.VDW.0>
0

>  <SCORE.INTRA.norm>
0

>  <SCORE.RESTR>
0

>  <SCORE.RESTR.CAVITY>
0

>  <SCORE.RESTR.norm>
0

>  <SCORE.SYSTEM>
0

>  <SCORE.SYSTEM.CONST>
0

>  <SCORE.SYSTEM.DIHEDRAL>
0

>  <SCORE.SYSTEM.SOLV>
0

>  <SCORE.SYSTEM.norm>
0

>  <SCORE.heavy>
11

>  <SCORE.norm>
-0.900822

>  <RMSD>
2.875

$$$$
ligand
 OpenBabel11021811493D
libRbt.so/2013.1/901 2013/11/27
 11 12  0  0  0  0  0  0  0  0999 V2000
   12.3848   10.6931    8.7612 N   0  0  0  0  0  0  0  0  0  0  0  0
   12.3764    9.9663    7.6288 C   0  0  0  0  0  0  0  0  0  0  0  0
   12.7528    8.6316    7.6749 N   0  0  0  0  0  0  0  0  0  0  0  0
   12.0131   10.5035    6.4535 N   0  0  0  0  0  0  0  0  0  0  0  0
   11.6475   11.7916    6.3577 C   0  0  0  0  0  0  0  0  0  0  0  0
   11.6375   12.6006    7.5162 C   0  0  0  0  0  0  0  0  0  0  0  0
   12.0263   11.9949    8.7521 C   0  0  0  0  0  0  0  0  0  0  0  0
   12.0383   12.7215    9.9175 N   0  0  0  0  0  0  0  0  0  0  0  0
   11.2328   13.8459    7.1352 N   0  0  0  0  0  0  0  0  0  0  0  0
   11.0058   13.8486    5.8560 C   0  0  0  0  0  0  0  0  0  0  0  0
   11.2432   12.6048    5.3279 N   0  0  0  0  0  0  0  0  0  0  0  0
  1  7  2  0  0  0  0
  1  2  1  0  0  0  0
  2  3  1  0  0  0  0
  2  4  2  0  0  0  0
  4  5  1  0  0  0  0
  5  6  2  0  0  0  0
  5 11  1  0  0  0  0
  6  7  1  0  0  0  0
  6  9  1  0  0  0  0
  7  8  1  0  0  0  0
  9 10  1  0  0  0  0
 10 11  2  0  0  0  0
M  END
>  <CHROM.1>
11.85853199,11.72527566,7.41046205,-0.15773721,-1.25519936,0.98550928

>  <Name>
ligand

>  <RI>
0

>  <Rbt.Current_Directory>
/home/itssahil/PROJECTS/Mol_Feturizer/New_Systems/rnas/4FEO

>  <Rbt.Executable>
rbdock ($Id: //depot/dev/client3/rdock/2013.1/src/exe/rbdock.cxx#4 $)

>  <Rbt.Library>
libRbt.so (2013.1, Build901 2013/11/27)

>  <Rbt.Parameter_File>
/export/apps/rDock/src/rDock_2013.1_src/data/scripts/dock_solv.prm

>  <Rbt.Receptor>
prm/pocket_docking_6.prm

>  <SCORE>
-9.86594

>  <SCORE.INTER>
-9.86638

>  <SCORE.INTER.CONST>
1

>  <SCORE.INTER.POLAR>
0

>  <SCORE.INTER.ROT>
0

>  <SCORE.INTER.SOLV>
17.6298

>  <SCORE.INTER.VDW>
-16.0542

>  <SCORE.INTER.norm>
-0.896944

>  <SCORE.INTRA>
0

>  <SCORE.INTRA.DIHEDRAL>
0

>  <SCORE.INTRA.DIHEDRAL.0>
0

>  <SCORE.INTRA.POLAR>
0

>  <SCORE.INTRA.POLAR.0>
0

>  <SCORE.INTRA.REPUL>
0

>  <SCORE.INTRA.REPUL.0>
0

>  <SCORE.INTRA.SOLV>
0

>  <SCORE.INTRA.SOLV.lig_0>
-48.9252

>  <SCORE.INTRA.VDW>
0

>  <SCORE.INTRA.VDW.0>
0

>  <SCORE.INTRA.norm>
0

>  <SCORE.RESTR>
0.000437256

>  <SCORE.RESTR.CAVITY>
0.000437256

>  <SCORE.RESTR.norm>
3.97506e-05

>  <SCORE.SYSTEM>
0

>  <SCORE.SYSTEM.CONST>
0

>  <SCORE.SYSTEM.DIHEDRAL>
0

>  <SCORE.SYSTEM.SOLV>
0

>  <SCORE.SYSTEM.norm>
0

>  <SCORE.heavy>
11

>  <SCORE.norm>
-0.896904

>  <RMSD>
2.875

$$$$
ligand
 OpenBabel11021811493D
libRbt.so/2013.1/901 2013/11/27
 11 12  0  0  0  0  0  0  0  0999 V2000
   12.4662   10.7058    8.7437 N   0  0  0  0  0  0  0  0  0  0  0  0
   12.4342    9.9518    7.6296 C   0  0  0  0  0  0  0  0  0  0  0  0
   12.8369    8.6257    7.6944 N   0  0  0  0  0  0  0  0  0  0  0  0
   12.0223   10.4540    6.4548 N   0  0  0  0  0  0  0  0  0  0  0  0
   11.6296   11.7326    6.3411 C   0  0  0  0  0  0  0  0  0  0  0  0
   11.6425   12.5689    7.4800 C   0  0  0  0  0  0  0  0  0  0  0  0
   12.0832   12.0002    8.7160 C   0  0  0  0  0  0  0  0  0  0  0  0
   12.1200   12.7548    9.8631 N   0  0  0  0  0  0  0  0  0  0  0  0
   11.2021   13.7972    7.0836 N   0  0  0  0  0  0  0  0  0  0  0  0
   10.9330   13.7651    5.8130 C   0  0  0  0  0  0  0  0  0  0  0  0
   11.1763   12.5134    5.3066 N   0  0  0  0  0  0  0  0  0  0  0  0
  1  7  2  0  0  0  0
  1  2  1  0  0  0  0
  2  3  1  0  0  0  0
  2  4  2  0  0  0  0
  4  5  1  0  0  0  0
  5  6  2  0  0  0  0
  5 11  1  0  0  0  0
  6  7  1  0  0  0  0
  6  9  1  0  0  0  0
  7  8  1  0  0  0  0
  9 10  1  0  0  0  0
 10 11  2  0  0  0  0
M  END
>  <CHROM.1>
11.87638948,11.69544266,7.38748251,-0.20759959,-1.22088823,0.91461021

>  <Name>
ligand

>  <RI>
0

>  <Rbt.Current_Directory>
/home/itssahil/PROJECTS/Mol_Feturizer/New_Systems/rnas/4FEO

>  <Rbt.Executable>
rbdock ($Id: //depot/dev/client3/rdock/2013.1/src/exe/rbdock.cxx#4 $)

>  <Rbt.Library>
libRbt.so (2013.1, Build901 2013/11/27)

>  <Rbt.Parameter_File>
/export/apps/rDock/src/rDock_2013.1_src/data/scripts/dock_solv.prm

>  <Rbt.Receptor>
prm/pocket_docking_6.prm

>  <SCORE>
-9.86991

>  <SCORE.INTER>
-9.86991

>  <SCORE.INTER.CONST>
1

>  <SCORE.INTER.POLAR>
0

>  <SCORE.INTER.ROT>
0

>  <SCORE.INTER.SOLV>
17.178

>  <SCORE.INTER.VDW>
-15.9059

>  <SCORE.INTER.norm>
-0.897264

>  <SCORE.INTRA>
0

>  <SCORE.INTRA.DIHEDRAL>
0

>  <SCORE.INTRA.DIHEDRAL.0>
0

>  <SCORE.INTRA.POLAR>
0

>  <SCORE.INTRA.POLAR.0>
0

>  <SCORE.INTRA.REPUL>
0

>  <SCORE.INTRA.REPUL.0>
0

>  <SCORE.INTRA.SOLV>
0

>  <SCORE.INTRA.SOLV.lig_0>
-48.9252

>  <SCORE.INTRA.VDW>
0

>  <SCORE.INTRA.VDW.0>
0

>  <SCORE.INTRA.norm>
0

>  <SCORE.RESTR>
0

>  <SCORE.RESTR.CAVITY>
0

>  <SCORE.RESTR.norm>
0

>  <SCORE.SYSTEM>
0

>  <SCORE.SYSTEM.CONST>
0

>  <SCORE.SYSTEM.DIHEDRAL>
0

>  <SCORE.SYSTEM.SOLV>
0

>  <SCORE.SYSTEM.norm>
0

>  <SCORE.heavy>
11

>  <SCORE.norm>
-0.897264

>  <RMSD>
2.875

$$$$
ligand
 OpenBabel11021811493D
libRbt.so/2013.1/901 2013/11/27
 11 12  0  0  0  0  0  0  0  0999 V2000
   12.4747   10.7094    8.7362 N   0  0  0  0  0  0  0  0  0  0  0  0
   12.4358    9.9555    7.6223 C   0  0  0  0  0  0  0  0  0  0  0  0
   12.8384    8.6292    7.6847 N   0  0  0  0  0  0  0  0  0  0  0  0
   12.0171   10.4578    6.4500 N   0  0  0  0  0  0  0  0  0  0  0  0
   11.6242   11.7366    6.3386 C   0  0  0  0  0  0  0  0  0  0  0  0
   11.6442   12.5728    7.4775 C   0  0  0  0  0  0  0  0  0  0  0  0
   12.0920   12.0040    8.7108 C   0  0  0  0  0  0  0  0  0  0  0  0
   12.1358   12.7586    9.8576 N   0  0  0  0  0  0  0  0  0  0  0  0
   11.2019   13.8013    7.0836 N   0  0  0  0  0  0  0  0  0  0  0  0
   10.9253   13.7693    5.8146 C   0  0  0  0  0  0  0  0  0  0  0  0
   11.1651   12.5175    5.3068 N   0  0  0  0  0  0  0  0  0  0  0  0
  1  7  2  0  0  0  0
  1  2  1  0  0  0  0
  2  3  1  0  0  0  0
  2  4  2  0  0  0  0
  4  5  1  0  0  0  0
  5  6  2  0  0  0  0
  5 11  1  0  0  0  0
  6  7  1  0  0  0  0
  6  9  1  0  0  0  0
  7  8  1  0  0  0  0
  9 10  1  0  0  0  0
 10 11  2  0  0  0  0
M  END
>  <CHROM.1>
11.87720239,11.69929653,7.38351919,-0.22182924,-1.21753253,0.90124620

>  <Name>
ligand

>  <RI>
0

>  <Rbt.Current_Directory>
/home/itssahil/PROJECTS/Mol_Feturizer/New_Systems/rnas/4FEO

>  <Rbt.Executable>
rbdock ($Id: //depot/dev/client3/rdock/2013.1/src/exe/rbdock.cxx#4 $)

>  <Rbt.Library>
libRbt.so (2013.1, Build901 2013/11/27)

>  <Rbt.Parameter_File>
/export/apps/rDock/src/rDock_2013.1_src/data/scripts/dock_solv.prm

>  <Rbt.Receptor>
prm/pocket_docking_7.prm

>  <SCORE>
-9.87022

>  <SCORE.INTER>
-9.87022

>  <SCORE.INTER.CONST>
1

>  <SCORE.INTER.POLAR>
0

>  <SCORE.INTER.ROT>
0

>  <SCORE.INTER.SOLV>
17.1342

>  <SCORE.INTER.VDW>
-15.8915

>  <SCORE.INTER.norm>
-0.897293

>  <SCORE.INTRA>
0

>  <SCORE.INTRA.DIHEDRAL>
0

>  <SCORE.INTRA.DIHEDRAL.0>
0

>  <SCORE.INTRA.POLAR>
0

>  <SCORE.INTRA.POLAR.0>
0

>  <SCORE.INTRA.REPUL>
0

>  <SCORE.INTRA.REPUL.0>
0

>  <SCORE.INTRA.SOLV>
0

>  <SCORE.INTRA.SOLV.lig_0>
-48.9252

>  <SCORE.INTRA.VDW>
0

>  <SCORE.INTRA.VDW.0>
0

>  <SCORE.INTRA.norm>
0

>  <SCORE.RESTR>
0

>  <SCORE.RESTR.CAVITY>
0

>  <SCORE.RESTR.norm>
0

>  <SCORE.SYSTEM>
0

>  <SCORE.SYSTEM.CONST>
0

>  <SCORE.SYSTEM.DIHEDRAL>
0

>  <SCORE.SYSTEM.SOLV>
0

>  <SCORE.SYSTEM.norm>
0

>  <SCORE.heavy>
11

>  <SCORE.norm>
-0.897293

>  <RMSD>
2.875

$$$$
ligand
 OpenBabel11021811493D
libRbt.so/2013.1/901 2013/11/27
 11 12  0  0  0  0  0  0  0  0999 V2000
   12.5193   10.7145    8.7251 N   0  0  0  0  0  0  0  0  0  0  0  0
   12.4332    9.9489    7.6219 C   0  0  0  0  0  0  0  0  0  0  0  0
   12.8159    8.6168    7.6872 N   0  0  0  0  0  0  0  0  0  0  0  0
   11.9862   10.4449    6.4574 N   0  0  0  0  0  0  0  0  0  0  0  0
   11.6108   11.7287    6.3433 C   0  0  0  0  0  0  0  0  0  0  0  0
   11.6802   12.5773    7.4711 C   0  0  0  0  0  0  0  0  0  0  0  0
   12.1571   12.0149    8.6965 C   0  0  0  0  0  0  0  0  0  0  0  0
   12.2492   12.7814    9.8324 N   0  0  0  0  0  0  0  0  0  0  0  0
   11.2458   13.8085    7.0769 N   0  0  0  0  0  0  0  0  0  0  0  0
   10.9290   13.7668    5.8176 C   0  0  0  0  0  0  0  0  0  0  0  0
   11.1323   12.5056    5.3172 N   0  0  0  0  0  0  0  0  0  0  0  0
  1  7  2  0  0  0  0
  1  2  1  0  0  0  0
  2  3  1  0  0  0  0
  2  4  2  0  0  0  0
  4  5  1  0  0  0  0
  5  6  2  0  0  0  0
  5 11  1  0  0  0  0
  6  7  1  0  0  0  0
  6  9  1  0  0  0  0
  7  8  1  0  0  0  0
  9 10  1  0  0  0  0
 10 11  2  0  0  0  0
M  END
>  <CHROM.1>
11.89586249,11.69896000,7.38020286,-0.32008630,-1.20921559,0.79772860

>  <Name>
ligand

>  <RI>
0

>  <Rbt.Current_Directory>
/home/itssahil/PROJECTS/Mol_Feturizer/New_Systems/rnas/4FEO

>  <Rbt.Executable>
rbdock ($Id: //depot/dev/client3/rdock/2013.1/src/exe/rbdock.cxx#4 $)

>  <Rbt.Library>
libRbt.so (2013.1, Build901 2013/11/27)

>  <Rbt.Parameter_File>
/export/apps/rDock/src/rDock_2013.1_src/data/scripts/dock_solv.prm

>  <Rbt.Receptor>
prm/pocket_docking_6.prm

>  <SCORE>
-9.84241

>  <SCORE.INTER>
-9.84241

>  <SCORE.INTER.CONST>
1

>  <SCORE.INTER.POLAR>
0

>  <SCORE.INTER.ROT>
0

>  <SCORE.INTER.SOLV>
17.1328

>  <SCORE.INTER.VDW>
-15.8725

>  <SCORE.INTER.norm>
-0.894765

>  <SCORE.INTRA>
0

>  <SCORE.INTRA.DIHEDRAL>
0

>  <SCORE.INTRA.DIHEDRAL.0>
0

>  <SCORE.INTRA.POLAR>
0

>  <SCORE.INTRA.POLAR.0>
0

>  <SCORE.INTRA.REPUL>
0

>  <SCORE.INTRA.REPUL.0>
0

>  <SCORE.INTRA.SOLV>
0

>  <SCORE.INTRA.SOLV.lig_0>
-48.9252

>  <SCORE.INTRA.VDW>
0

>  <SCORE.INTRA.VDW.0>
0

>  <SCORE.INTRA.norm>
0

>  <SCORE.RESTR>
0

>  <SCORE.RESTR.CAVITY>
0

>  <SCORE.RESTR.norm>
0

>  <SCORE.SYSTEM>
0

>  <SCORE.SYSTEM.CONST>
0

>  <SCORE.SYSTEM.DIHEDRAL>
0

>  <SCORE.SYSTEM.SOLV>
0

>  <SCORE.SYSTEM.norm>
0

>  <SCORE.heavy>
11

>  <SCORE.norm>
-0.894765

>  <RMSD>
2.876

$$$$
ligand
 OpenBabel11021811493D
libRbt.so/2013.1/901 2013/11/27
 11 12  0  0  0  0  0  0  0  0999 V2000
   12.5350   10.7266    8.7072 N   0  0  0  0  0  0  0  0  0  0  0  0
   12.4520    9.9592    7.6050 C   0  0  0  0  0  0  0  0  0  0  0  0
   12.8518    8.6321    7.6689 N   0  0  0  0  0  0  0  0  0  0  0  0
   11.9920   10.4488    6.4428 N   0  0  0  0  0  0  0  0  0  0  0  0
   11.5998   11.7277    6.3301 C   0  0  0  0  0  0  0  0  0  0  0  0
   11.6651   12.5778    7.4570 C   0  0  0  0  0  0  0  0  0  0  0  0
   12.1564   12.0224    8.6798 C   0  0  0  0  0  0  0  0  0  0  0  0
   12.2455   12.7908    9.8147 N   0  0  0  0  0  0  0  0  0  0  0  0
   11.2131   13.8032    7.0645 N   0  0  0  0  0  0  0  0  0  0  0  0
   10.8894   13.7566    5.8071 C   0  0  0  0  0  0  0  0  0  0  0  0
   11.1055   12.4977    5.3064 N   0  0  0  0  0  0  0  0  0  0  0  0
  1  7  2  0  0  0  0
  1  2  1  0  0  0  0
  2  3  1  0  0  0  0
  2  4  2  0  0  0  0
  4  5  1  0  0  0  0
  5  6  2  0  0  0  0
  5 11  1  0  0  0  0
  6  7  1  0  0  0  0
  6  9  1  0  0  0  0
  7  8  1  0  0  0  0
  9 10  1  0  0  0  0
 10 11  2  0  0  0  0
M  END
>  <CHROM.1>
11.89130555,11.70222188,7.36533129,-0.30767487,-1.19608949,0.80862379

>  <Name>
ligand

>  <RI>
0

>  <Rbt.Current_Directory>
/home/itssahil/PROJECTS/Mol_Feturizer/New_Systems/rnas/4FEO

>  <Rbt.Executable>
rbdock ($Id: //depot/dev/client3/rdock/2013.1/src/exe/rbdock.cxx#4 $)

>  <Rbt.Library>
libRbt.so (2013.1, Build901 2013/11/27)

>  <Rbt.Parameter_File>
/export/apps/rDock/src/rDock_2013.1_src/data/scripts/dock_solv.prm

>  <Rbt.Receptor>
prm/pocket_docking_6.prm

>  <SCORE>
-9.83949

>  <SCORE.INTER>
-9.83949

>  <SCORE.INTER.CONST>
1

>  <SCORE.INTER.POLAR>
0

>  <SCORE.INTER.ROT>
0

>  <SCORE.INTER.SOLV>
16.9451

>  <SCORE.INTER.VDW>
-15.808

>  <SCORE.INTER.norm>
-0.894499

>  <SCORE.INTRA>
0

>  <SCORE.INTRA.DIHEDRAL>
0

>  <SCORE.INTRA.DIHEDRAL.0>
0

>  <SCORE.INTRA.POLAR>
0

>  <SCORE.INTRA.POLAR.0>
0

>  <SCORE.INTRA.REPUL>
0

>  <SCORE.INTRA.REPUL.0>
0

>  <SCORE.INTRA.SOLV>
0

>  <SCORE.INTRA.SOLV.lig_0>
-48.9252

>  <SCORE.INTRA.VDW>
0

>  <SCORE.INTRA.VDW.0>
0

>  <SCORE.INTRA.norm>
0

>  <SCORE.RESTR>
0

>  <SCORE.RESTR.CAVITY>
0

>  <SCORE.RESTR.norm>
0

>  <SCORE.SYSTEM>
0

>  <SCORE.SYSTEM.CONST>
0

>  <SCORE.SYSTEM.DIHEDRAL>
0

>  <SCORE.SYSTEM.SOLV>
0

>  <SCORE.SYSTEM.norm>
0

>  <SCORE.heavy>
11

>  <SCORE.norm>
-0.894499

>  <RMSD>
2.876

$$$$
ligand
 OpenBabel11021811493D
libRbt.so/2013.1/901 2013/11/27
 11 12  0  0  0  0  0  0  0  0999 V2000
   12.4619   10.7242    8.7247 N   0  0  0  0  0  0  0  0  0  0  0  0
   12.4068    9.9952    7.5950 C   0  0  0  0  0  0  0  0  0  0  0  0
   12.7842    8.6605    7.6281 N   0  0  0  0  0  0  0  0  0  0  0  0
   11.9960   10.5305    6.4345 N   0  0  0  0  0  0  0  0  0  0  0  0
   11.6273   11.8186    6.3513 C   0  0  0  0  0  0  0  0  0  0  0  0
   11.6650   12.6297    7.5078 C   0  0  0  0  0  0  0  0  0  0  0  0
   12.1038   12.0261    8.7278 C   0  0  0  0  0  0  0  0  0  0  0  0
   12.1638   12.7549    9.8904 N   0  0  0  0  0  0  0  0  0  0  0  0
   11.2456   13.8746    7.1413 N   0  0  0  0  0  0  0  0  0  0  0  0
   10.9665   13.8750    5.8724 C   0  0  0  0  0  0  0  0  0  0  0  0
   11.1815   12.6301    5.3374 N   0  0  0  0  0  0  0  0  0  0  0  0
  1  7  2  0  0  0  0
  1  2  1  0  0  0  0
  2  3  1  0  0  0  0
  2  4  2  0  0  0  0
  4  5  1  0  0  0  0
  5  6  2  0  0  0  0
  5 11  1  0  0  0  0
  6  7  1  0  0  0  0
  6  9  1  0  0  0  0
  7  8  1  0  0  0  0
  9 10  1  0  0  0  0
 10 11  2  0  0  0  0
M  END
>  <CHROM.1>
11.88120223,11.75408602,7.39470603,-0.26102922,-1.23126765,0.88583748

>  <Name>
ligand

>  <RI>
0

>  <Rbt.Current_Directory>
/home/itssahil/PROJECTS/Mol_Feturizer/New_Systems/rnas/4FEO

>  <Rbt.Executable>
rbdock ($Id: //depot/dev/client3/rdock/2013.1/src/exe/rbdock.cxx#4 $)

>  <Rbt.Library>
libRbt.so (2013.1, Build901 2013/11/27)

>  <Rbt.Parameter_File>
/export/apps/rDock/src/rDock_2013.1_src/data/scripts/dock_solv.prm

>  <Rbt.Receptor>
prm/pocket_docking_8.prm

>  <SCORE>
-9.90946

>  <SCORE.INTER>
-9.90946

>  <SCORE.INTER.CONST>
1

>  <SCORE.INTER.POLAR>
0

>  <SCORE.INTER.ROT>
0

>  <SCORE.INTER.SOLV>
17.3

>  <SCORE.INTER.VDW>
-15.973

>  <SCORE.INTER.norm>
-0.90086

>  <SCORE.INTRA>
0

>  <SCORE.INTRA.DIHEDRAL>
0

>  <SCORE.INTRA.DIHEDRAL.0>
0

>  <SCORE.INTRA.POLAR>
0

>  <SCORE.INTRA.POLAR.0>
0

>  <SCORE.INTRA.REPUL>
0

>  <SCORE.INTRA.REPUL.0>
0

>  <SCORE.INTRA.SOLV>
0

>  <SCORE.INTRA.SOLV.lig_0>
-48.9252

>  <SCORE.INTRA.VDW>
0

>  <SCORE.INTRA.VDW.0>
0

>  <SCORE.INTRA.norm>
0

>  <SCORE.RESTR>
0

>  <SCORE.RESTR.CAVITY>
0

>  <SCORE.RESTR.norm>
0

>  <SCORE.SYSTEM>
0

>  <SCORE.SYSTEM.CONST>
0

>  <SCORE.SYSTEM.DIHEDRAL>
0

>  <SCORE.SYSTEM.SOLV>
0

>  <SCORE.SYSTEM.norm>
0

>  <SCORE.heavy>
11

>  <SCORE.norm>
-0.90086

>  <RMSD>
2.876

$$$$
ligand
 OpenBabel11021811493D
libRbt.so/2013.1/901 2013/11/27
 11 12  0  0  0  0  0  0  0  0999 V2000
   12.4685   10.7053    8.7367 N   0  0  0  0  0  0  0  0  0  0  0  0
   12.4391    9.9574    7.6184 C   0  0  0  0  0  0  0  0  0  0  0  0
   12.8490    8.6331    7.6754 N   0  0  0  0  0  0  0  0  0  0  0  0
   12.0232   10.4638    6.4469 N   0  0  0  0  0  0  0  0  0  0  0  0
   11.6234   11.7409    6.3407 C   0  0  0  0  0  0  0  0  0  0  0  0
   11.6332   12.5709    7.4843 C   0  0  0  0  0  0  0  0  0  0  0  0
   12.0784   11.9978    8.7166 C   0  0  0  0  0  0  0  0  0  0  0  0
   12.1125   12.7462    9.8677 N   0  0  0  0  0  0  0  0  0  0  0  0
   11.1858   13.7990    7.0951 N   0  0  0  0  0  0  0  0  0  0  0  0
   10.9153   13.7724    5.8247 C   0  0  0  0  0  0  0  0  0  0  0  0
   11.1646   12.5249    5.3111 N   0  0  0  0  0  0  0  0  0  0  0  0
  1  7  2  0  0  0  0
  1  2  1  0  0  0  0
  2  3  1  0  0  0  0
  2  4  2  0  0  0  0
  4  5  1  0  0  0  0
  5  6  2  0  0  0  0
  5 11  1  0  0  0  0
  6  7  1  0  0  0  0
  6  9  1  0  0  0  0
  7  8  1  0  0  0  0
  9 10  1  0  0  0  0
 10 11  2  0  0  0  0
M  END
>  <CHROM.1>
11.87167083,11.69926043,7.38660585,-0.20091224,-1.21588726,0.92640798

>  <Name>
ligand

>  <RI>
0

>  <Rbt.Current_Directory>
/home/itssahil/PROJECTS/Mol_Feturizer/New_Systems/rnas/4FEO

>  <Rbt.Executable>
rbdock ($Id: //depot/dev/client3/rdock/2013.1/src/exe/rbdock.cxx#4 $)

>  <Rbt.Library>
libRbt.so (2013.1, Build901 2013/11/27)

>  <Rbt.Parameter_File>
/export/apps/rDock/src/rDock_2013.1_src/data/scripts/dock_solv.prm

>  <Rbt.Receptor>
prm/pocket_docking_8.prm

>  <SCORE>
-9.85903

>  <SCORE.INTER>
-9.85903

>  <SCORE.INTER.CONST>
1

>  <SCORE.INTER.POLAR>
0

>  <SCORE.INTER.ROT>
0

>  <SCORE.INTER.SOLV>
17.0953

>  <SCORE.INTER.VDW>
-15.8711

>  <SCORE.INTER.norm>
-0.896276

>  <SCORE.INTRA>
0

>  <SCORE.INTRA.DIHEDRAL>
0

>  <SCORE.INTRA.DIHEDRAL.0>
0

>  <SCORE.INTRA.POLAR>
0

>  <SCORE.INTRA.POLAR.0>
0

>  <SCORE.INTRA.REPUL>
0

>  <SCORE.INTRA.REPUL.0>
0

>  <SCORE.INTRA.SOLV>
0

>  <SCORE.INTRA.SOLV.lig_0>
-48.9252

>  <SCORE.INTRA.VDW>
0

>  <SCORE.INTRA.VDW.0>
0

>  <SCORE.INTRA.norm>
0

>  <SCORE.RESTR>
0

>  <SCORE.RESTR.CAVITY>
0

>  <SCORE.RESTR.norm>
0

>  <SCORE.SYSTEM>
0

>  <SCORE.SYSTEM.CONST>
0

>  <SCORE.SYSTEM.DIHEDRAL>
0

>  <SCORE.SYSTEM.SOLV>
0

>  <SCORE.SYSTEM.norm>
0

>  <SCORE.heavy>
11

>  <SCORE.norm>
-0.896276

>  <RMSD>
2.876

$$$$
ligand
 OpenBabel11021811493D
libRbt.so/2013.1/901 2013/11/27
 11 12  0  0  0  0  0  0  0  0999 V2000
   12.1449   10.7020    8.7003 N   0  0  0  0  0  0  0  0  0  0  0  0
   12.3383    9.8327    7.6916 C   0  0  0  0  0  0  0  0  0  0  0  0
   12.8357    8.5678    7.9702 N   0  0  0  0  0  0  0  0  0  0  0  0
   12.0622   10.1617    6.4198 N   0  0  0  0  0  0  0  0  0  0  0  0
   11.5857   11.3754    6.1002 C   0  0  0  0  0  0  0  0  0  0  0  0
   11.3630   12.3269    7.1208 C   0  0  0  0  0  0  0  0  0  0  0  0
   11.6642   11.9416    8.4647 C   0  0  0  0  0  0  0  0  0  0  0  0
   11.4705   12.8155    9.5064 N   0  0  0  0  0  0  0  0  0  0  0  0
   10.8850   13.4555    6.5227 N   0  0  0  0  0  0  0  0  0  0  0  0
   10.8078   13.2598    5.2407 C   0  0  0  0  0  0  0  0  0  0  0  0
   11.2252   11.9910    4.9270 N   0  0  0  0  0  0  0  0  0  0  0  0
  1  7  2  0  0  0  0
  1  2  1  0  0  0  0
  2  3  1  0  0  0  0
  2  4  2  0  0  0  0
  4  5  1  0  0  0  0
  5  6  2  0  0  0  0
  5 11  1  0  0  0  0
  6  7  1  0  0  0  0
  6  9  1  0  0  0  0
  7  8  1  0  0  0  0
  9 10  1  0  0  0  0
 10 11  2  0  0  0  0
M  END
>  <CHROM.1>
11.67939900,11.47607489,7.16706780,0.27655809,-1.20577784,1.25369355

>  <Name>
ligand

>  <RI>
0

>  <Rbt.Current_Directory>
/home/itssahil/PROJECTS/Mol_Feturizer/New_Systems/rnas/4FEO

>  <Rbt.Executable>
rbdock ($Id: //depot/dev/client3/rdock/2013.1/src/exe/rbdock.cxx#4 $)

>  <Rbt.Library>
libRbt.so (2013.1, Build901 2013/11/27)

>  <Rbt.Parameter_File>
/export/apps/rDock/src/rDock_2013.1_src/data/scripts/dock_solv.prm

>  <Rbt.Receptor>
prm/blind_docking_20.prm

>  <SCORE>
-7.91405

>  <SCORE.INTER>
-8.45039

>  <SCORE.INTER.CONST>
1

>  <SCORE.INTER.POLAR>
0

>  <SCORE.INTER.ROT>
0

>  <SCORE.INTER.SOLV>
17.9973

>  <SCORE.INTER.VDW>
-15.2327

>  <SCORE.INTER.norm>
-0.768217

>  <SCORE.INTRA>
0

>  <SCORE.INTRA.DIHEDRAL>
0

>  <SCORE.INTRA.DIHEDRAL.0>
0

>  <SCORE.INTRA.POLAR>
0

>  <SCORE.INTRA.POLAR.0>
0

>  <SCORE.INTRA.REPUL>
0

>  <SCORE.INTRA.REPUL.0>
0

>  <SCORE.INTRA.SOLV>
0

>  <SCORE.INTRA.SOLV.lig_0>
-48.9252

>  <SCORE.INTRA.VDW>
0

>  <SCORE.INTRA.VDW.0>
0

>  <SCORE.INTRA.norm>
0

>  <SCORE.RESTR>
0.536343

>  <SCORE.RESTR.CAVITY>
0.536343

>  <SCORE.RESTR.norm>
0.0487585

>  <SCORE.SYSTEM>
0

>  <SCORE.SYSTEM.CONST>
0

>  <SCORE.SYSTEM.DIHEDRAL>
0

>  <SCORE.SYSTEM.SOLV>
0

>  <SCORE.SYSTEM.norm>
0

>  <SCORE.heavy>
11

>  <SCORE.norm>
-0.719459

>  <RMSD>
2.877

$$$$
ligand
 OpenBabel11021811493D
libRbt.so/2013.1/901 2013/11/27
 11 12  0  0  0  0  0  0  0  0999 V2000
   12.4657   10.7227    8.7235 N   0  0  0  0  0  0  0  0  0  0  0  0
   12.4112    9.9945    7.5932 C   0  0  0  0  0  0  0  0  0  0  0  0
   12.7899    8.6601    7.6254 N   0  0  0  0  0  0  0  0  0  0  0  0
   11.9998   10.5302    6.4332 N   0  0  0  0  0  0  0  0  0  0  0  0
   11.6299   11.8180    6.3510 C   0  0  0  0  0  0  0  0  0  0  0  0
   11.6669   12.6283    7.5081 C   0  0  0  0  0  0  0  0  0  0  0  0
   12.1064   12.0243    8.7276 C   0  0  0  0  0  0  0  0  0  0  0  0
   12.1659   12.7522    9.8907 N   0  0  0  0  0  0  0  0  0  0  0  0
   11.2463   13.8730    7.1425 N   0  0  0  0  0  0  0  0  0  0  0  0
   10.9670   13.8741    5.8736 C   0  0  0  0  0  0  0  0  0  0  0  0
   11.1832   12.6298    5.3377 N   0  0  0  0  0  0  0  0  0  0  0  0
  1  7  2  0  0  0  0
  1  2  1  0  0  0  0
  2  3  1  0  0  0  0
  2  4  2  0  0  0  0
  4  5  1  0  0  0  0
  5  6  2  0  0  0  0
  5 11  1  0  0  0  0
  6  7  1  0  0  0  0
  6  9  1  0  0  0  0
  7  8  1  0  0  0  0
  9 10  1  0  0  0  0
 10 11  2  0  0  0  0
M  END
>  <CHROM.1>
11.88390527,11.75299943,7.39428715,-0.25946701,-1.23045793,0.88802949

>  <Name>
ligand

>  <RI>
0

>  <Rbt.Current_Directory>
/home/itssahil/PROJECTS/Mol_Feturizer/New_Systems/rnas/4FEO

>  <Rbt.Executable>
rbdock ($Id: //depot/dev/client3/rdock/2013.1/src/exe/rbdock.cxx#4 $)

>  <Rbt.Library>
libRbt.so (2013.1, Build901 2013/11/27)

>  <Rbt.Parameter_File>
/export/apps/rDock/src/rDock_2013.1_src/data/scripts/dock_solv.prm

>  <Rbt.Receptor>
prm/blind_docking_60.prm

>  <SCORE>
-9.9115

>  <SCORE.INTER>
-9.9115

>  <SCORE.INTER.CONST>
1

>  <SCORE.INTER.POLAR>
0

>  <SCORE.INTER.ROT>
0

>  <SCORE.INTER.SOLV>
17.2716

>  <SCORE.INTER.VDW>
-15.9649

>  <SCORE.INTER.norm>
-0.901045

>  <SCORE.INTRA>
0

>  <SCORE.INTRA.DIHEDRAL>
0

>  <SCORE.INTRA.DIHEDRAL.0>
0

>  <SCORE.INTRA.POLAR>
0

>  <SCORE.INTRA.POLAR.0>
0

>  <SCORE.INTRA.REPUL>
0

>  <SCORE.INTRA.REPUL.0>
0

>  <SCORE.INTRA.SOLV>
0

>  <SCORE.INTRA.SOLV.lig_0>
-48.9252

>  <SCORE.INTRA.VDW>
0

>  <SCORE.INTRA.VDW.0>
0

>  <SCORE.INTRA.norm>
0

>  <SCORE.RESTR>
0

>  <SCORE.RESTR.CAVITY>
0

>  <SCORE.RESTR.norm>
0

>  <SCORE.SYSTEM>
0

>  <SCORE.SYSTEM.CONST>
0

>  <SCORE.SYSTEM.DIHEDRAL>
0

>  <SCORE.SYSTEM.SOLV>
0

>  <SCORE.SYSTEM.norm>
0

>  <SCORE.heavy>
11

>  <SCORE.norm>
-0.901045

>  <RMSD>
2.877

$$$$
ligand
 OpenBabel11021811493D
libRbt.so/2013.1/901 2013/11/27
 11 12  0  0  0  0  0  0  0  0999 V2000
   12.4705   10.7247    8.7210 N   0  0  0  0  0  0  0  0  0  0  0  0
   12.4091    9.9945    7.5924 C   0  0  0  0  0  0  0  0  0  0  0  0
   12.7858    8.6595    7.6251 N   0  0  0  0  0  0  0  0  0  0  0  0
   11.9926   10.5287    6.4335 N   0  0  0  0  0  0  0  0  0  0  0  0
   11.6243   11.8169    6.3508 C   0  0  0  0  0  0  0  0  0  0  0  0
   11.6685   12.6293    7.5061 C   0  0  0  0  0  0  0  0  0  0  0  0
   12.1133   12.0268    8.7245 C   0  0  0  0  0  0  0  0  0  0  0  0
   12.1799   12.7568    9.8860 N   0  0  0  0  0  0  0  0  0  0  0  0
   11.2480   13.8740    7.1404 N   0  0  0  0  0  0  0  0  0  0  0  0
   10.9622   13.8732    5.8730 C   0  0  0  0  0  0  0  0  0  0  0  0
   11.1737   12.6276    5.3383 N   0  0  0  0  0  0  0  0  0  0  0  0
  1  7  2  0  0  0  0
  1  2  1  0  0  0  0
  2  3  1  0  0  0  0
  2  4  2  0  0  0  0
  4  5  1  0  0  0  0
  5  6  2  0  0  0  0
  5 11  1  0  0  0  0
  6  7  1  0  0  0  0
  6  9  1  0  0  0  0
  7  8  1  0  0  0  0
  9 10  1  0  0  0  0
 10 11  2  0  0  0  0
M  END
>  <CHROM.1>
11.88357793,11.75344166,7.39288959,-0.27423242,-1.22841410,0.87227440

>  <Name>
ligand

>  <RI>
0

>  <Rbt.Current_Directory>
/home/itssahil/PROJECTS/Mol_Feturizer/New_Systems/rnas/4FEO

>  <Rbt.Executable>
rbdock ($Id: //depot/dev/client3/rdock/2013.1/src/exe/rbdock.cxx#4 $)

>  <Rbt.Library>
libRbt.so (2013.1, Build901 2013/11/27)

>  <Rbt.Parameter_File>
/export/apps/rDock/src/rDock_2013.1_src/data/scripts/dock_solv.prm

>  <Rbt.Receptor>
prm/blind_docking_80.prm

>  <SCORE>
-9.90711

>  <SCORE.INTER>
-9.90711

>  <SCORE.INTER.CONST>
1

>  <SCORE.INTER.POLAR>
0

>  <SCORE.INTER.ROT>
0

>  <SCORE.INTER.SOLV>
17.2689

>  <SCORE.INTER.VDW>
-15.961

>  <SCORE.INTER.norm>
-0.900647

>  <SCORE.INTRA>
0

>  <SCORE.INTRA.DIHEDRAL>
0

>  <SCORE.INTRA.DIHEDRAL.0>
0

>  <SCORE.INTRA.POLAR>
0

>  <SCORE.INTRA.POLAR.0>
0

>  <SCORE.INTRA.REPUL>
0

>  <SCORE.INTRA.REPUL.0>
0

>  <SCORE.INTRA.SOLV>
0

>  <SCORE.INTRA.SOLV.lig_0>
-48.9252

>  <SCORE.INTRA.VDW>
0

>  <SCORE.INTRA.VDW.0>
0

>  <SCORE.INTRA.norm>
0

>  <SCORE.RESTR>
0

>  <SCORE.RESTR.CAVITY>
0

>  <SCORE.RESTR.norm>
0

>  <SCORE.SYSTEM>
0

>  <SCORE.SYSTEM.CONST>
0

>  <SCORE.SYSTEM.DIHEDRAL>
0

>  <SCORE.SYSTEM.SOLV>
0

>  <SCORE.SYSTEM.norm>
0

>  <SCORE.heavy>
11

>  <SCORE.norm>
-0.900647

>  <RMSD>
2.877

$$$$
ligand
 OpenBabel11021811493D
libRbt.so/2013.1/901 2013/11/27
 11 12  0  0  0  0  0  0  0  0999 V2000
   12.4611   10.7210    8.7235 N   0  0  0  0  0  0  0  0  0  0  0  0
   12.4001    9.9921    7.5940 C   0  0  0  0  0  0  0  0  0  0  0  0
   12.7720    8.6558    7.6265 N   0  0  0  0  0  0  0  0  0  0  0  0
   11.9886   10.5287    6.4345 N   0  0  0  0  0  0  0  0  0  0  0  0
   11.6250   11.8184    6.3520 C   0  0  0  0  0  0  0  0  0  0  0  0
   11.6690   12.6295    7.5082 C   0  0  0  0  0  0  0  0  0  0  0  0
   12.1084   12.0244    8.7272 C   0  0  0  0  0  0  0  0  0  0  0  0
   12.1744   12.7532    9.8895 N   0  0  0  0  0  0  0  0  0  0  0  0
   11.2539   13.8760    7.1424 N   0  0  0  0  0  0  0  0  0  0  0  0
   10.9714   13.8774    5.8743 C   0  0  0  0  0  0  0  0  0  0  0  0
   11.1800   12.6315    5.3390 N   0  0  0  0  0  0  0  0  0  0  0  0
  1  7  2  0  0  0  0
  1  2  1  0  0  0  0
  2  3  1  0  0  0  0
  2  4  2  0  0  0  0
  4  5  1  0  0  0  0
  5  6  2  0  0  0  0
  5 11  1  0  0  0  0
  6  7  1  0  0  0  0
  6  9  1  0  0  0  0
  7  8  1  0  0  0  0
  9 10  1  0  0  0  0
 10 11  2  0  0  0  0
M  END
>  <CHROM.1>
11.88128039,11.75302590,7.39470042,-0.27485744,-1.23283059,0.87257147

>  <Name>
ligand

>  <RI>
0

>  <Rbt.Current_Directory>
/home/itssahil/PROJECTS/Mol_Feturizer/New_Systems/rnas/4FEO

>  <Rbt.Executable>
rbdock ($Id: //depot/dev/client3/rdock/2013.1/src/exe/rbdock.cxx#4 $)

>  <Rbt.Library>
libRbt.so (2013.1, Build901 2013/11/27)

>  <Rbt.Parameter_File>
/export/apps/rDock/src/rDock_2013.1_src/data/scripts/dock_solv.prm

>  <Rbt.Receptor>
prm/pocket_docking_5.prm

>  <SCORE>
-9.91201

>  <SCORE.INTER>
-9.91201

>  <SCORE.INTER.CONST>
1

>  <SCORE.INTER.POLAR>
0

>  <SCORE.INTER.ROT>
0

>  <SCORE.INTER.SOLV>
17.3254

>  <SCORE.INTER.VDW>
-15.9831

>  <SCORE.INTER.norm>
-0.901092

>  <SCORE.INTRA>
0

>  <SCORE.INTRA.DIHEDRAL>
0

>  <SCORE.INTRA.DIHEDRAL.0>
0

>  <SCORE.INTRA.POLAR>
0

>  <SCORE.INTRA.POLAR.0>
0

>  <SCORE.INTRA.REPUL>
0

>  <SCORE.INTRA.REPUL.0>
0

>  <SCORE.INTRA.SOLV>
0

>  <SCORE.INTRA.SOLV.lig_0>
-48.9252

>  <SCORE.INTRA.VDW>
0

>  <SCORE.INTRA.VDW.0>
0

>  <SCORE.INTRA.norm>
0

>  <SCORE.RESTR>
0

>  <SCORE.RESTR.CAVITY>
0

>  <SCORE.RESTR.norm>
0

>  <SCORE.SYSTEM>
0

>  <SCORE.SYSTEM.CONST>
0

>  <SCORE.SYSTEM.DIHEDRAL>
0

>  <SCORE.SYSTEM.SOLV>
0

>  <SCORE.SYSTEM.norm>
0

>  <SCORE.heavy>
11

>  <SCORE.norm>
-0.901092

>  <RMSD>
2.877

$$$$
ligand
 OpenBabel11021811493D
libRbt.so/2013.1/901 2013/11/27
 11 12  0  0  0  0  0  0  0  0999 V2000
   12.4629   10.7213    8.7221 N   0  0  0  0  0  0  0  0  0  0  0  0
   12.4054    9.9929    7.5921 C   0  0  0  0  0  0  0  0  0  0  0  0
   12.7808    8.6576    7.6242 N   0  0  0  0  0  0  0  0  0  0  0  0
   11.9940   10.5292    6.4324 N   0  0  0  0  0  0  0  0  0  0  0  0
   11.6271   11.8179    6.3502 C   0  0  0  0  0  0  0  0  0  0  0  0
   11.6675   12.6285    7.5070 C   0  0  0  0  0  0  0  0  0  0  0  0
   12.1069   12.0237    8.7262 C   0  0  0  0  0  0  0  0  0  0  0  0
   12.1694   12.7519    9.8890 N   0  0  0  0  0  0  0  0  0  0  0  0
   11.2495   13.8741    7.1415 N   0  0  0  0  0  0  0  0  0  0  0  0
   10.9688   13.8755    5.8730 C   0  0  0  0  0  0  0  0  0  0  0  0
   11.1813   12.6305    5.3371 N   0  0  0  0  0  0  0  0  0  0  0  0
  1  7  2  0  0  0  0
  1  2  1  0  0  0  0
  2  3  1  0  0  0  0
  2  4  2  0  0  0  0
  4  5  1  0  0  0  0
  5  6  2  0  0  0  0
  5 11  1  0  0  0  0
  6  7  1  0  0  0  0
  6  9  1  0  0  0  0
  7  8  1  0  0  0  0
  9 10  1  0  0  0  0
 10 11  2  0  0  0  0
M  END
>  <CHROM.1>
11.88217645,11.75260994,7.39323240,-0.26675861,-1.23164731,0.88085513

>  <Name>
ligand

>  <RI>
0

>  <Rbt.Current_Directory>
/home/itssahil/PROJECTS/Mol_Feturizer/New_Systems/rnas/4FEO

>  <Rbt.Executable>
rbdock ($Id: //depot/dev/client3/rdock/2013.1/src/exe/rbdock.cxx#4 $)

>  <Rbt.Library>
libRbt.so (2013.1, Build901 2013/11/27)

>  <Rbt.Parameter_File>
/export/apps/rDock/src/rDock_2013.1_src/data/scripts/dock_solv.prm

>  <Rbt.Receptor>
prm/pocket_docking_8.prm

>  <SCORE>
-9.91265

>  <SCORE.INTER>
-9.91265

>  <SCORE.INTER.CONST>
1

>  <SCORE.INTER.POLAR>
0

>  <SCORE.INTER.ROT>
0

>  <SCORE.INTER.SOLV>
17.2924

>  <SCORE.INTER.VDW>
-15.9726

>  <SCORE.INTER.norm>
-0.90115

>  <SCORE.INTRA>
0

>  <SCORE.INTRA.DIHEDRAL>
0

>  <SCORE.INTRA.DIHEDRAL.0>
0

>  <SCORE.INTRA.POLAR>
0

>  <SCORE.INTRA.POLAR.0>
0

>  <SCORE.INTRA.REPUL>
0

>  <SCORE.INTRA.REPUL.0>
0

>  <SCORE.INTRA.SOLV>
0

>  <SCORE.INTRA.SOLV.lig_0>
-48.9252

>  <SCORE.INTRA.VDW>
0

>  <SCORE.INTRA.VDW.0>
0

>  <SCORE.INTRA.norm>
0

>  <SCORE.RESTR>
0

>  <SCORE.RESTR.CAVITY>
0

>  <SCORE.RESTR.norm>
0

>  <SCORE.SYSTEM>
0

>  <SCORE.SYSTEM.CONST>
0

>  <SCORE.SYSTEM.DIHEDRAL>
0

>  <SCORE.SYSTEM.SOLV>
0

>  <SCORE.SYSTEM.norm>
0

>  <SCORE.heavy>
11

>  <SCORE.norm>
-0.90115

>  <RMSD>
2.877

$$$$
ligand
 OpenBabel11021811493D
libRbt.so/2013.1/901 2013/11/27
 11 12  0  0  0  0  0  0  0  0999 V2000
   12.5017   10.7409    8.7141 N   0  0  0  0  0  0  0  0  0  0  0  0
   12.4580   10.0127    7.5834 C   0  0  0  0  0  0  0  0  0  0  0  0
   12.8594    8.6849    7.6139 N   0  0  0  0  0  0  0  0  0  0  0  0
   12.0358   10.5422    6.4243 N   0  0  0  0  0  0  0  0  0  0  0  0
   11.6438   11.8236    6.3437 C   0  0  0  0  0  0  0  0  0  0  0  0
   11.6687   12.6335    7.5013 C   0  0  0  0  0  0  0  0  0  0  0  0
   12.1203   12.0361    8.7197 C   0  0  0  0  0  0  0  0  0  0  0  0
   12.1691   12.7641    9.8833 N   0  0  0  0  0  0  0  0  0  0  0  0
   11.2264   13.8711    7.1373 N   0  0  0  0  0  0  0  0  0  0  0  0
   10.9452   13.8684    5.8689 C   0  0  0  0  0  0  0  0  0  0  0  0
   11.1818   12.6284    5.3317 N   0  0  0  0  0  0  0  0  0  0  0  0
  1  7  2  0  0  0  0
  1  2  1  0  0  0  0
  2  3  1  0  0  0  0
  2  4  2  0  0  0  0
  4  5  1  0  0  0  0
  5  6  2  0  0  0  0
  5 11  1  0  0  0  0
  6  7  1  0  0  0  0
  6  9  1  0  0  0  0
  7  8  1  0  0  0  0
  9 10  1  0  0  0  0
 10 11  2  0  0  0  0
M  END
>  <CHROM.1>
11.90046679,11.76211249,7.38657115,-0.23179337,-1.21614715,0.91481499

>  <Name>
ligand

>  <RI>
0

>  <Rbt.Current_Directory>
/home/itssahil/PROJECTS/Mol_Feturizer/New_Systems/rnas/4FEO

>  <Rbt.Executable>
rbdock ($Id: //depot/dev/client3/rdock/2013.1/src/exe/rbdock.cxx#4 $)

>  <Rbt.Library>
libRbt.so (2013.1, Build901 2013/11/27)

>  <Rbt.Parameter_File>
/export/apps/rDock/src/rDock_2013.1_src/data/scripts/dock_solv.prm

>  <Rbt.Receptor>
prm/pocket_docking_6.prm

>  <SCORE>
-9.88363

>  <SCORE.INTER>
-9.88363

>  <SCORE.INTER.CONST>
1

>  <SCORE.INTER.POLAR>
0

>  <SCORE.INTER.ROT>
0

>  <SCORE.INTER.SOLV>
17.0179

>  <SCORE.INTER.VDW>
-15.8617

>  <SCORE.INTER.norm>
-0.898512

>  <SCORE.INTRA>
0

>  <SCORE.INTRA.DIHEDRAL>
0

>  <SCORE.INTRA.DIHEDRAL.0>
0

>  <SCORE.INTRA.POLAR>
0

>  <SCORE.INTRA.POLAR.0>
0

>  <SCORE.INTRA.REPUL>
0

>  <SCORE.INTRA.REPUL.0>
0

>  <SCORE.INTRA.SOLV>
0

>  <SCORE.INTRA.SOLV.lig_0>
-48.9252

>  <SCORE.INTRA.VDW>
0

>  <SCORE.INTRA.VDW.0>
0

>  <SCORE.INTRA.norm>
0

>  <SCORE.RESTR>
0

>  <SCORE.RESTR.CAVITY>
0

>  <SCORE.RESTR.norm>
0

>  <SCORE.SYSTEM>
0

>  <SCORE.SYSTEM.CONST>
0

>  <SCORE.SYSTEM.DIHEDRAL>
0

>  <SCORE.SYSTEM.SOLV>
0

>  <SCORE.SYSTEM.norm>
0

>  <SCORE.heavy>
11

>  <SCORE.norm>
-0.898512

>  <RMSD>
2.878

$$$$
ligand
 OpenBabel11021811493D
libRbt.so/2013.1/901 2013/11/27
 11 12  0  0  0  0  0  0  0  0999 V2000
   12.0819   10.6891    8.6863 N   0  0  0  0  0  0  0  0  0  0  0  0
   12.2436    9.8287    7.6644 C   0  0  0  0  0  0  0  0  0  0  0  0
   12.6982    8.5436    7.9232 N   0  0  0  0  0  0  0  0  0  0  0  0
   11.9763   10.1857    6.3982 N   0  0  0  0  0  0  0  0  0  0  0  0
   11.5408   11.4194    6.0976 C   0  0  0  0  0  0  0  0  0  0  0  0
   11.3526   12.3628    7.1327 C   0  0  0  0  0  0  0  0  0  0  0  0
   11.6431   11.9477    8.4700 C   0  0  0  0  0  0  0  0  0  0  0  0
   11.4814   12.8122    9.5249 N   0  0  0  0  0  0  0  0  0  0  0  0
   10.9121   13.5157    6.5524 N   0  0  0  0  0  0  0  0  0  0  0  0
   10.8258   13.3417    5.2678 C   0  0  0  0  0  0  0  0  0  0  0  0
   11.1991   12.0642    4.9345 N   0  0  0  0  0  0  0  0  0  0  0  0
  1  7  2  0  0  0  0
  1  2  1  0  0  0  0
  2  3  1  0  0  0  0
  2  4  2  0  0  0  0
  4  5  1  0  0  0  0
  5  6  2  0  0  0  0
  5 11  1  0  0  0  0
  6  7  1  0  0  0  0
  6  9  1  0  0  0  0
  7  8  1  0  0  0  0
  9 10  1  0  0  0  0
 10 11  2  0  0  0  0
M  END
>  <CHROM.1>
11.63996645,11.50110310,7.16567311,0.23837558,-1.23728502,1.23253359

>  <Name>
ligand

>  <RI>
0

>  <Rbt.Current_Directory>
/home/itssahil/PROJECTS/Mol_Feturizer/New_Systems/rnas/4FEO

>  <Rbt.Executable>
rbdock ($Id: //depot/dev/client3/rdock/2013.1/src/exe/rbdock.cxx#4 $)

>  <Rbt.Library>
libRbt.so (2013.1, Build901 2013/11/27)

>  <Rbt.Parameter_File>
/export/apps/rDock/src/rDock_2013.1_src/data/scripts/dock_solv.prm

>  <Rbt.Receptor>
prm/blind_docking_20.prm

>  <SCORE>
-7.9517

>  <SCORE.INTER>
-8.50315

>  <SCORE.INTER.CONST>
1

>  <SCORE.INTER.POLAR>
0

>  <SCORE.INTER.ROT>
0

>  <SCORE.INTER.SOLV>
18.2834

>  <SCORE.INTER.VDW>
-15.3632

>  <SCORE.INTER.norm>
-0.773013

>  <SCORE.INTRA>
0

>  <SCORE.INTRA.DIHEDRAL>
0

>  <SCORE.INTRA.DIHEDRAL.0>
0

>  <SCORE.INTRA.POLAR>
0

>  <SCORE.INTRA.POLAR.0>
0

>  <SCORE.INTRA.REPUL>
0

>  <SCORE.INTRA.REPUL.0>
0

>  <SCORE.INTRA.SOLV>
0

>  <SCORE.INTRA.SOLV.lig_0>
-48.9252

>  <SCORE.INTRA.VDW>
0

>  <SCORE.INTRA.VDW.0>
0

>  <SCORE.INTRA.norm>
0

>  <SCORE.RESTR>
0.551448

>  <SCORE.RESTR.CAVITY>
0.551448

>  <SCORE.RESTR.norm>
0.0501316

>  <SCORE.SYSTEM>
0

>  <SCORE.SYSTEM.CONST>
0

>  <SCORE.SYSTEM.DIHEDRAL>
0

>  <SCORE.SYSTEM.SOLV>
0

>  <SCORE.SYSTEM.norm>
0

>  <SCORE.heavy>
11

>  <SCORE.norm>
-0.722882

>  <RMSD>
2.880

$$$$
ligand
 OpenBabel11021811493D
libRbt.so/2013.1/901 2013/11/27
 11 12  0  0  0  0  0  0  0  0999 V2000
   12.5211   10.7398    8.7063 N   0  0  0  0  0  0  0  0  0  0  0  0
   12.4751   10.0125    7.5751 C   0  0  0  0  0  0  0  0  0  0  0  0
   12.8859    8.6875    7.6016 N   0  0  0  0  0  0  0  0  0  0  0  0
   12.0418   10.5402    6.4194 N   0  0  0  0  0  0  0  0  0  0  0  0
   11.6405   11.8190    6.3426 C   0  0  0  0  0  0  0  0  0  0  0  0
   11.6672   12.6279    7.5009 C   0  0  0  0  0  0  0  0  0  0  0  0
   12.1307   12.0324    8.7158 C   0  0  0  0  0  0  0  0  0  0  0  0
   12.1819   12.7595    9.8798 N   0  0  0  0  0  0  0  0  0  0  0  0
   11.2140   13.8628    7.1411 N   0  0  0  0  0  0  0  0  0  0  0  0
   10.9247   13.8594    5.8745 C   0  0  0  0  0  0  0  0  0  0  0  0
   11.1664   12.6216    5.3344 N   0  0  0  0  0  0  0  0  0  0  0  0
  1  7  2  0  0  0  0
  1  2  1  0  0  0  0
  2  3  1  0  0  0  0
  2  4  2  0  0  0  0
  4  5  1  0  0  0  0
  5  6  2  0  0  0  0
  5 11  1  0  0  0  0
  6  7  1  0  0  0  0
  6  9  1  0  0  0  0
  7  8  1  0  0  0  0
  9 10  1  0  0  0  0
 10 11  2  0  0  0  0
M  END
>  <CHROM.1>
11.90423577,11.75820541,7.38374570,-0.23419074,-1.20674854,0.91361919

>  <Name>
ligand

>  <RI>
0

>  <Rbt.Current_Directory>
/home/itssahil/PROJECTS/Mol_Feturizer/New_Systems/rnas/4FEO

>  <Rbt.Executable>
rbdock ($Id: //depot/dev/client3/rdock/2013.1/src/exe/rbdock.cxx#4 $)

>  <Rbt.Library>
libRbt.so (2013.1, Build901 2013/11/27)

>  <Rbt.Parameter_File>
/export/apps/rDock/src/rDock_2013.1_src/data/scripts/dock_solv.prm

>  <Rbt.Receptor>
prm/blind_docking_80.prm

>  <SCORE>
-9.89871

>  <SCORE.INTER>
-9.89871

>  <SCORE.INTER.CONST>
1

>  <SCORE.INTER.POLAR>
0

>  <SCORE.INTER.ROT>
0

>  <SCORE.INTER.SOLV>
16.8689

>  <SCORE.INTER.VDW>
-15.8221

>  <SCORE.INTER.norm>
-0.899883

>  <SCORE.INTRA>
0

>  <SCORE.INTRA.DIHEDRAL>
0

>  <SCORE.INTRA.DIHEDRAL.0>
0

>  <SCORE.INTRA.POLAR>
0

>  <SCORE.INTRA.POLAR.0>
0

>  <SCORE.INTRA.REPUL>
0

>  <SCORE.INTRA.REPUL.0>
0

>  <SCORE.INTRA.SOLV>
0

>  <SCORE.INTRA.SOLV.lig_0>
-48.9252

>  <SCORE.INTRA.VDW>
0

>  <SCORE.INTRA.VDW.0>
0

>  <SCORE.INTRA.norm>
0

>  <SCORE.RESTR>
0

>  <SCORE.RESTR.CAVITY>
0

>  <SCORE.RESTR.norm>
0

>  <SCORE.SYSTEM>
0

>  <SCORE.SYSTEM.CONST>
0

>  <SCORE.SYSTEM.DIHEDRAL>
0

>  <SCORE.SYSTEM.SOLV>
0

>  <SCORE.SYSTEM.norm>
0

>  <SCORE.heavy>
11

>  <SCORE.norm>
-0.899883

>  <RMSD>
2.880

$$$$
ligand
 OpenBabel11021811493D
libRbt.so/2013.1/901 2013/11/27
 11 12  0  0  0  0  0  0  0  0999 V2000
   12.4751   10.7280    8.7129 N   0  0  0  0  0  0  0  0  0  0  0  0
   12.4609   10.0101    7.5749 C   0  0  0  0  0  0  0  0  0  0  0  0
   12.8811    8.6880    7.5998 N   0  0  0  0  0  0  0  0  0  0  0  0
   12.0503   10.5445    6.4139 N   0  0  0  0  0  0  0  0  0  0  0  0
   11.6411   11.8208    6.3386 C   0  0  0  0  0  0  0  0  0  0  0  0
   11.6349   12.6199    7.5040 C   0  0  0  0  0  0  0  0  0  0  0  0
   12.0748   12.0175    8.7242 C   0  0  0  0  0  0  0  0  0  0  0  0
   12.0935   12.7350    9.8952 N   0  0  0  0  0  0  0  0  0  0  0  0
   11.1807   13.8544    7.1441 N   0  0  0  0  0  0  0  0  0  0  0  0
   10.9208   13.8598    5.8712 C   0  0  0  0  0  0  0  0  0  0  0  0
   11.1844   12.6285    5.3265 N   0  0  0  0  0  0  0  0  0  0  0  0
  1  7  2  0  0  0  0
  1  2  1  0  0  0  0
  2  3  1  0  0  0  0
  2  4  2  0  0  0  0
  4  5  1  0  0  0  0
  5  6  2  0  0  0  0
  5 11  1  0  0  0  0
  6  7  1  0  0  0  0
  6  9  1  0  0  0  0
  7  8  1  0  0  0  0
  9 10  1  0  0  0  0
 10 11  2  0  0  0  0
M  END
>  <CHROM.1>
11.88125086,11.75306367,7.38503906,-0.16842279,-1.21410492,0.98364977

>  <Name>
ligand

>  <RI>
0

>  <Rbt.Current_Directory>
/home/itssahil/PROJECTS/Mol_Feturizer/New_Systems/rnas/4FEO

>  <Rbt.Executable>
rbdock ($Id: //depot/dev/client3/rdock/2013.1/src/exe/rbdock.cxx#4 $)

>  <Rbt.Library>
libRbt.so (2013.1, Build901 2013/11/27)

>  <Rbt.Parameter_File>
/export/apps/rDock/src/rDock_2013.1_src/data/scripts/dock_solv.prm

>  <Rbt.Receptor>
prm/pocket_docking_4.prm

>  <SCORE>
-9.84831

>  <SCORE.INTER>
-9.84831

>  <SCORE.INTER.CONST>
1

>  <SCORE.INTER.POLAR>
0

>  <SCORE.INTER.ROT>
0

>  <SCORE.INTER.SOLV>
16.9297

>  <SCORE.INTER.VDW>
-15.8088

>  <SCORE.INTER.norm>
-0.895301

>  <SCORE.INTRA>
0

>  <SCORE.INTRA.DIHEDRAL>
0

>  <SCORE.INTRA.DIHEDRAL.0>
0

>  <SCORE.INTRA.POLAR>
0

>  <SCORE.INTRA.POLAR.0>
0

>  <SCORE.INTRA.REPUL>
0

>  <SCORE.INTRA.REPUL.0>
0

>  <SCORE.INTRA.SOLV>
0

>  <SCORE.INTRA.SOLV.lig_0>
-48.9252

>  <SCORE.INTRA.VDW>
0

>  <SCORE.INTRA.VDW.0>
0

>  <SCORE.INTRA.norm>
0

>  <SCORE.RESTR>
0

>  <SCORE.RESTR.CAVITY>
0

>  <SCORE.RESTR.norm>
0

>  <SCORE.SYSTEM>
0

>  <SCORE.SYSTEM.CONST>
0

>  <SCORE.SYSTEM.DIHEDRAL>
0

>  <SCORE.SYSTEM.SOLV>
0

>  <SCORE.SYSTEM.norm>
0

>  <SCORE.heavy>
11

>  <SCORE.norm>
-0.895301

>  <RMSD>
2.880

$$$$
ligand
 OpenBabel11021811493D
libRbt.so/2013.1/901 2013/11/27
 11 12  0  0  0  0  0  0  0  0999 V2000
   12.4954   10.7347    8.7075 N   0  0  0  0  0  0  0  0  0  0  0  0
   12.4651   10.0132    7.5720 C   0  0  0  0  0  0  0  0  0  0  0  0
   12.8784    8.6890    7.5968 N   0  0  0  0  0  0  0  0  0  0  0  0
   12.0449   10.5461    6.4138 N   0  0  0  0  0  0  0  0  0  0  0  0
   11.6418   11.8243    6.3387 C   0  0  0  0  0  0  0  0  0  0  0  0
   11.6524   12.6272    7.5015 C   0  0  0  0  0  0  0  0  0  0  0  0
   12.1022   12.0263    8.7188 C   0  0  0  0  0  0  0  0  0  0  0  0
   12.1373   12.7475    9.8872 N   0  0  0  0  0  0  0  0  0  0  0  0
   11.2010   13.8630    7.1425 N   0  0  0  0  0  0  0  0  0  0  0  0
   10.9274   13.8657    5.8724 C   0  0  0  0  0  0  0  0  0  0  0  0
   11.1785   12.6312    5.3289 N   0  0  0  0  0  0  0  0  0  0  0  0
  1  7  2  0  0  0  0
  1  2  1  0  0  0  0
  2  3  1  0  0  0  0
  2  4  2  0  0  0  0
  4  5  1  0  0  0  0
  5  6  2  0  0  0  0
  5 11  1  0  0  0  0
  6  7  1  0  0  0  0
  6  9  1  0  0  0  0
  7  8  1  0  0  0  0
  9 10  1  0  0  0  0
 10 11  2  0  0  0  0
M  END
>  <CHROM.1>
11.89278740,11.75867987,7.38270074,-0.20245500,-1.21242099,0.94853017

>  <Name>
ligand

>  <RI>
0

>  <Rbt.Current_Directory>
/home/itssahil/PROJECTS/Mol_Feturizer/New_Systems/rnas/4FEO

>  <Rbt.Executable>
rbdock ($Id: //depot/dev/client3/rdock/2013.1/src/exe/rbdock.cxx#4 $)

>  <Rbt.Library>
libRbt.so (2013.1, Build901 2013/11/27)

>  <Rbt.Parameter_File>
/export/apps/rDock/src/rDock_2013.1_src/data/scripts/dock_solv.prm

>  <Rbt.Receptor>
prm/pocket_docking_5.prm

>  <SCORE>
-9.8985

>  <SCORE.INTER>
-9.8985

>  <SCORE.INTER.CONST>
1

>  <SCORE.INTER.POLAR>
0

>  <SCORE.INTER.ROT>
0

>  <SCORE.INTER.SOLV>
16.912

>  <SCORE.INTER.VDW>
-15.8363

>  <SCORE.INTER.norm>
-0.899864

>  <SCORE.INTRA>
0

>  <SCORE.INTRA.DIHEDRAL>
0

>  <SCORE.INTRA.DIHEDRAL.0>
0

>  <SCORE.INTRA.POLAR>
0

>  <SCORE.INTRA.POLAR.0>
0

>  <SCORE.INTRA.REPUL>
0

>  <SCORE.INTRA.REPUL.0>
0

>  <SCORE.INTRA.SOLV>
0

>  <SCORE.INTRA.SOLV.lig_0>
-48.9252

>  <SCORE.INTRA.VDW>
0

>  <SCORE.INTRA.VDW.0>
0

>  <SCORE.INTRA.norm>
0

>  <SCORE.RESTR>
0

>  <SCORE.RESTR.CAVITY>
0

>  <SCORE.RESTR.norm>
0

>  <SCORE.SYSTEM>
0

>  <SCORE.SYSTEM.CONST>
0

>  <SCORE.SYSTEM.DIHEDRAL>
0

>  <SCORE.SYSTEM.SOLV>
0

>  <SCORE.SYSTEM.norm>
0

>  <SCORE.heavy>
11

>  <SCORE.norm>
-0.899864

>  <RMSD>
2.880

$$$$
ligand
 OpenBabel11021811493D
libRbt.so/2013.1/901 2013/11/27
 11 12  0  0  0  0  0  0  0  0999 V2000
   12.5139   10.7362    8.7192 N   0  0  0  0  0  0  0  0  0  0  0  0
   12.4858   10.0150    7.5835 C   0  0  0  0  0  0  0  0  0  0  0  0
   12.9042    8.6923    7.6078 N   0  0  0  0  0  0  0  0  0  0  0  0
   12.0633   10.5465    6.4255 N   0  0  0  0  0  0  0  0  0  0  0  0
   11.6553   11.8232    6.3509 C   0  0  0  0  0  0  0  0  0  0  0  0
   11.6633   12.6258    7.5139 C   0  0  0  0  0  0  0  0  0  0  0  0
   12.1157   12.0264    8.7309 C   0  0  0  0  0  0  0  0  0  0  0  0
   12.1486   12.7474    9.8995 N   0  0  0  0  0  0  0  0  0  0  0  0
   11.2071   13.8600    7.1553 N   0  0  0  0  0  0  0  0  0  0  0  0
   10.9330   13.8620    5.8854 C   0  0  0  0  0  0  0  0  0  0  0  0
   11.1886   12.6286    5.3415 N   0  0  0  0  0  0  0  0  0  0  0  0
  1  7  2  0  0  0  0
  1  2  1  0  0  0  0
  2  3  1  0  0  0  0
  2  4  2  0  0  0  0
  4  5  1  0  0  0  0
  5  6  2  0  0  0  0
  5 11  1  0  0  0  0
  6  7  1  0  0  0  0
  6  9  1  0  0  0  0
  7  8  1  0  0  0  0
  9 10  1  0  0  0  0
 10 11  2  0  0  0  0
M  END
>  <CHROM.1>
11.90690141,11.75826636,7.39482532,-0.19701762,-1.20913097,0.95385296

>  <Name>
ligand

>  <RI>
0

>  <Rbt.Current_Directory>
/home/itssahil/PROJECTS/Mol_Feturizer/New_Systems/rnas/4FEO

>  <Rbt.Executable>
rbdock ($Id: //depot/dev/client3/rdock/2013.1/src/exe/rbdock.cxx#4 $)

>  <Rbt.Library>
libRbt.so (2013.1, Build901 2013/11/27)

>  <Rbt.Parameter_File>
/export/apps/rDock/src/rDock_2013.1_src/data/scripts/dock_solv.prm

>  <Rbt.Receptor>
prm/pocket_docking_6.prm

>  <SCORE>
-9.90186

>  <SCORE.INTER>
-9.90186

>  <SCORE.INTER.CONST>
1

>  <SCORE.INTER.POLAR>
0

>  <SCORE.INTER.ROT>
0

>  <SCORE.INTER.SOLV>
16.8693

>  <SCORE.INTER.VDW>
-15.8243

>  <SCORE.INTER.norm>
-0.900169

>  <SCORE.INTRA>
0

>  <SCORE.INTRA.DIHEDRAL>
0

>  <SCORE.INTRA.DIHEDRAL.0>
0

>  <SCORE.INTRA.POLAR>
0

>  <SCORE.INTRA.POLAR.0>
0

>  <SCORE.INTRA.REPUL>
0

>  <SCORE.INTRA.REPUL.0>
0

>  <SCORE.INTRA.SOLV>
0

>  <SCORE.INTRA.SOLV.lig_0>
-48.9252

>  <SCORE.INTRA.VDW>
0

>  <SCORE.INTRA.VDW.0>
0

>  <SCORE.INTRA.norm>
0

>  <SCORE.RESTR>
0

>  <SCORE.RESTR.CAVITY>
0

>  <SCORE.RESTR.norm>
0

>  <SCORE.SYSTEM>
0

>  <SCORE.SYSTEM.CONST>
0

>  <SCORE.SYSTEM.DIHEDRAL>
0

>  <SCORE.SYSTEM.SOLV>
0

>  <SCORE.SYSTEM.norm>
0

>  <SCORE.heavy>
11

>  <SCORE.norm>
-0.900169

>  <RMSD>
2.880

$$$$
ligand
 OpenBabel11021811493D
libRbt.so/2013.1/901 2013/11/27
 11 12  0  0  0  0  0  0  0  0999 V2000
   12.5084   10.7300    8.7118 N   0  0  0  0  0  0  0  0  0  0  0  0
   12.4741   10.0091    7.5761 C   0  0  0  0  0  0  0  0  0  0  0  0
   12.8860    8.6844    7.5991 N   0  0  0  0  0  0  0  0  0  0  0  0
   12.0513   10.5429    6.4193 N   0  0  0  0  0  0  0  0  0  0  0  0
   11.6494   11.8217    6.3459 C   0  0  0  0  0  0  0  0  0  0  0  0
   11.6642   12.6240    7.5090 C   0  0  0  0  0  0  0  0  0  0  0  0
   12.1166   12.0221    8.7248 C   0  0  0  0  0  0  0  0  0  0  0  0
   12.1558   12.7427    9.8934 N   0  0  0  0  0  0  0  0  0  0  0  0
   11.2131   13.8605    7.1518 N   0  0  0  0  0  0  0  0  0  0  0  0
   10.9361   13.8640    5.8825 C   0  0  0  0  0  0  0  0  0  0  0  0
   11.1843   12.6296    5.3378 N   0  0  0  0  0  0  0  0  0  0  0  0
  1  7  2  0  0  0  0
  1  2  1  0  0  0  0
  2  3  1  0  0  0  0
  2  4  2  0  0  0  0
  4  5  1  0  0  0  0
  5  6  2  0  0  0  0
  5 11  1  0  0  0  0
  6  7  1  0  0  0  0
  6  9  1  0  0  0  0
  7  8  1  0  0  0  0
  9 10  1  0  0  0  0
 10 11  2  0  0  0  0
M  END
>  <CHROM.1>
11.90322874,11.75527135,7.38917717,-0.21069146,-1.21170810,0.94127461

>  <Name>
ligand

>  <RI>
0

>  <Rbt.Current_Directory>
/home/itssahil/PROJECTS/Mol_Feturizer/New_Systems/rnas/4FEO

>  <Rbt.Executable>
rbdock ($Id: //depot/dev/client3/rdock/2013.1/src/exe/rbdock.cxx#4 $)

>  <Rbt.Library>
libRbt.so (2013.1, Build901 2013/11/27)

>  <Rbt.Parameter_File>
/export/apps/rDock/src/rDock_2013.1_src/data/scripts/dock_solv.prm

>  <Rbt.Receptor>
prm/blind_docking_60.prm

>  <SCORE>
-9.90724

>  <SCORE.INTER>
-9.90724

>  <SCORE.INTER.CONST>
1

>  <SCORE.INTER.POLAR>
0

>  <SCORE.INTER.ROT>
0

>  <SCORE.INTER.SOLV>
16.8888

>  <SCORE.INTER.VDW>
-15.8344

>  <SCORE.INTER.norm>
-0.900659

>  <SCORE.INTRA>
0

>  <SCORE.INTRA.DIHEDRAL>
0

>  <SCORE.INTRA.DIHEDRAL.0>
0

>  <SCORE.INTRA.POLAR>
0

>  <SCORE.INTRA.POLAR.0>
0

>  <SCORE.INTRA.REPUL>
0

>  <SCORE.INTRA.REPUL.0>
0

>  <SCORE.INTRA.SOLV>
0

>  <SCORE.INTRA.SOLV.lig_0>
-48.9252

>  <SCORE.INTRA.VDW>
0

>  <SCORE.INTRA.VDW.0>
0

>  <SCORE.INTRA.norm>
0

>  <SCORE.RESTR>
0

>  <SCORE.RESTR.CAVITY>
0

>  <SCORE.RESTR.norm>
0

>  <SCORE.SYSTEM>
0

>  <SCORE.SYSTEM.CONST>
0

>  <SCORE.SYSTEM.DIHEDRAL>
0

>  <SCORE.SYSTEM.SOLV>
0

>  <SCORE.SYSTEM.norm>
0

>  <SCORE.heavy>
11

>  <SCORE.norm>
-0.900659

>  <RMSD>
2.881

$$$$
ligand
 OpenBabel11021811493D
libRbt.so/2013.1/901 2013/11/27
 11 12  0  0  0  0  0  0  0  0999 V2000
   12.5028   10.7334    8.7001 N   0  0  0  0  0  0  0  0  0  0  0  0
   12.4567   10.0094    7.5668 C   0  0  0  0  0  0  0  0  0  0  0  0
   12.8588    8.6817    7.5915 N   0  0  0  0  0  0  0  0  0  0  0  0
   12.0313   10.5429    6.4107 N   0  0  0  0  0  0  0  0  0  0  0  0
   11.6386   11.8244    6.3358 C   0  0  0  0  0  0  0  0  0  0  0  0
   11.6659   12.6300    7.4963 C   0  0  0  0  0  0  0  0  0  0  0  0
   12.1208   12.0284    8.7114 C   0  0  0  0  0  0  0  0  0  0  0  0
   12.1720   12.7522    9.8776 N   0  0  0  0  0  0  0  0  0  0  0  0
   11.2221   13.8688    7.1380 N   0  0  0  0  0  0  0  0  0  0  0  0
   10.9378   13.8706    5.8703 C   0  0  0  0  0  0  0  0  0  0  0  0
   11.1737   12.6327    5.3279 N   0  0  0  0  0  0  0  0  0  0  0  0
  1  7  2  0  0  0  0
  1  2  1  0  0  0  0
  2  3  1  0  0  0  0
  2  4  2  0  0  0  0
  4  5  1  0  0  0  0
  5  6  2  0  0  0  0
  5 11  1  0  0  0  0
  6  7  1  0  0  0  0
  6  9  1  0  0  0  0
  7  8  1  0  0  0  0
  9 10  1  0  0  0  0
 10 11  2  0  0  0  0
M  END
>  <CHROM.1>
11.89782370,11.75919136,7.37779035,-0.23650659,-1.21426607,0.91407623

>  <Name>
ligand

>  <RI>
0

>  <Rbt.Current_Directory>
/home/itssahil/PROJECTS/Mol_Feturizer/New_Systems/rnas/4FEO

>  <Rbt.Executable>
rbdock ($Id: //depot/dev/client3/rdock/2013.1/src/exe/rbdock.cxx#4 $)

>  <Rbt.Library>
libRbt.so (2013.1, Build901 2013/11/27)

>  <Rbt.Parameter_File>
/export/apps/rDock/src/rDock_2013.1_src/data/scripts/dock_solv.prm

>  <Rbt.Receptor>
prm/pocket_docking_4.prm

>  <SCORE>
-9.9122

>  <SCORE.INTER>
-9.9122

>  <SCORE.INTER.CONST>
1

>  <SCORE.INTER.POLAR>
0

>  <SCORE.INTER.ROT>
0

>  <SCORE.INTER.SOLV>
16.9369

>  <SCORE.INTER.VDW>
-15.8538

>  <SCORE.INTER.norm>
-0.901109

>  <SCORE.INTRA>
0

>  <SCORE.INTRA.DIHEDRAL>
0

>  <SCORE.INTRA.DIHEDRAL.0>
0

>  <SCORE.INTRA.POLAR>
0

>  <SCORE.INTRA.POLAR.0>
0

>  <SCORE.INTRA.REPUL>
0

>  <SCORE.INTRA.REPUL.0>
0

>  <SCORE.INTRA.SOLV>
0

>  <SCORE.INTRA.SOLV.lig_0>
-48.9252

>  <SCORE.INTRA.VDW>
0

>  <SCORE.INTRA.VDW.0>
0

>  <SCORE.INTRA.norm>
0

>  <SCORE.RESTR>
0

>  <SCORE.RESTR.CAVITY>
0

>  <SCORE.RESTR.norm>
0

>  <SCORE.SYSTEM>
0

>  <SCORE.SYSTEM.CONST>
0

>  <SCORE.SYSTEM.DIHEDRAL>
0

>  <SCORE.SYSTEM.SOLV>
0

>  <SCORE.SYSTEM.norm>
0

>  <SCORE.heavy>
11

>  <SCORE.norm>
-0.901109

>  <RMSD>
2.881

$$$$
ligand
 OpenBabel11021811493D
libRbt.so/2013.1/901 2013/11/27
 11 12  0  0  0  0  0  0  0  0999 V2000
   12.5037   10.7009    8.7148 N   0  0  0  0  0  0  0  0  0  0  0  0
   12.4061    9.9577    7.5973 C   0  0  0  0  0  0  0  0  0  0  0  0
   12.7563    8.6158    7.6405 N   0  0  0  0  0  0  0  0  0  0  0  0
   11.9786   10.4855    6.4394 N   0  0  0  0  0  0  0  0  0  0  0  0
   11.6350   11.7798    6.3467 C   0  0  0  0  0  0  0  0  0  0  0  0
   11.7176   12.6058    7.4902 C   0  0  0  0  0  0  0  0  0  0  0  0
   12.1731   12.0100    8.7078 C   0  0  0  0  0  0  0  0  0  0  0  0
   12.2764   12.7533    9.8581 N   0  0  0  0  0  0  0  0  0  0  0  0
   11.3155   13.8541    7.1160 N   0  0  0  0  0  0  0  0  0  0  0  0
   11.0057   13.8430    5.8543 C   0  0  0  0  0  0  0  0  0  0  0  0
   11.1818   12.5865    5.3321 N   0  0  0  0  0  0  0  0  0  0  0  0
  1  7  2  0  0  0  0
  1  2  1  0  0  0  0
  2  3  1  0  0  0  0
  2  4  2  0  0  0  0
  4  5  1  0  0  0  0
  5  6  2  0  0  0  0
  5 11  1  0  0  0  0
  6  7  1  0  0  0  0
  6  9  1  0  0  0  0
  7  8  1  0  0  0  0
  9 10  1  0  0  0  0
 10 11  2  0  0  0  0
M  END
>  <CHROM.1>
11.91264609,11.72436700,7.38448100,-0.35691277,-1.23065193,0.78135337

>  <Name>
ligand

>  <RI>
0

>  <Rbt.Current_Directory>
/home/itssahil/PROJECTS/Mol_Feturizer/New_Systems/rnas/4FEO

>  <Rbt.Executable>
rbdock ($Id: //depot/dev/client3/rdock/2013.1/src/exe/rbdock.cxx#4 $)

>  <Rbt.Library>
libRbt.so (2013.1, Build901 2013/11/27)

>  <Rbt.Parameter_File>
/export/apps/rDock/src/rDock_2013.1_src/data/scripts/dock_solv.prm

>  <Rbt.Receptor>
prm/pocket_docking_8.prm

>  <SCORE>
-9.81622

>  <SCORE.INTER>
-9.81622

>  <SCORE.INTER.CONST>
1

>  <SCORE.INTER.POLAR>
0

>  <SCORE.INTER.ROT>
0

>  <SCORE.INTER.SOLV>
17.2907

>  <SCORE.INTER.VDW>
-15.9077

>  <SCORE.INTER.norm>
-0.892383

>  <SCORE.INTRA>
0

>  <SCORE.INTRA.DIHEDRAL>
0

>  <SCORE.INTRA.DIHEDRAL.0>
0

>  <SCORE.INTRA.POLAR>
0

>  <SCORE.INTRA.POLAR.0>
0

>  <SCORE.INTRA.REPUL>
0

>  <SCORE.INTRA.REPUL.0>
0

>  <SCORE.INTRA.SOLV>
0

>  <SCORE.INTRA.SOLV.lig_0>
-48.9252

>  <SCORE.INTRA.VDW>
0

>  <SCORE.INTRA.VDW.0>
0

>  <SCORE.INTRA.norm>
0

>  <SCORE.RESTR>
0

>  <SCORE.RESTR.CAVITY>
0

>  <SCORE.RESTR.norm>
0

>  <SCORE.SYSTEM>
0

>  <SCORE.SYSTEM.CONST>
0

>  <SCORE.SYSTEM.DIHEDRAL>
0

>  <SCORE.SYSTEM.SOLV>
0

>  <SCORE.SYSTEM.norm>
0

>  <SCORE.heavy>
11

>  <SCORE.norm>
-0.892383

>  <RMSD>
2.881

$$$$
ligand
 OpenBabel11021811493D
libRbt.so/2013.1/901 2013/11/27
 11 12  0  0  0  0  0  0  0  0999 V2000
   12.5048   10.7246    8.7012 N   0  0  0  0  0  0  0  0  0  0  0  0
   12.4543   10.0031    7.5664 C   0  0  0  0  0  0  0  0  0  0  0  0
   12.8549    8.6749    7.5871 N   0  0  0  0  0  0  0  0  0  0  0  0
   12.0262   10.5396    6.4128 N   0  0  0  0  0  0  0  0  0  0  0  0
   11.6348   11.8217    6.3418 C   0  0  0  0  0  0  0  0  0  0  0  0
   11.6666   12.6249    7.5040 C   0  0  0  0  0  0  0  0  0  0  0  0
   12.1244   12.0201    8.7164 C   0  0  0  0  0  0  0  0  0  0  0  0
   12.1800   12.7412    9.8840 N   0  0  0  0  0  0  0  0  0  0  0  0
   11.2232   13.8649    7.1496 N   0  0  0  0  0  0  0  0  0  0  0  0
   10.9351   13.8698    5.8828 C   0  0  0  0  0  0  0  0  0  0  0  0
   11.1679   12.6328    5.3370 N   0  0  0  0  0  0  0  0  0  0  0  0
  1  7  2  0  0  0  0
  1  2  1  0  0  0  0
  2  3  1  0  0  0  0
  2  4  2  0  0  0  0
  4  5  1  0  0  0  0
  5  6  2  0  0  0  0
  5 11  1  0  0  0  0
  6  7  1  0  0  0  0
  6  9  1  0  0  0  0
  7  8  1  0  0  0  0
  9 10  1  0  0  0  0
 10 11  2  0  0  0  0
M  END
>  <CHROM.1>
11.89706169,11.75398192,7.38289150,-0.24540393,-1.21340092,0.90789138

>  <Name>
ligand

>  <RI>
0

>  <Rbt.Current_Directory>
/home/itssahil/PROJECTS/Mol_Feturizer/New_Systems/rnas/4FEO

>  <Rbt.Executable>
rbdock ($Id: //depot/dev/client3/rdock/2013.1/src/exe/rbdock.cxx#4 $)

>  <Rbt.Library>
libRbt.so (2013.1, Build901 2013/11/27)

>  <Rbt.Parameter_File>
/export/apps/rDock/src/rDock_2013.1_src/data/scripts/dock_solv.prm

>  <Rbt.Receptor>
prm/pocket_docking_4.prm

>  <SCORE>
-9.90603

>  <SCORE.INTER>
-9.90603

>  <SCORE.INTER.CONST>
1

>  <SCORE.INTER.POLAR>
0

>  <SCORE.INTER.ROT>
0

>  <SCORE.INTER.SOLV>
16.9285

>  <SCORE.INTER.VDW>
-15.8468

>  <SCORE.INTER.norm>
-0.900548

>  <SCORE.INTRA>
0

>  <SCORE.INTRA.DIHEDRAL>
0

>  <SCORE.INTRA.DIHEDRAL.0>
0

>  <SCORE.INTRA.POLAR>
0

>  <SCORE.INTRA.POLAR.0>
0

>  <SCORE.INTRA.REPUL>
0

>  <SCORE.INTRA.REPUL.0>
0

>  <SCORE.INTRA.SOLV>
0

>  <SCORE.INTRA.SOLV.lig_0>
-48.9252

>  <SCORE.INTRA.VDW>
0

>  <SCORE.INTRA.VDW.0>
0

>  <SCORE.INTRA.norm>
0

>  <SCORE.RESTR>
0

>  <SCORE.RESTR.CAVITY>
0

>  <SCORE.RESTR.norm>
0

>  <SCORE.SYSTEM>
0

>  <SCORE.SYSTEM.CONST>
0

>  <SCORE.SYSTEM.DIHEDRAL>
0

>  <SCORE.SYSTEM.SOLV>
0

>  <SCORE.SYSTEM.norm>
0

>  <SCORE.heavy>
11

>  <SCORE.norm>
-0.900548

>  <RMSD>
2.882

$$$$
ligand
 OpenBabel11021811493D
libRbt.so/2013.1/901 2013/11/27
 11 12  0  0  0  0  0  0  0  0999 V2000
   12.5037   10.7287    8.6998 N   0  0  0  0  0  0  0  0  0  0  0  0
   12.4531   10.0064    7.5656 C   0  0  0  0  0  0  0  0  0  0  0  0
   12.8528    8.6779    7.5873 N   0  0  0  0  0  0  0  0  0  0  0  0
   12.0256   10.5424    6.4115 N   0  0  0  0  0  0  0  0  0  0  0  0
   11.6350   11.8247    6.3395 C   0  0  0  0  0  0  0  0  0  0  0  0
   11.6671   12.6287    7.5011 C   0  0  0  0  0  0  0  0  0  0  0  0
   12.1242   12.0244    8.7140 C   0  0  0  0  0  0  0  0  0  0  0  0
   12.1800   12.7464    9.8811 N   0  0  0  0  0  0  0  0  0  0  0  0
   11.2246   13.8688    7.1457 N   0  0  0  0  0  0  0  0  0  0  0  0
   10.9369   13.8729    5.8788 C   0  0  0  0  0  0  0  0  0  0  0  0
   11.1689   12.6353    5.3340 N   0  0  0  0  0  0  0  0  0  0  0  0
  1  7  2  0  0  0  0
  1  2  1  0  0  0  0
  2  3  1  0  0  0  0
  2  4  2  0  0  0  0
  4  5  1  0  0  0  0
  5  6  2  0  0  0  0
  5 11  1  0  0  0  0
  6  7  1  0  0  0  0
  6  9  1  0  0  0  0
  7  8  1  0  0  0  0
  9 10  1  0  0  0  0
 10 11  2  0  0  0  0
M  END
>  <CHROM.1>
11.89700718,11.75753499,7.38066196,-0.24604397,-1.21407832,0.90657681

>  <Name>
ligand

>  <RI>
0

>  <Rbt.Current_Directory>
/home/itssahil/PROJECTS/Mol_Feturizer/New_Systems/rnas/4FEO

>  <Rbt.Executable>
rbdock ($Id: //depot/dev/client3/rdock/2013.1/src/exe/rbdock.cxx#4 $)

>  <Rbt.Library>
libRbt.so (2013.1, Build901 2013/11/27)

>  <Rbt.Parameter_File>
/export/apps/rDock/src/rDock_2013.1_src/data/scripts/dock_solv.prm

>  <Rbt.Receptor>
prm/pocket_docking_5.prm

>  <SCORE>
-9.90818

>  <SCORE.INTER>
-9.90818

>  <SCORE.INTER.CONST>
1

>  <SCORE.INTER.POLAR>
0

>  <SCORE.INTER.ROT>
0

>  <SCORE.INTER.SOLV>
16.9404

>  <SCORE.INTER.VDW>
-15.8522

>  <SCORE.INTER.norm>
-0.900744

>  <SCORE.INTRA>
0

>  <SCORE.INTRA.DIHEDRAL>
0

>  <SCORE.INTRA.DIHEDRAL.0>
0

>  <SCORE.INTRA.POLAR>
0

>  <SCORE.INTRA.POLAR.0>
0

>  <SCORE.INTRA.REPUL>
0

>  <SCORE.INTRA.REPUL.0>
0

>  <SCORE.INTRA.SOLV>
0

>  <SCORE.INTRA.SOLV.lig_0>
-48.9252

>  <SCORE.INTRA.VDW>
0

>  <SCORE.INTRA.VDW.0>
0

>  <SCORE.INTRA.norm>
0

>  <SCORE.RESTR>
0

>  <SCORE.RESTR.CAVITY>
0

>  <SCORE.RESTR.norm>
0

>  <SCORE.SYSTEM>
0

>  <SCORE.SYSTEM.CONST>
0

>  <SCORE.SYSTEM.DIHEDRAL>
0

>  <SCORE.SYSTEM.SOLV>
0

>  <SCORE.SYSTEM.norm>
0

>  <SCORE.heavy>
11

>  <SCORE.norm>
-0.900744

>  <RMSD>
2.882

$$$$
ligand
 OpenBabel11021811493D
libRbt.so/2013.1/901 2013/11/27
 11 12  0  0  0  0  0  0  0  0999 V2000
   12.5017   10.7257    8.7021 N   0  0  0  0  0  0  0  0  0  0  0  0
   12.4576   10.0045    7.5669 C   0  0  0  0  0  0  0  0  0  0  0  0
   12.8602    8.6769    7.5889 N   0  0  0  0  0  0  0  0  0  0  0  0
   12.0338   10.5407    6.4115 N   0  0  0  0  0  0  0  0  0  0  0  0
   11.6406   11.8222    6.3392 C   0  0  0  0  0  0  0  0  0  0  0  0
   11.6659   12.6250    7.5017 C   0  0  0  0  0  0  0  0  0  0  0  0
   12.1192   12.0206    8.7160 C   0  0  0  0  0  0  0  0  0  0  0  0
   12.1683   12.7415    9.8840 N   0  0  0  0  0  0  0  0  0  0  0  0
   11.2221   13.8645    7.1457 N   0  0  0  0  0  0  0  0  0  0  0  0
   10.9398   13.8693    5.8776 C   0  0  0  0  0  0  0  0  0  0  0  0
   11.1770   12.6328    5.3325 N   0  0  0  0  0  0  0  0  0  0  0  0
  1  7  2  0  0  0  0
  1  2  1  0  0  0  0
  2  3  1  0  0  0  0
  2  4  2  0  0  0  0
  4  5  1  0  0  0  0
  5  6  2  0  0  0  0
  5 11  1  0  0  0  0
  6  7  1  0  0  0  0
  6  9  1  0  0  0  0
  7  8  1  0  0  0  0
  9 10  1  0  0  0  0
 10 11  2  0  0  0  0
M  END
>  <CHROM.1>
11.89832312,11.75453548,7.38137138,-0.23235959,-1.21487583,0.92041634

>  <Name>
ligand

>  <RI>
0

>  <Rbt.Current_Directory>
/home/itssahil/PROJECTS/Mol_Feturizer/New_Systems/rnas/4FEO

>  <Rbt.Executable>
rbdock ($Id: //depot/dev/client3/rdock/2013.1/src/exe/rbdock.cxx#4 $)

>  <Rbt.Library>
libRbt.so (2013.1, Build901 2013/11/27)

>  <Rbt.Parameter_File>
/export/apps/rDock/src/rDock_2013.1_src/data/scripts/dock_solv.prm

>  <Rbt.Receptor>
prm/pocket_docking_7.prm

>  <SCORE>
-9.91291

>  <SCORE.INTER>
-9.91291

>  <SCORE.INTER.CONST>
1

>  <SCORE.INTER.POLAR>
0

>  <SCORE.INTER.ROT>
0

>  <SCORE.INTER.SOLV>
16.9256

>  <SCORE.INTER.VDW>
-15.8505

>  <SCORE.INTER.norm>
-0.901174

>  <SCORE.INTRA>
0

>  <SCORE.INTRA.DIHEDRAL>
0

>  <SCORE.INTRA.DIHEDRAL.0>
0

>  <SCORE.INTRA.POLAR>
0

>  <SCORE.INTRA.POLAR.0>
0

>  <SCORE.INTRA.REPUL>
0

>  <SCORE.INTRA.REPUL.0>
0

>  <SCORE.INTRA.SOLV>
0

>  <SCORE.INTRA.SOLV.lig_0>
-48.9252

>  <SCORE.INTRA.VDW>
0

>  <SCORE.INTRA.VDW.0>
0

>  <SCORE.INTRA.norm>
0

>  <SCORE.RESTR>
0

>  <SCORE.RESTR.CAVITY>
0

>  <SCORE.RESTR.norm>
0

>  <SCORE.SYSTEM>
0

>  <SCORE.SYSTEM.CONST>
0

>  <SCORE.SYSTEM.DIHEDRAL>
0

>  <SCORE.SYSTEM.SOLV>
0

>  <SCORE.SYSTEM.norm>
0

>  <SCORE.heavy>
11

>  <SCORE.norm>
-0.901174

>  <RMSD>
2.882

$$$$
ligand
 OpenBabel11021811493D
libRbt.so/2013.1/901 2013/11/27
 11 12  0  0  0  0  0  0  0  0999 V2000
   12.5016   10.7275    8.7005 N   0  0  0  0  0  0  0  0  0  0  0  0
   12.4551   10.0053    7.5661 C   0  0  0  0  0  0  0  0  0  0  0  0
   12.8561    8.6772    7.5889 N   0  0  0  0  0  0  0  0  0  0  0  0
   12.0305   10.5409    6.4107 N   0  0  0  0  0  0  0  0  0  0  0  0
   11.6389   11.8228    6.3376 C   0  0  0  0  0  0  0  0  0  0  0  0
   11.6666   12.6267    7.4993 C   0  0  0  0  0  0  0  0  0  0  0  0
   12.1206   12.0229    8.7136 C   0  0  0  0  0  0  0  0  0  0  0  0
   12.1721   12.7448    9.8809 N   0  0  0  0  0  0  0  0  0  0  0  0
   11.2239   13.8664    7.1427 N   0  0  0  0  0  0  0  0  0  0  0  0
   10.9400   13.8703    5.8749 C   0  0  0  0  0  0  0  0  0  0  0  0
   11.1750   12.6330    5.3307 N   0  0  0  0  0  0  0  0  0  0  0  0
  1  7  2  0  0  0  0
  1  2  1  0  0  0  0
  2  3  1  0  0  0  0
  2  4  2  0  0  0  0
  4  5  1  0  0  0  0
  5  6  2  0  0  0  0
  5 11  1  0  0  0  0
  6  7  1  0  0  0  0
  6  9  1  0  0  0  0
  7  8  1  0  0  0  0
  9 10  1  0  0  0  0
 10 11  2  0  0  0  0
M  END
>  <CHROM.1>
11.89777183,11.75583004,7.37956911,-0.23733495,-1.21510503,0.91479418

>  <Name>
ligand

>  <RI>
0

>  <Rbt.Current_Directory>
/home/itssahil/PROJECTS/Mol_Feturizer/New_Systems/rnas/4FEO

>  <Rbt.Executable>
rbdock ($Id: //depot/dev/client3/rdock/2013.1/src/exe/rbdock.cxx#4 $)

>  <Rbt.Library>
libRbt.so (2013.1, Build901 2013/11/27)

>  <Rbt.Parameter_File>
/export/apps/rDock/src/rDock_2013.1_src/data/scripts/dock_solv.prm

>  <Rbt.Receptor>
prm/pocket_docking_7.prm

>  <SCORE>
-9.91374

>  <SCORE.INTER>
-9.91374

>  <SCORE.INTER.CONST>
1

>  <SCORE.INTER.POLAR>
0

>  <SCORE.INTER.ROT>
0

>  <SCORE.INTER.SOLV>
16.9359

>  <SCORE.INTER.VDW>
-15.8545

>  <SCORE.INTER.norm>
-0.901249

>  <SCORE.INTRA>
0

>  <SCORE.INTRA.DIHEDRAL>
0

>  <SCORE.INTRA.DIHEDRAL.0>
0

>  <SCORE.INTRA.POLAR>
0

>  <SCORE.INTRA.POLAR.0>
0

>  <SCORE.INTRA.REPUL>
0

>  <SCORE.INTRA.REPUL.0>
0

>  <SCORE.INTRA.SOLV>
0

>  <SCORE.INTRA.SOLV.lig_0>
-48.9252

>  <SCORE.INTRA.VDW>
0

>  <SCORE.INTRA.VDW.0>
0

>  <SCORE.INTRA.norm>
0

>  <SCORE.RESTR>
0

>  <SCORE.RESTR.CAVITY>
0

>  <SCORE.RESTR.norm>
0

>  <SCORE.SYSTEM>
0

>  <SCORE.SYSTEM.CONST>
0

>  <SCORE.SYSTEM.DIHEDRAL>
0

>  <SCORE.SYSTEM.SOLV>
0

>  <SCORE.SYSTEM.norm>
0

>  <SCORE.heavy>
11

>  <SCORE.norm>
-0.901249

>  <RMSD>
2.882

$$$$
ligand
 OpenBabel11021811493D
libRbt.so/2013.1/901 2013/11/27
 11 12  0  0  0  0  0  0  0  0999 V2000
   12.4966   10.7213    8.7128 N   0  0  0  0  0  0  0  0  0  0  0  0
   12.4945   10.0015    7.5759 C   0  0  0  0  0  0  0  0  0  0  0  0
   12.9202    8.6813    7.6064 N   0  0  0  0  0  0  0  0  0  0  0  0
   12.0908   10.5321    6.4108 N   0  0  0  0  0  0  0  0  0  0  0  0
   11.6767   11.8065    6.3301 C   0  0  0  0  0  0  0  0  0  0  0  0
   11.6578   12.6075    7.4941 C   0  0  0  0  0  0  0  0  0  0  0  0
   12.0906   12.0090    8.7187 C   0  0  0  0  0  0  0  0  0  0  0  0
   12.0970   12.7286    9.8886 N   0  0  0  0  0  0  0  0  0  0  0  0
   11.2011   13.8395    7.1286 N   0  0  0  0  0  0  0  0  0  0  0  0
   10.9512   13.8416    5.8536 C   0  0  0  0  0  0  0  0  0  0  0  0
   11.2244   12.6105    5.3131 N   0  0  0  0  0  0  0  0  0  0  0  0
  1  7  2  0  0  0  0
  1  2  1  0  0  0  0
  2  3  1  0  0  0  0
  2  4  2  0  0  0  0
  4  5  1  0  0  0  0
  5  6  2  0  0  0  0
  5 11  1  0  0  0  0
  6  7  1  0  0  0  0
  6  9  1  0  0  0  0
  7  8  1  0  0  0  0
  9 10  1  0  0  0  0
 10 11  2  0  0  0  0
M  END
>  <CHROM.1>
11.90880736,11.74157875,7.37853118,-0.14261945,-1.21474295,1.00616502

>  <Name>
ligand

>  <RI>
0

>  <Rbt.Current_Directory>
/home/itssahil/PROJECTS/Mol_Feturizer/New_Systems/rnas/4FEO

>  <Rbt.Executable>
rbdock ($Id: //depot/dev/client3/rdock/2013.1/src/exe/rbdock.cxx#4 $)

>  <Rbt.Library>
libRbt.so (2013.1, Build901 2013/11/27)

>  <Rbt.Parameter_File>
/export/apps/rDock/src/rDock_2013.1_src/data/scripts/dock_solv.prm

>  <Rbt.Receptor>
prm/pocket_docking_5.prm

>  <SCORE>
-9.82239

>  <SCORE.INTER>
-9.82239

>  <SCORE.INTER.CONST>
1

>  <SCORE.INTER.POLAR>
0

>  <SCORE.INTER.ROT>
0

>  <SCORE.INTER.SOLV>
16.7914

>  <SCORE.INTER.VDW>
-15.7454

>  <SCORE.INTER.norm>
-0.892945

>  <SCORE.INTRA>
0

>  <SCORE.INTRA.DIHEDRAL>
0

>  <SCORE.INTRA.DIHEDRAL.0>
0

>  <SCORE.INTRA.POLAR>
0

>  <SCORE.INTRA.POLAR.0>
0

>  <SCORE.INTRA.REPUL>
0

>  <SCORE.INTRA.REPUL.0>
0

>  <SCORE.INTRA.SOLV>
0

>  <SCORE.INTRA.SOLV.lig_0>
-48.9252

>  <SCORE.INTRA.VDW>
0

>  <SCORE.INTRA.VDW.0>
0

>  <SCORE.INTRA.norm>
0

>  <SCORE.RESTR>
0

>  <SCORE.RESTR.CAVITY>
0

>  <SCORE.RESTR.norm>
0

>  <SCORE.SYSTEM>
0

>  <SCORE.SYSTEM.CONST>
0

>  <SCORE.SYSTEM.DIHEDRAL>
0

>  <SCORE.SYSTEM.SOLV>
0

>  <SCORE.SYSTEM.norm>
0

>  <SCORE.heavy>
11

>  <SCORE.norm>
-0.892945

>  <RMSD>
2.883

$$$$
ligand
 OpenBabel11021811493D
libRbt.so/2013.1/901 2013/11/27
 11 12  0  0  0  0  0  0  0  0999 V2000
   12.4893   10.7309    8.6995 N   0  0  0  0  0  0  0  0  0  0  0  0
   12.4662   10.0165    7.5594 C   0  0  0  0  0  0  0  0  0  0  0  0
   12.8751    8.6908    7.5795 N   0  0  0  0  0  0  0  0  0  0  0  0
   12.0575   10.5577    6.4010 N   0  0  0  0  0  0  0  0  0  0  0  0
   11.6591   11.8377    6.3304 C   0  0  0  0  0  0  0  0  0  0  0  0
   11.6625   12.6335    7.4980 C   0  0  0  0  0  0  0  0  0  0  0  0
   12.1001   12.0237    8.7154 C   0  0  0  0  0  0  0  0  0  0  0  0
   12.1277   12.7376    9.8885 N   0  0  0  0  0  0  0  0  0  0  0  0
   11.2181   13.8729    7.1428 N   0  0  0  0  0  0  0  0  0  0  0  0
   10.9552   13.8842    5.8706 C   0  0  0  0  0  0  0  0  0  0  0  0
   11.2069   12.6522    5.3217 N   0  0  0  0  0  0  0  0  0  0  0  0
  1  7  2  0  0  0  0
  1  2  1  0  0  0  0
  2  3  1  0  0  0  0
  2  4  2  0  0  0  0
  4  5  1  0  0  0  0
  5  6  2  0  0  0  0
  5 11  1  0  0  0  0
  6  7  1  0  0  0  0
  6  9  1  0  0  0  0
  7  8  1  0  0  0  0
  9 10  1  0  0  0  0
 10 11  2  0  0  0  0
M  END
>  <CHROM.1>
11.90110784,11.76489567,7.37598423,-0.18795933,-1.21987286,0.96822878

>  <Name>
ligand

>  <RI>
0

>  <Rbt.Current_Directory>
/home/itssahil/PROJECTS/Mol_Feturizer/New_Systems/rnas/4FEO

>  <Rbt.Executable>
rbdock ($Id: //depot/dev/client3/rdock/2013.1/src/exe/rbdock.cxx#4 $)

>  <Rbt.Library>
libRbt.so (2013.1, Build901 2013/11/27)

>  <Rbt.Parameter_File>
/export/apps/rDock/src/rDock_2013.1_src/data/scripts/dock_solv.prm

>  <Rbt.Receptor>
prm/pocket_docking_6.prm

>  <SCORE>
-9.86183

>  <SCORE.INTER>
-9.86183

>  <SCORE.INTER.CONST>
1

>  <SCORE.INTER.POLAR>
0

>  <SCORE.INTER.ROT>
0

>  <SCORE.INTER.SOLV>
16.9025

>  <SCORE.INTER.VDW>
-15.8087

>  <SCORE.INTER.norm>
-0.89653

>  <SCORE.INTRA>
0

>  <SCORE.INTRA.DIHEDRAL>
0

>  <SCORE.INTRA.DIHEDRAL.0>
0

>  <SCORE.INTRA.POLAR>
0

>  <SCORE.INTRA.POLAR.0>
0

>  <SCORE.INTRA.REPUL>
0

>  <SCORE.INTRA.REPUL.0>
0

>  <SCORE.INTRA.SOLV>
0

>  <SCORE.INTRA.SOLV.lig_0>
-48.9252

>  <SCORE.INTRA.VDW>
0

>  <SCORE.INTRA.VDW.0>
0

>  <SCORE.INTRA.norm>
0

>  <SCORE.RESTR>
0

>  <SCORE.RESTR.CAVITY>
0

>  <SCORE.RESTR.norm>
0

>  <SCORE.SYSTEM>
0

>  <SCORE.SYSTEM.CONST>
0

>  <SCORE.SYSTEM.DIHEDRAL>
0

>  <SCORE.SYSTEM.SOLV>
0

>  <SCORE.SYSTEM.norm>
0

>  <SCORE.heavy>
11

>  <SCORE.norm>
-0.89653

>  <RMSD>
2.883

$$$$
ligand
 OpenBabel11021811493D
libRbt.so/2013.1/901 2013/11/27
 11 12  0  0  0  0  0  0  0  0999 V2000
   12.5067   10.7245    8.6968 N   0  0  0  0  0  0  0  0  0  0  0  0
   12.4593   10.0002    7.5637 C   0  0  0  0  0  0  0  0  0  0  0  0
   12.8643    8.6734    7.5876 N   0  0  0  0  0  0  0  0  0  0  0  0
   12.0300   10.5327    6.4086 N   0  0  0  0  0  0  0  0  0  0  0  0
   11.6344   11.8133    6.3345 C   0  0  0  0  0  0  0  0  0  0  0  0
   11.6629   12.6192    7.4948 C   0  0  0  0  0  0  0  0  0  0  0  0
   12.1220   12.0187    8.7089 C   0  0  0  0  0  0  0  0  0  0  0  0
   12.1745   12.7427    9.8748 N   0  0  0  0  0  0  0  0  0  0  0  0
   11.2155   13.8570    7.1374 N   0  0  0  0  0  0  0  0  0  0  0  0
   10.9282   13.8580    5.8704 C   0  0  0  0  0  0  0  0  0  0  0  0
   11.1653   12.6205    5.3276 N   0  0  0  0  0  0  0  0  0  0  0  0
  1  7  2  0  0  0  0
  1  2  1  0  0  0  0
  2  3  1  0  0  0  0
  2  4  2  0  0  0  0
  4  5  1  0  0  0  0
  5  6  2  0  0  0  0
  5 11  1  0  0  0  0
  6  7  1  0  0  0  0
  6  9  1  0  0  0  0
  7  8  1  0  0  0  0
  9 10  1  0  0  0  0
 10 11  2  0  0  0  0
M  END
>  <CHROM.1>
11.89629223,11.74884888,7.37583681,-0.23832115,-1.21110516,0.91223997

>  <Name>
ligand

>  <RI>
0

>  <Rbt.Current_Directory>
/home/itssahil/PROJECTS/Mol_Feturizer/New_Systems/rnas/4FEO

>  <Rbt.Executable>
rbdock ($Id: //depot/dev/client3/rdock/2013.1/src/exe/rbdock.cxx#4 $)

>  <Rbt.Library>
libRbt.so (2013.1, Build901 2013/11/27)

>  <Rbt.Parameter_File>
/export/apps/rDock/src/rDock_2013.1_src/data/scripts/dock_solv.prm

>  <Rbt.Receptor>
prm/pocket_docking_6.prm

>  <SCORE>
-9.90529

>  <SCORE.INTER>
-9.90529

>  <SCORE.INTER.CONST>
1

>  <SCORE.INTER.POLAR>
0

>  <SCORE.INTER.ROT>
0

>  <SCORE.INTER.SOLV>
16.8777

>  <SCORE.INTER.VDW>
-15.8294

>  <SCORE.INTER.norm>
-0.900481

>  <SCORE.INTRA>
0

>  <SCORE.INTRA.DIHEDRAL>
0

>  <SCORE.INTRA.DIHEDRAL.0>
0

>  <SCORE.INTRA.POLAR>
0

>  <SCORE.INTRA.POLAR.0>
0

>  <SCORE.INTRA.REPUL>
0

>  <SCORE.INTRA.REPUL.0>
0

>  <SCORE.INTRA.SOLV>
0

>  <SCORE.INTRA.SOLV.lig_0>
-48.9252

>  <SCORE.INTRA.VDW>
0

>  <SCORE.INTRA.VDW.0>
0

>  <SCORE.INTRA.norm>
0

>  <SCORE.RESTR>
0

>  <SCORE.RESTR.CAVITY>
0

>  <SCORE.RESTR.norm>
0

>  <SCORE.SYSTEM>
0

>  <SCORE.SYSTEM.CONST>
0

>  <SCORE.SYSTEM.DIHEDRAL>
0

>  <SCORE.SYSTEM.SOLV>
0

>  <SCORE.SYSTEM.norm>
0

>  <SCORE.heavy>
11

>  <SCORE.norm>
-0.900481

>  <RMSD>
2.883

$$$$
ligand
 OpenBabel11021811493D
libRbt.so/2013.1/901 2013/11/27
 11 12  0  0  0  0  0  0  0  0999 V2000
   12.4936   10.7363    8.7125 N   0  0  0  0  0  0  0  0  0  0  0  0
   12.4929   10.0255    7.5699 C   0  0  0  0  0  0  0  0  0  0  0  0
   12.9113    8.7028    7.5920 N   0  0  0  0  0  0  0  0  0  0  0  0
   12.0976   10.5675    6.4072 N   0  0  0  0  0  0  0  0  0  0  0  0
   11.6908   11.8448    6.3347 C   0  0  0  0  0  0  0  0  0  0  0  0
   11.6708   12.6367    7.5048 C   0  0  0  0  0  0  0  0  0  0  0  0
   12.0946   12.0262    8.7267 C   0  0  0  0  0  0  0  0  0  0  0  0
   12.0994   12.7364    9.9023 N   0  0  0  0  0  0  0  0  0  0  0  0
   11.2226   13.8740    7.1469 N   0  0  0  0  0  0  0  0  0  0  0  0
   10.9787   13.8875    5.8709 C   0  0  0  0  0  0  0  0  0  0  0  0
   11.2478   12.6593    5.3219 N   0  0  0  0  0  0  0  0  0  0  0  0
  1  7  2  0  0  0  0
  1  2  1  0  0  0  0
  2  3  1  0  0  0  0
  2  4  2  0  0  0  0
  4  5  1  0  0  0  0
  5  6  2  0  0  0  0
  5 11  1  0  0  0  0
  6  7  1  0  0  0  0
  6  9  1  0  0  0  0
  7  8  1  0  0  0  0
  9 10  1  0  0  0  0
 10 11  2  0  0  0  0
M  END
>  <CHROM.1>
11.91765717,11.77031179,7.38361331,-0.13952765,-1.22187315,1.01696015

>  <Name>
ligand

>  <RI>
0

>  <Rbt.Current_Directory>
/home/itssahil/PROJECTS/Mol_Feturizer/New_Systems/rnas/4FEO

>  <Rbt.Executable>
rbdock ($Id: //depot/dev/client3/rdock/2013.1/src/exe/rbdock.cxx#4 $)

>  <Rbt.Library>
libRbt.so (2013.1, Build901 2013/11/27)

>  <Rbt.Parameter_File>
/export/apps/rDock/src/rDock_2013.1_src/data/scripts/dock_solv.prm

>  <Rbt.Receptor>
prm/pocket_docking_7.prm

>  <SCORE>
-9.84594

>  <SCORE.INTER>
-9.84598

>  <SCORE.INTER.CONST>
1

>  <SCORE.INTER.POLAR>
0

>  <SCORE.INTER.ROT>
0

>  <SCORE.INTER.SOLV>
16.8643

>  <SCORE.INTER.VDW>
-15.7854

>  <SCORE.INTER.norm>
-0.895089

>  <SCORE.INTRA>
0

>  <SCORE.INTRA.DIHEDRAL>
0

>  <SCORE.INTRA.DIHEDRAL.0>
0

>  <SCORE.INTRA.POLAR>
0

>  <SCORE.INTRA.POLAR.0>
0

>  <SCORE.INTRA.REPUL>
0

>  <SCORE.INTRA.REPUL.0>
0

>  <SCORE.INTRA.SOLV>
0

>  <SCORE.INTRA.SOLV.lig_0>
-48.9252

>  <SCORE.INTRA.VDW>
0

>  <SCORE.INTRA.VDW.0>
0

>  <SCORE.INTRA.norm>
0

>  <SCORE.RESTR>
4.1334e-05

>  <SCORE.RESTR.CAVITY>
4.1334e-05

>  <SCORE.RESTR.norm>
3.75764e-06

>  <SCORE.SYSTEM>
0

>  <SCORE.SYSTEM.CONST>
0

>  <SCORE.SYSTEM.DIHEDRAL>
0

>  <SCORE.SYSTEM.SOLV>
0

>  <SCORE.SYSTEM.norm>
0

>  <SCORE.heavy>
11

>  <SCORE.norm>
-0.895085

>  <RMSD>
2.883

$$$$
ligand
 OpenBabel11021811493D
libRbt.so/2013.1/901 2013/11/27
 11 12  0  0  0  0  0  0  0  0999 V2000
   12.0765   10.6769    8.6784 N   0  0  0  0  0  0  0  0  0  0  0  0
   12.2520    9.8150    7.6600 C   0  0  0  0  0  0  0  0  0  0  0  0
   12.7009    8.5296    7.9271 N   0  0  0  0  0  0  0  0  0  0  0  0
   12.0038   10.1707    6.3897 N   0  0  0  0  0  0  0  0  0  0  0  0
   11.5745   11.4046    6.0812 C   0  0  0  0  0  0  0  0  0  0  0  0
   11.3725   12.3496    7.1121 C   0  0  0  0  0  0  0  0  0  0  0  0
   11.6427   11.9358    8.4541 C   0  0  0  0  0  0  0  0  0  0  0  0
   11.4667   12.8019    9.5054 N   0  0  0  0  0  0  0  0  0  0  0  0
   10.9422   13.5024    6.5240 N   0  0  0  0  0  0  0  0  0  0  0  0
   10.8745   13.3268    5.2385 C   0  0  0  0  0  0  0  0  0  0  0  0
   11.2508   12.0484    4.9123 N   0  0  0  0  0  0  0  0  0  0  0  0
  1  7  2  0  0  0  0
  1  2  1  0  0  0  0
  2  3  1  0  0  0  0
  2  4  2  0  0  0  0
  4  5  1  0  0  0  0
  5  6  2  0  0  0  0
  5 11  1  0  0  0  0
  6  7  1  0  0  0  0
  6  9  1  0  0  0  0
  7  8  1  0  0  0  0
  9 10  1  0  0  0  0
 10 11  2  0  0  0  0
M  END
>  <CHROM.1>
11.65808911,11.48754985,7.15043728,0.28003706,-1.24322267,1.27067893

>  <Name>
ligand

>  <RI>
0

>  <Rbt.Current_Directory>
/home/itssahil/PROJECTS/Mol_Feturizer/New_Systems/rnas/4FEO

>  <Rbt.Executable>
rbdock ($Id: //depot/dev/client3/rdock/2013.1/src/exe/rbdock.cxx#4 $)

>  <Rbt.Library>
libRbt.so (2013.1, Build901 2013/11/27)

>  <Rbt.Parameter_File>
/export/apps/rDock/src/rDock_2013.1_src/data/scripts/dock_solv.prm

>  <Rbt.Receptor>
prm/blind_docking_20.prm

>  <SCORE>
-7.80516

>  <SCORE.INTER>
-8.33504

>  <SCORE.INTER.CONST>
1

>  <SCORE.INTER.POLAR>
0

>  <SCORE.INTER.ROT>
0

>  <SCORE.INTER.SOLV>
18.2459

>  <SCORE.INTER.VDW>
-15.2387

>  <SCORE.INTER.norm>
-0.757731

>  <SCORE.INTRA>
0

>  <SCORE.INTRA.DIHEDRAL>
0

>  <SCORE.INTRA.DIHEDRAL.0>
0

>  <SCORE.INTRA.POLAR>
0

>  <SCORE.INTRA.POLAR.0>
0

>  <SCORE.INTRA.REPUL>
0

>  <SCORE.INTRA.REPUL.0>
0

>  <SCORE.INTRA.SOLV>
0

>  <SCORE.INTRA.SOLV.lig_0>
-48.9252

>  <SCORE.INTRA.VDW>
0

>  <SCORE.INTRA.VDW.0>
0

>  <SCORE.INTRA.norm>
0

>  <SCORE.RESTR>
0.529888

>  <SCORE.RESTR.CAVITY>
0.529888

>  <SCORE.RESTR.norm>
0.0481716

>  <SCORE.SYSTEM>
0

>  <SCORE.SYSTEM.CONST>
0

>  <SCORE.SYSTEM.DIHEDRAL>
0

>  <SCORE.SYSTEM.SOLV>
0

>  <SCORE.SYSTEM.norm>
0

>  <SCORE.heavy>
11

>  <SCORE.norm>
-0.70956

>  <RMSD>
2.885

$$$$
ligand
 OpenBabel11021811493D
libRbt.so/2013.1/901 2013/11/27
 11 12  0  0  0  0  0  0  0  0999 V2000
   12.4491   10.7127    8.7166 N   0  0  0  0  0  0  0  0  0  0  0  0
   12.4563   10.0111    7.5683 C   0  0  0  0  0  0  0  0  0  0  0  0
   12.8565    8.6827    7.5858 N   0  0  0  0  0  0  0  0  0  0  0  0
   12.0860   10.5677    6.4043 N   0  0  0  0  0  0  0  0  0  0  0  0
   11.6975   11.8509    6.3361 C   0  0  0  0  0  0  0  0  0  0  0  0
   11.6704   12.6336    7.5123 C   0  0  0  0  0  0  0  0  0  0  0  0
   12.0673   12.0077    8.7354 C   0  0  0  0  0  0  0  0  0  0  0  0
   12.0637   12.7083    9.9167 N   0  0  0  0  0  0  0  0  0  0  0  0
   11.2442   13.8797    7.1579 N   0  0  0  0  0  0  0  0  0  0  0  0
   11.0200   13.9067    5.8785 C   0  0  0  0  0  0  0  0  0  0  0  0
   11.2809   12.6794    5.3235 N   0  0  0  0  0  0  0  0  0  0  0  0
  1  7  2  0  0  0  0
  1  2  1  0  0  0  0
  2  3  1  0  0  0  0
  2  4  2  0  0  0  0
  4  5  1  0  0  0  0
  5  6  2  0  0  0  0
  5 11  1  0  0  0  0
  6  7  1  0  0  0  0
  6  9  1  0  0  0  0
  7  8  1  0  0  0  0
  9 10  1  0  0  0  0
 10 11  2  0  0  0  0
M  END
>  <CHROM.1>
11.90737784,11.76496727,7.38770948,-0.12134609,-1.24123596,1.04223472

>  <Name>
ligand

>  <RI>
0

>  <Rbt.Current_Directory>
/home/itssahil/PROJECTS/Mol_Feturizer/New_Systems/rnas/4FEO

>  <Rbt.Executable>
rbdock ($Id: //depot/dev/client3/rdock/2013.1/src/exe/rbdock.cxx#4 $)

>  <Rbt.Library>
libRbt.so (2013.1, Build901 2013/11/27)

>  <Rbt.Parameter_File>
/export/apps/rDock/src/rDock_2013.1_src/data/scripts/dock_solv.prm

>  <Rbt.Receptor>
prm/pocket_docking_7.prm

>  <SCORE>
-9.78718

>  <SCORE.INTER>
-9.78718

>  <SCORE.INTER.CONST>
1

>  <SCORE.INTER.POLAR>
0

>  <SCORE.INTER.ROT>
0

>  <SCORE.INTER.SOLV>
17.0949

>  <SCORE.INTER.VDW>
-15.8231

>  <SCORE.INTER.norm>
-0.889744

>  <SCORE.INTRA>
0

>  <SCORE.INTRA.DIHEDRAL>
0

>  <SCORE.INTRA.DIHEDRAL.0>
0

>  <SCORE.INTRA.POLAR>
0

>  <SCORE.INTRA.POLAR.0>
0

>  <SCORE.INTRA.REPUL>
0

>  <SCORE.INTRA.REPUL.0>
0

>  <SCORE.INTRA.SOLV>
0

>  <SCORE.INTRA.SOLV.lig_0>
-48.9252

>  <SCORE.INTRA.VDW>
0

>  <SCORE.INTRA.VDW.0>
0

>  <SCORE.INTRA.norm>
0

>  <SCORE.RESTR>
0

>  <SCORE.RESTR.CAVITY>
0

>  <SCORE.RESTR.norm>
0

>  <SCORE.SYSTEM>
0

>  <SCORE.SYSTEM.CONST>
0

>  <SCORE.SYSTEM.DIHEDRAL>
0

>  <SCORE.SYSTEM.SOLV>
0

>  <SCORE.SYSTEM.norm>
0

>  <SCORE.heavy>
11

>  <SCORE.norm>
-0.889744

>  <RMSD>
2.885

$$$$
ligand
 OpenBabel11021811493D
libRbt.so/2013.1/901 2013/11/27
 11 12  0  0  0  0  0  0  0  0999 V2000
   12.4696   10.7186    8.7075 N   0  0  0  0  0  0  0  0  0  0  0  0
   12.4924   10.0186    7.5585 C   0  0  0  0  0  0  0  0  0  0  0  0
   12.9186    8.6983    7.5751 N   0  0  0  0  0  0  0  0  0  0  0  0
   12.1131   10.5692    6.3945 N   0  0  0  0  0  0  0  0  0  0  0  0
   11.6995   11.8445    6.3271 C   0  0  0  0  0  0  0  0  0  0  0  0
   11.6551   12.6252    7.5041 C   0  0  0  0  0  0  0  0  0  0  0  0
   12.0624   12.0058    8.7271 C   0  0  0  0  0  0  0  0  0  0  0  0
   12.0431   12.7049    9.9092 N   0  0  0  0  0  0  0  0  0  0  0  0
   11.2051   13.8630    7.1504 N   0  0  0  0  0  0  0  0  0  0  0  0
   10.9824   13.8872    5.8707 C   0  0  0  0  0  0  0  0  0  0  0  0
   11.2682   12.6658    5.3148 N   0  0  0  0  0  0  0  0  0  0  0  0
  1  7  2  0  0  0  0
  1  2  1  0  0  0  0
  2  3  1  0  0  0  0
  2  4  2  0  0  0  0
  4  5  1  0  0  0  0
  5  6  2  0  0  0  0
  5 11  1  0  0  0  0
  6  7  1  0  0  0  0
  6  9  1  0  0  0  0
  7  8  1  0  0  0  0
  9 10  1  0  0  0  0
 10 11  2  0  0  0  0
M  END
>  <CHROM.1>
11.90934558,11.76153999,7.37893928,-0.08810674,-1.22485533,1.07472217

>  <Name>
ligand

>  <RI>
0

>  <Rbt.Current_Directory>
/home/itssahil/PROJECTS/Mol_Feturizer/New_Systems/rnas/4FEO

>  <Rbt.Executable>
rbdock ($Id: //depot/dev/client3/rdock/2013.1/src/exe/rbdock.cxx#4 $)

>  <Rbt.Library>
libRbt.so (2013.1, Build901 2013/11/27)

>  <Rbt.Parameter_File>
/export/apps/rDock/src/rDock_2013.1_src/data/scripts/dock_solv.prm

>  <Rbt.Receptor>
prm/blind_docking_60.prm

>  <SCORE>
-9.77867

>  <SCORE.INTER>
-9.7788

>  <SCORE.INTER.CONST>
1

>  <SCORE.INTER.POLAR>
0

>  <SCORE.INTER.ROT>
0

>  <SCORE.INTER.SOLV>
16.8577

>  <SCORE.INTER.VDW>
-15.7385

>  <SCORE.INTER.norm>
-0.888982

>  <SCORE.INTRA>
0

>  <SCORE.INTRA.DIHEDRAL>
0

>  <SCORE.INTRA.DIHEDRAL.0>
0

>  <SCORE.INTRA.POLAR>
0

>  <SCORE.INTRA.POLAR.0>
0

>  <SCORE.INTRA.REPUL>
0

>  <SCORE.INTRA.REPUL.0>
0

>  <SCORE.INTRA.SOLV>
0

>  <SCORE.INTRA.SOLV.lig_0>
-48.9252

>  <SCORE.INTRA.VDW>
0

>  <SCORE.INTRA.VDW.0>
0

>  <SCORE.INTRA.norm>
0

>  <SCORE.RESTR>
0.000137065

>  <SCORE.RESTR.CAVITY>
0.000137065

>  <SCORE.RESTR.norm>
1.24604e-05

>  <SCORE.SYSTEM>
0

>  <SCORE.SYSTEM.CONST>
0

>  <SCORE.SYSTEM.DIHEDRAL>
0

>  <SCORE.SYSTEM.SOLV>
0

>  <SCORE.SYSTEM.norm>
0

>  <SCORE.heavy>
11

>  <SCORE.norm>
-0.88897

>  <RMSD>
2.886

$$$$
ligand
 OpenBabel11021811493D
libRbt.so/2013.1/901 2013/11/27
 11 12  0  0  0  0  0  0  0  0999 V2000
   11.8421   11.4050    6.3188 N   0  0  0  0  0  0  0  0  0  0  0  0
   10.9903   12.4397    6.1983 C   0  0  0  0  0  0  0  0  0  0  0  0
   10.3000   12.6168    5.0078 N   0  0  0  0  0  0  0  0  0  0  0  0
   10.7935   13.3067    7.2041 N   0  0  0  0  0  0  0  0  0  0  0  0
   11.4432   13.1805    8.3720 C   0  0  0  0  0  0  0  0  0  0  0  0
   12.3490   12.1112    8.5529 C   0  0  0  0  0  0  0  0  0  0  0  0
   12.5314   11.2042    7.4624 C   0  0  0  0  0  0  0  0  0  0  0  0
   13.3951   10.1416    7.5692 N   0  0  0  0  0  0  0  0  0  0  0  0
   12.8598   12.2239    9.8124 N   0  0  0  0  0  0  0  0  0  0  0  0
   12.3413   13.2646   10.3922 C   0  0  0  0  0  0  0  0  0  0  0  0
   11.4580   13.8889    9.5481 N   0  0  0  0  0  0  0  0  0  0  0  0
  1  7  2  0  0  0  0
  1  2  1  0  0  0  0
  2  3  1  0  0  0  0
  2  4  2  0  0  0  0
  4  5  1  0  0  0  0
  5  6  2  0  0  0  0
  5 11  1  0  0  0  0
  6  7  1  0  0  0  0
  6  9  1  0  0  0  0
  7  8  1  0  0  0  0
  9 10  1  0  0  0  0
 10 11  2  0  0  0  0
M  END
>  <CHROM.1>
11.83988498,12.33725630,7.83465158,-2.04525362,-0.83838259,1.01945390

>  <Name>
ligand

>  <RI>
0

>  <Rbt.Current_Directory>
/home/itssahil/PROJECTS/Mol_Feturizer/New_Systems/rnas/4FEO

>  <Rbt.Executable>
rbdock ($Id: //depot/dev/client3/rdock/2013.1/src/exe/rbdock.cxx#4 $)

>  <Rbt.Library>
libRbt.so (2013.1, Build901 2013/11/27)

>  <Rbt.Parameter_File>
/export/apps/rDock/src/rDock_2013.1_src/data/scripts/dock_solv.prm

>  <Rbt.Receptor>
prm/blind_docking_60.prm

>  <SCORE>
-9.81152

>  <SCORE.INTER>
-9.81152

>  <SCORE.INTER.CONST>
1

>  <SCORE.INTER.POLAR>
0

>  <SCORE.INTER.ROT>
0

>  <SCORE.INTER.SOLV>
16.828

>  <SCORE.INTER.VDW>
-15.7503

>  <SCORE.INTER.norm>
-0.891956

>  <SCORE.INTRA>
0

>  <SCORE.INTRA.DIHEDRAL>
0

>  <SCORE.INTRA.DIHEDRAL.0>
0

>  <SCORE.INTRA.POLAR>
0

>  <SCORE.INTRA.POLAR.0>
0

>  <SCORE.INTRA.REPUL>
0

>  <SCORE.INTRA.REPUL.0>
0

>  <SCORE.INTRA.SOLV>
0

>  <SCORE.INTRA.SOLV.lig_0>
-48.9252

>  <SCORE.INTRA.VDW>
0

>  <SCORE.INTRA.VDW.0>
0

>  <SCORE.INTRA.norm>
0

>  <SCORE.RESTR>
0

>  <SCORE.RESTR.CAVITY>
0

>  <SCORE.RESTR.norm>
0

>  <SCORE.SYSTEM>
0

>  <SCORE.SYSTEM.CONST>
0

>  <SCORE.SYSTEM.DIHEDRAL>
0

>  <SCORE.SYSTEM.SOLV>
0

>  <SCORE.SYSTEM.norm>
0

>  <SCORE.heavy>
11

>  <SCORE.norm>
-0.891956

>  <RMSD>
3.410

$$$$
ligand
 OpenBabel11021811493D
libRbt.so/2013.1/901 2013/11/27
 11 12  0  0  0  0  0  0  0  0999 V2000
   11.8253   11.4159    6.3420 N   0  0  0  0  0  0  0  0  0  0  0  0
   10.9775   12.4537    6.2201 C   0  0  0  0  0  0  0  0  0  0  0  0
   10.2877   12.6318    5.0295 N   0  0  0  0  0  0  0  0  0  0  0  0
   10.7843   13.3230    7.2246 N   0  0  0  0  0  0  0  0  0  0  0  0
   11.4337   13.1961    8.3926 C   0  0  0  0  0  0  0  0  0  0  0  0
   12.3353   12.1234    8.5750 C   0  0  0  0  0  0  0  0  0  0  0  0
   12.5139   11.2141    7.4858 C   0  0  0  0  0  0  0  0  0  0  0  0
   13.3734   10.1482    7.5940 N   0  0  0  0  0  0  0  0  0  0  0  0
   12.8467   12.2361    9.8342 N   0  0  0  0  0  0  0  0  0  0  0  0
   12.3326   13.2797   10.4125 C   0  0  0  0  0  0  0  0  0  0  0  0
   11.4516   13.9062    9.5676 N   0  0  0  0  0  0  0  0  0  0  0  0
  1  7  2  0  0  0  0
  1  2  1  0  0  0  0
  2  3  1  0  0  0  0
  2  4  2  0  0  0  0
  4  5  1  0  0  0  0
  5  6  2  0  0  0  0
  5 11  1  0  0  0  0
  6  7  1  0  0  0  0
  6  9  1  0  0  0  0
  7  8  1  0  0  0  0
  9 10  1  0  0  0  0
 10 11  2  0  0  0  0
M  END
>  <CHROM.1>
11.82696756,12.35043934,7.85643064,-2.04860156,-0.84166024,1.01544664

>  <Name>
ligand

>  <RI>
0

>  <Rbt.Current_Directory>
/home/itssahil/PROJECTS/Mol_Feturizer/New_Systems/rnas/4FEO

>  <Rbt.Executable>
rbdock ($Id: //depot/dev/client3/rdock/2013.1/src/exe/rbdock.cxx#4 $)

>  <Rbt.Library>
libRbt.so (2013.1, Build901 2013/11/27)

>  <Rbt.Parameter_File>
/export/apps/rDock/src/rDock_2013.1_src/data/scripts/dock_solv.prm

>  <Rbt.Receptor>
prm/pocket_docking_6.prm

>  <SCORE>
-9.80154

>  <SCORE.INTER>
-9.80154

>  <SCORE.INTER.CONST>
1

>  <SCORE.INTER.POLAR>
0

>  <SCORE.INTER.ROT>
0

>  <SCORE.INTER.SOLV>
16.7295

>  <SCORE.INTER.VDW>
-15.7109

>  <SCORE.INTER.norm>
-0.891049

>  <SCORE.INTRA>
0

>  <SCORE.INTRA.DIHEDRAL>
0

>  <SCORE.INTRA.DIHEDRAL.0>
0

>  <SCORE.INTRA.POLAR>
0

>  <SCORE.INTRA.POLAR.0>
0

>  <SCORE.INTRA.REPUL>
0

>  <SCORE.INTRA.REPUL.0>
0

>  <SCORE.INTRA.SOLV>
0

>  <SCORE.INTRA.SOLV.lig_0>
-48.9252

>  <SCORE.INTRA.VDW>
0

>  <SCORE.INTRA.VDW.0>
0

>  <SCORE.INTRA.norm>
0

>  <SCORE.RESTR>
0

>  <SCORE.RESTR.CAVITY>
0

>  <SCORE.RESTR.norm>
0

>  <SCORE.SYSTEM>
0

>  <SCORE.SYSTEM.CONST>
0

>  <SCORE.SYSTEM.DIHEDRAL>
0

>  <SCORE.SYSTEM.SOLV>
0

>  <SCORE.SYSTEM.norm>
0

>  <SCORE.heavy>
11

>  <SCORE.norm>
-0.891049

>  <RMSD>
3.410

$$$$
ligand
 OpenBabel11021811493D
libRbt.so/2013.1/901 2013/11/27
 11 12  0  0  0  0  0  0  0  0999 V2000
   11.7447   11.4596    6.3897 N   0  0  0  0  0  0  0  0  0  0  0  0
   10.8860   12.4933    6.3200 C   0  0  0  0  0  0  0  0  0  0  0  0
   10.1439   12.6837    5.1632 N   0  0  0  0  0  0  0  0  0  0  0  0
   10.7315   13.3469    7.3444 N   0  0  0  0  0  0  0  0  0  0  0  0
   11.4320   13.2076    8.4811 C   0  0  0  0  0  0  0  0  0  0  0  0
   12.3472   12.1386    8.6084 C   0  0  0  0  0  0  0  0  0  0  0  0
   12.4838   11.2461    7.4994 C   0  0  0  0  0  0  0  0  0  0  0  0
   13.3537   10.1847    7.5546 N   0  0  0  0  0  0  0  0  0  0  0  0
   12.9124   12.2367    9.8457 N   0  0  0  0  0  0  0  0  0  0  0  0
   12.4176   13.2684   10.4610 C   0  0  0  0  0  0  0  0  0  0  0  0
   11.4968   13.9010    9.6645 N   0  0  0  0  0  0  0  0  0  0  0  0
  1  7  2  0  0  0  0
  1  2  1  0  0  0  0
  2  3  1  0  0  0  0
  2  4  2  0  0  0  0
  4  5  1  0  0  0  0
  5  6  2  0  0  0  0
  5 11  1  0  0  0  0
  6  7  1  0  0  0  0
  6  9  1  0  0  0  0
  7  8  1  0  0  0  0
  9 10  1  0  0  0  0
 10 11  2  0  0  0  0
M  END
>  <CHROM.1>
11.80668594,12.37242393,7.91609781,-2.09782327,-0.81282025,0.99364576

>  <Name>
ligand

>  <RI>
0

>  <Rbt.Current_Directory>
/home/itssahil/PROJECTS/Mol_Feturizer/New_Systems/rnas/4FEO

>  <Rbt.Executable>
rbdock ($Id: //depot/dev/client3/rdock/2013.1/src/exe/rbdock.cxx#4 $)

>  <Rbt.Library>
libRbt.so (2013.1, Build901 2013/11/27)

>  <Rbt.Parameter_File>
/export/apps/rDock/src/rDock_2013.1_src/data/scripts/dock_solv.prm

>  <Rbt.Receptor>
prm/pocket_docking_4.prm

>  <SCORE>
-9.72305

>  <SCORE.INTER>
-9.72305

>  <SCORE.INTER.CONST>
1

>  <SCORE.INTER.POLAR>
0

>  <SCORE.INTER.ROT>
0

>  <SCORE.INTER.SOLV>
15.9015

>  <SCORE.INTER.VDW>
-15.3825

>  <SCORE.INTER.norm>
-0.883914

>  <SCORE.INTRA>
0

>  <SCORE.INTRA.DIHEDRAL>
0

>  <SCORE.INTRA.DIHEDRAL.0>
0

>  <SCORE.INTRA.POLAR>
0

>  <SCORE.INTRA.POLAR.0>
0

>  <SCORE.INTRA.REPUL>
0

>  <SCORE.INTRA.REPUL.0>
0

>  <SCORE.INTRA.SOLV>
0

>  <SCORE.INTRA.SOLV.lig_0>
-48.9252

>  <SCORE.INTRA.VDW>
0

>  <SCORE.INTRA.VDW.0>
0

>  <SCORE.INTRA.norm>
0

>  <SCORE.RESTR>
0

>  <SCORE.RESTR.CAVITY>
0

>  <SCORE.RESTR.norm>
0

>  <SCORE.SYSTEM>
0

>  <SCORE.SYSTEM.CONST>
0

>  <SCORE.SYSTEM.DIHEDRAL>
0

>  <SCORE.SYSTEM.SOLV>
0

>  <SCORE.SYSTEM.norm>
0

>  <SCORE.heavy>
11

>  <SCORE.norm>
-0.883914

>  <RMSD>
3.411

$$$$
ligand
 OpenBabel11021811493D
libRbt.so/2013.1/901 2013/11/27
 11 12  0  0  0  0  0  0  0  0999 V2000
   11.7232   11.4855    6.4190 N   0  0  0  0  0  0  0  0  0  0  0  0
   10.8765   12.5304    6.3732 C   0  0  0  0  0  0  0  0  0  0  0  0
   10.1116   12.7361    5.2341 N   0  0  0  0  0  0  0  0  0  0  0  0
   10.7554   13.3805    7.4050 N   0  0  0  0  0  0  0  0  0  0  0  0
   11.4789   13.2265    8.5253 C   0  0  0  0  0  0  0  0  0  0  0  0
   12.3830   12.1453    8.6272 C   0  0  0  0  0  0  0  0  0  0  0  0
   12.4837   11.2569    7.5110 C   0  0  0  0  0  0  0  0  0  0  0  0
   13.3410   10.1843    7.5418 N   0  0  0  0  0  0  0  0  0  0  0  0
   12.9765   12.2298    9.8521 N   0  0  0  0  0  0  0  0  0  0  0  0
   12.5085   13.2645   10.4832 C   0  0  0  0  0  0  0  0  0  0  0  0
   11.5786   13.9128    9.7104 N   0  0  0  0  0  0  0  0  0  0  0  0
  1  7  2  0  0  0  0
  1  2  1  0  0  0  0
  2  3  1  0  0  0  0
  2  4  2  0  0  0  0
  4  5  1  0  0  0  0
  5  6  2  0  0  0  0
  5 11  1  0  0  0  0
  6  7  1  0  0  0  0
  6  9  1  0  0  0  0
  7  8  1  0  0  0  0
  9 10  1  0  0  0  0
 10 11  2  0  0  0  0
M  END
>  <CHROM.1>
11.83039796,12.38953279,7.94806779,-2.13472862,-0.81120792,0.97190624

>  <Name>
ligand

>  <RI>
0

>  <Rbt.Current_Directory>
/home/itssahil/PROJECTS/Mol_Feturizer/New_Systems/rnas/4FEO

>  <Rbt.Executable>
rbdock ($Id: //depot/dev/client3/rdock/2013.1/src/exe/rbdock.cxx#4 $)

>  <Rbt.Library>
libRbt.so (2013.1, Build901 2013/11/27)

>  <Rbt.Parameter_File>
/export/apps/rDock/src/rDock_2013.1_src/data/scripts/dock_solv.prm

>  <Rbt.Receptor>
prm/pocket_docking_4.prm

>  <SCORE>
-9.75939

>  <SCORE.INTER>
-9.75939

>  <SCORE.INTER.CONST>
1

>  <SCORE.INTER.POLAR>
0

>  <SCORE.INTER.ROT>
0

>  <SCORE.INTER.SOLV>
15.5757

>  <SCORE.INTER.VDW>
-15.2982

>  <SCORE.INTER.norm>
-0.887217

>  <SCORE.INTRA>
0

>  <SCORE.INTRA.DIHEDRAL>
0

>  <SCORE.INTRA.DIHEDRAL.0>
0

>  <SCORE.INTRA.POLAR>
0

>  <SCORE.INTRA.POLAR.0>
0

>  <SCORE.INTRA.REPUL>
0

>  <SCORE.INTRA.REPUL.0>
0

>  <SCORE.INTRA.SOLV>
0

>  <SCORE.INTRA.SOLV.lig_0>
-48.9252

>  <SCORE.INTRA.VDW>
0

>  <SCORE.INTRA.VDW.0>
0

>  <SCORE.INTRA.norm>
0

>  <SCORE.RESTR>
0

>  <SCORE.RESTR.CAVITY>
0

>  <SCORE.RESTR.norm>
0

>  <SCORE.SYSTEM>
0

>  <SCORE.SYSTEM.CONST>
0

>  <SCORE.SYSTEM.DIHEDRAL>
0

>  <SCORE.SYSTEM.SOLV>
0

>  <SCORE.SYSTEM.norm>
0

>  <SCORE.heavy>
11

>  <SCORE.norm>
-0.887217

>  <RMSD>
3.411

$$$$
ligand
 OpenBabel11021811493D
libRbt.so/2013.1/901 2013/11/27
 11 12  0  0  0  0  0  0  0  0999 V2000
   11.8496   11.4113    6.3154 N   0  0  0  0  0  0  0  0  0  0  0  0
   10.9867   12.4379    6.2046 C   0  0  0  0  0  0  0  0  0  0  0  0
   10.2925   12.6172    5.0168 N   0  0  0  0  0  0  0  0  0  0  0  0
   10.7826   13.2947    7.2176 N   0  0  0  0  0  0  0  0  0  0  0  0
   11.4357   13.1660    8.3834 C   0  0  0  0  0  0  0  0  0  0  0  0
   12.3530   12.1049    8.5542 C   0  0  0  0  0  0  0  0  0  0  0  0
   12.5430   11.2086    7.4561 C   0  0  0  0  0  0  0  0  0  0  0  0
   13.4181   10.1544    7.5529 N   0  0  0  0  0  0  0  0  0  0  0  0
   12.8648   12.2129    9.8137 N   0  0  0  0  0  0  0  0  0  0  0  0
   12.3365   13.2434   10.4027 C   0  0  0  0  0  0  0  0  0  0  0  0
   11.4452   13.8651    9.5652 N   0  0  0  0  0  0  0  0  0  0  0  0
  1  7  2  0  0  0  0
  1  2  1  0  0  0  0
  2  3  1  0  0  0  0
  2  4  2  0  0  0  0
  4  5  1  0  0  0  0
  5  6  2  0  0  0  0
  5 11  1  0  0  0  0
  6  7  1  0  0  0  0
  6  9  1  0  0  0  0
  7  8  1  0  0  0  0
  9 10  1  0  0  0  0
 10 11  2  0  0  0  0
M  END
>  <CHROM.1>
11.84028340,12.33132287,7.83863383,-2.03935230,-0.82847806,1.03183979

>  <Name>
ligand

>  <RI>
0

>  <Rbt.Current_Directory>
/home/itssahil/PROJECTS/Mol_Feturizer/New_Systems/rnas/4FEO

>  <Rbt.Executable>
rbdock ($Id: //depot/dev/client3/rdock/2013.1/src/exe/rbdock.cxx#4 $)

>  <Rbt.Library>
libRbt.so (2013.1, Build901 2013/11/27)

>  <Rbt.Parameter_File>
/export/apps/rDock/src/rDock_2013.1_src/data/scripts/dock_solv.prm

>  <Rbt.Receptor>
prm/blind_docking_60.prm

>  <SCORE>
-9.83955

>  <SCORE.INTER>
-9.83955

>  <SCORE.INTER.CONST>
1

>  <SCORE.INTER.POLAR>
0

>  <SCORE.INTER.ROT>
0

>  <SCORE.INTER.SOLV>
16.7584

>  <SCORE.INTER.VDW>
-15.7458

>  <SCORE.INTER.norm>
-0.894504

>  <SCORE.INTRA>
0

>  <SCORE.INTRA.DIHEDRAL>
0

>  <SCORE.INTRA.DIHEDRAL.0>
0

>  <SCORE.INTRA.POLAR>
0

>  <SCORE.INTRA.POLAR.0>
0

>  <SCORE.INTRA.REPUL>
0

>  <SCORE.INTRA.REPUL.0>
0

>  <SCORE.INTRA.SOLV>
0

>  <SCORE.INTRA.SOLV.lig_0>
-48.9252

>  <SCORE.INTRA.VDW>
0

>  <SCORE.INTRA.VDW.0>
0

>  <SCORE.INTRA.norm>
0

>  <SCORE.RESTR>
0

>  <SCORE.RESTR.CAVITY>
0

>  <SCORE.RESTR.norm>
0

>  <SCORE.SYSTEM>
0

>  <SCORE.SYSTEM.CONST>
0

>  <SCORE.SYSTEM.DIHEDRAL>
0

>  <SCORE.SYSTEM.SOLV>
0

>  <SCORE.SYSTEM.norm>
0

>  <SCORE.heavy>
11

>  <SCORE.norm>
-0.894504

>  <RMSD>
3.412

$$$$
ligand
 OpenBabel11021811493D
libRbt.so/2013.1/901 2013/11/27
 11 12  0  0  0  0  0  0  0  0999 V2000
   11.7646   11.4790    6.3570 N   0  0  0  0  0  0  0  0  0  0  0  0
   10.9094   12.5156    6.2871 C   0  0  0  0  0  0  0  0  0  0  0  0
   10.1815   12.7191    5.1235 N   0  0  0  0  0  0  0  0  0  0  0  0
   10.7448   13.3595    7.3179 N   0  0  0  0  0  0  0  0  0  0  0  0
   11.4313   13.2074    8.4614 C   0  0  0  0  0  0  0  0  0  0  0  0
   12.3424   12.1348    8.5892 C   0  0  0  0  0  0  0  0  0  0  0  0
   12.4899   11.2528    7.4731 C   0  0  0  0  0  0  0  0  0  0  0  0
   13.3565   10.1887    7.5283 N   0  0  0  0  0  0  0  0  0  0  0  0
   12.8930   12.2194    9.8340 N   0  0  0  0  0  0  0  0  0  0  0  0
   12.3934   13.2464   10.4534 C   0  0  0  0  0  0  0  0  0  0  0  0
   11.4837   13.8890    9.6522 N   0  0  0  0  0  0  0  0  0  0  0  0
  1  7  2  0  0  0  0
  1  2  1  0  0  0  0
  2  3  1  0  0  0  0
  2  4  2  0  0  0  0
  4  5  1  0  0  0  0
  5  6  2  0  0  0  0
  5 11  1  0  0  0  0
  6  7  1  0  0  0  0
  6  9  1  0  0  0  0
  7  8  1  0  0  0  0
  9 10  1  0  0  0  0
 10 11  2  0  0  0  0
M  END
>  <CHROM.1>
11.81068302,12.37675074,7.89278218,-2.08515201,-0.82135227,1.01263394

>  <Name>
ligand

>  <RI>
0

>  <Rbt.Current_Directory>
/home/itssahil/PROJECTS/Mol_Feturizer/New_Systems/rnas/4FEO

>  <Rbt.Executable>
rbdock ($Id: //depot/dev/client3/rdock/2013.1/src/exe/rbdock.cxx#4 $)

>  <Rbt.Library>
libRbt.so (2013.1, Build901 2013/11/27)

>  <Rbt.Parameter_File>
/export/apps/rDock/src/rDock_2013.1_src/data/scripts/dock_solv.prm

>  <Rbt.Receptor>
prm/pocket_docking_5.prm

>  <SCORE>
-9.78484

>  <SCORE.INTER>
-9.78484

>  <SCORE.INTER.CONST>
1

>  <SCORE.INTER.POLAR>
0

>  <SCORE.INTER.ROT>
0

>  <SCORE.INTER.SOLV>
16.0497

>  <SCORE.INTER.VDW>
-15.4731

>  <SCORE.INTER.norm>
-0.889531

>  <SCORE.INTRA>
0

>  <SCORE.INTRA.DIHEDRAL>
0

>  <SCORE.INTRA.DIHEDRAL.0>
0

>  <SCORE.INTRA.POLAR>
0

>  <SCORE.INTRA.POLAR.0>
0

>  <SCORE.INTRA.REPUL>
0

>  <SCORE.INTRA.REPUL.0>
0

>  <SCORE.INTRA.SOLV>
0

>  <SCORE.INTRA.SOLV.lig_0>
-48.9252

>  <SCORE.INTRA.VDW>
0

>  <SCORE.INTRA.VDW.0>
0

>  <SCORE.INTRA.norm>
0

>  <SCORE.RESTR>
0

>  <SCORE.RESTR.CAVITY>
0

>  <SCORE.RESTR.norm>
0

>  <SCORE.SYSTEM>
0

>  <SCORE.SYSTEM.CONST>
0

>  <SCORE.SYSTEM.DIHEDRAL>
0

>  <SCORE.SYSTEM.SOLV>
0

>  <SCORE.SYSTEM.norm>
0

>  <SCORE.heavy>
11

>  <SCORE.norm>
-0.889531

>  <RMSD>
3.412

$$$$
ligand
 OpenBabel11021811493D
libRbt.so/2013.1/901 2013/11/27
 11 12  0  0  0  0  0  0  0  0999 V2000
   11.8556   11.4304    6.3327 N   0  0  0  0  0  0  0  0  0  0  0  0
   11.0045   12.4673    6.2271 C   0  0  0  0  0  0  0  0  0  0  0  0
   10.3077   12.6568    5.0423 N   0  0  0  0  0  0  0  0  0  0  0  0
   10.8146   13.3249    7.2422 N   0  0  0  0  0  0  0  0  0  0  0  0
   11.4707   13.1865    8.4052 C   0  0  0  0  0  0  0  0  0  0  0  0
   12.3761   12.1143    8.5706 C   0  0  0  0  0  0  0  0  0  0  0  0
   12.5510   11.2176    7.4704 C   0  0  0  0  0  0  0  0  0  0  0  0
   13.4138   10.1529    7.5621 N   0  0  0  0  0  0  0  0  0  0  0  0
   12.8941   12.2142    9.8282 N   0  0  0  0  0  0  0  0  0  0  0  0
   12.3805   13.2499   10.4209 C   0  0  0  0  0  0  0  0  0  0  0  0
   11.4933   13.8836    9.5880 N   0  0  0  0  0  0  0  0  0  0  0  0
  1  7  2  0  0  0  0
  1  2  1  0  0  0  0
  2  3  1  0  0  0  0
  2  4  2  0  0  0  0
  4  5  1  0  0  0  0
  5  6  2  0  0  0  0
  5 11  1  0  0  0  0
  6  7  1  0  0  0  0
  6  9  1  0  0  0  0
  7  8  1  0  0  0  0
  9 10  1  0  0  0  0
 10 11  2  0  0  0  0
M  END
>  <CHROM.1>
11.86322761,12.34797573,7.85747516,-2.05357286,-0.83661094,1.02291411

>  <Name>
ligand

>  <RI>
0

>  <Rbt.Current_Directory>
/home/itssahil/PROJECTS/Mol_Feturizer/New_Systems/rnas/4FEO

>  <Rbt.Executable>
rbdock ($Id: //depot/dev/client3/rdock/2013.1/src/exe/rbdock.cxx#4 $)

>  <Rbt.Library>
libRbt.so (2013.1, Build901 2013/11/27)

>  <Rbt.Parameter_File>
/export/apps/rDock/src/rDock_2013.1_src/data/scripts/dock_solv.prm

>  <Rbt.Receptor>
prm/pocket_docking_5.prm

>  <SCORE>
-9.82017

>  <SCORE.INTER>
-9.82017

>  <SCORE.INTER.CONST>
1

>  <SCORE.INTER.POLAR>
0

>  <SCORE.INTER.ROT>
0

>  <SCORE.INTER.SOLV>
16.6626

>  <SCORE.INTER.VDW>
-15.701

>  <SCORE.INTER.norm>
-0.892742

>  <SCORE.INTRA>
0

>  <SCORE.INTRA.DIHEDRAL>
0

>  <SCORE.INTRA.DIHEDRAL.0>
0

>  <SCORE.INTRA.POLAR>
0

>  <SCORE.INTRA.POLAR.0>
0

>  <SCORE.INTRA.REPUL>
0

>  <SCORE.INTRA.REPUL.0>
0

>  <SCORE.INTRA.SOLV>
0

>  <SCORE.INTRA.SOLV.lig_0>
-48.9252

>  <SCORE.INTRA.VDW>
0

>  <SCORE.INTRA.VDW.0>
0

>  <SCORE.INTRA.norm>
0

>  <SCORE.RESTR>
0

>  <SCORE.RESTR.CAVITY>
0

>  <SCORE.RESTR.norm>
0

>  <SCORE.SYSTEM>
0

>  <SCORE.SYSTEM.CONST>
0

>  <SCORE.SYSTEM.DIHEDRAL>
0

>  <SCORE.SYSTEM.SOLV>
0

>  <SCORE.SYSTEM.norm>
0

>  <SCORE.heavy>
11

>  <SCORE.norm>
-0.892742

>  <RMSD>
3.414

$$$$
ligand
 OpenBabel11021811493D
libRbt.so/2013.1/901 2013/11/27
 11 12  0  0  0  0  0  0  0  0999 V2000
   11.8554   11.4360    6.3380 N   0  0  0  0  0  0  0  0  0  0  0  0
   11.0075   12.4752    6.2300 C   0  0  0  0  0  0  0  0  0  0  0  0
   10.3134   12.6657    5.0438 N   0  0  0  0  0  0  0  0  0  0  0  0
   10.8182   13.3341    7.2441 N   0  0  0  0  0  0  0  0  0  0  0  0
   11.4719   13.1949    8.4084 C   0  0  0  0  0  0  0  0  0  0  0  0
   12.3739   12.1202    8.5763 C   0  0  0  0  0  0  0  0  0  0  0  0
   12.5483   11.2221    7.4771 C   0  0  0  0  0  0  0  0  0  0  0  0
   13.4079   10.1551    7.5711 N   0  0  0  0  0  0  0  0  0  0  0  0
   12.8900   12.2197    9.8347 N   0  0  0  0  0  0  0  0  0  0  0  0
   12.3782   13.2574   10.4257 C   0  0  0  0  0  0  0  0  0  0  0  0
   11.4943   13.8928    9.5906 N   0  0  0  0  0  0  0  0  0  0  0  0
  1  7  2  0  0  0  0
  1  2  1  0  0  0  0
  2  3  1  0  0  0  0
  2  4  2  0  0  0  0
  4  5  1  0  0  0  0
  5  6  2  0  0  0  0
  5 11  1  0  0  0  0
  6  7  1  0  0  0  0
  6  9  1  0  0  0  0
  7  8  1  0  0  0  0
  9 10  1  0  0  0  0
 10 11  2  0  0  0  0
M  END
>  <CHROM.1>
11.86297250,12.35476351,7.86203875,-2.05349376,-0.83993284,1.02216315

>  <Name>
ligand

>  <RI>
0

>  <Rbt.Current_Directory>
/home/itssahil/PROJECTS/Mol_Feturizer/New_Systems/rnas/4FEO

>  <Rbt.Executable>
rbdock ($Id: //depot/dev/client3/rdock/2013.1/src/exe/rbdock.cxx#4 $)

>  <Rbt.Library>
libRbt.so (2013.1, Build901 2013/11/27)

>  <Rbt.Parameter_File>
/export/apps/rDock/src/rDock_2013.1_src/data/scripts/dock_solv.prm

>  <Rbt.Receptor>
prm/pocket_docking_7.prm

>  <SCORE>
-9.81789

>  <SCORE.INTER>
-9.81789

>  <SCORE.INTER.CONST>
1

>  <SCORE.INTER.POLAR>
0

>  <SCORE.INTER.ROT>
0

>  <SCORE.INTER.SOLV>
16.6649

>  <SCORE.INTER.VDW>
-15.7002

>  <SCORE.INTER.norm>
-0.892535

>  <SCORE.INTRA>
0

>  <SCORE.INTRA.DIHEDRAL>
0

>  <SCORE.INTRA.DIHEDRAL.0>
0

>  <SCORE.INTRA.POLAR>
0

>  <SCORE.INTRA.POLAR.0>
0

>  <SCORE.INTRA.REPUL>
0

>  <SCORE.INTRA.REPUL.0>
0

>  <SCORE.INTRA.SOLV>
0

>  <SCORE.INTRA.SOLV.lig_0>
-48.9252

>  <SCORE.INTRA.VDW>
0

>  <SCORE.INTRA.VDW.0>
0

>  <SCORE.INTRA.norm>
0

>  <SCORE.RESTR>
0

>  <SCORE.RESTR.CAVITY>
0

>  <SCORE.RESTR.norm>
0

>  <SCORE.SYSTEM>
0

>  <SCORE.SYSTEM.CONST>
0

>  <SCORE.SYSTEM.DIHEDRAL>
0

>  <SCORE.SYSTEM.SOLV>
0

>  <SCORE.SYSTEM.norm>
0

>  <SCORE.heavy>
11

>  <SCORE.norm>
-0.892535

>  <RMSD>
3.414

$$$$
ligand
 OpenBabel11021811493D
libRbt.so/2013.1/901 2013/11/27
 11 12  0  0  0  0  0  0  0  0999 V2000
   11.8842   11.4566    6.3102 N   0  0  0  0  0  0  0  0  0  0  0  0
   11.0428   12.4999    6.1903 C   0  0  0  0  0  0  0  0  0  0  0  0
   10.3754   12.7006    4.9906 N   0  0  0  0  0  0  0  0  0  0  0  0
   10.8348   13.3532    7.2055 N   0  0  0  0  0  0  0  0  0  0  0  0
   11.4624   13.2040    8.3828 C   0  0  0  0  0  0  0  0  0  0  0  0
   12.3563   12.1247    8.5635 C   0  0  0  0  0  0  0  0  0  0  0  0
   12.5512   11.2329    7.4627 C   0  0  0  0  0  0  0  0  0  0  0  0
   13.4044   10.1618    7.5686 N   0  0  0  0  0  0  0  0  0  0  0  0
   12.8453   12.2143    9.8335 N   0  0  0  0  0  0  0  0  0  0  0  0
   12.3248   13.2502   10.4197 C   0  0  0  0  0  0  0  0  0  0  0  0
   11.4617   13.8944    9.5697 N   0  0  0  0  0  0  0  0  0  0  0  0
  1  7  2  0  0  0  0
  1  2  1  0  0  0  0
  2  3  1  0  0  0  0
  2  4  2  0  0  0  0
  4  5  1  0  0  0  0
  5  6  2  0  0  0  0
  5 11  1  0  0  0  0
  6  7  1  0  0  0  0
  6  9  1  0  0  0  0
  7  8  1  0  0  0  0
  9 10  1  0  0  0  0
 10 11  2  0  0  0  0
M  END
>  <CHROM.1>
11.86203274,12.36580666,7.83980108,-2.02823902,-0.85443828,1.04739960

>  <Name>
ligand

>  <RI>
0

>  <Rbt.Current_Directory>
/home/itssahil/PROJECTS/Mol_Feturizer/New_Systems/rnas/4FEO

>  <Rbt.Executable>
rbdock ($Id: //depot/dev/client3/rdock/2013.1/src/exe/rbdock.cxx#4 $)

>  <Rbt.Library>
libRbt.so (2013.1, Build901 2013/11/27)

>  <Rbt.Parameter_File>
/export/apps/rDock/src/rDock_2013.1_src/data/scripts/dock_solv.prm

>  <Rbt.Receptor>
prm/blind_docking_100.prm

>  <SCORE>
-9.80682

>  <SCORE.INTER>
-9.80682

>  <SCORE.INTER.CONST>
1

>  <SCORE.INTER.POLAR>
0

>  <SCORE.INTER.ROT>
0

>  <SCORE.INTER.SOLV>
16.9567

>  <SCORE.INTER.VDW>
-15.7901

>  <SCORE.INTER.norm>
-0.891529

>  <SCORE.INTRA>
0

>  <SCORE.INTRA.DIHEDRAL>
0

>  <SCORE.INTRA.DIHEDRAL.0>
0

>  <SCORE.INTRA.POLAR>
0

>  <SCORE.INTRA.POLAR.0>
0

>  <SCORE.INTRA.REPUL>
0

>  <SCORE.INTRA.REPUL.0>
0

>  <SCORE.INTRA.SOLV>
0

>  <SCORE.INTRA.SOLV.lig_0>
-48.9252

>  <SCORE.INTRA.VDW>
0

>  <SCORE.INTRA.VDW.0>
0

>  <SCORE.INTRA.norm>
0

>  <SCORE.RESTR>
0

>  <SCORE.RESTR.CAVITY>
0

>  <SCORE.RESTR.norm>
0

>  <SCORE.SYSTEM>
0

>  <SCORE.SYSTEM.CONST>
0

>  <SCORE.SYSTEM.DIHEDRAL>
0

>  <SCORE.SYSTEM.SOLV>
0

>  <SCORE.SYSTEM.norm>
0

>  <SCORE.heavy>
11

>  <SCORE.norm>
-0.891529

>  <RMSD>
3.416

$$$$
ligand
 OpenBabel11021811493D
libRbt.so/2013.1/901 2013/11/27
 11 12  0  0  0  0  0  0  0  0999 V2000
   11.8700   11.4720    6.3379 N   0  0  0  0  0  0  0  0  0  0  0  0
   11.0328   12.5201    6.2317 C   0  0  0  0  0  0  0  0  0  0  0  0
   10.3475   12.7250    5.0429 N   0  0  0  0  0  0  0  0  0  0  0  0
   10.8460   13.3742    7.2503 N   0  0  0  0  0  0  0  0  0  0  0  0
   11.4915   13.2211    8.4174 C   0  0  0  0  0  0  0  0  0  0  0  0
   12.3820   12.1367    8.5835 C   0  0  0  0  0  0  0  0  0  0  0  0
   12.5541   11.2441    7.4795 C   0  0  0  0  0  0  0  0  0  0  0  0
   13.4028   10.1681    7.5715 N   0  0  0  0  0  0  0  0  0  0  0  0
   12.8917   12.2230    9.8455 N   0  0  0  0  0  0  0  0  0  0  0  0
   12.3866   13.2617   10.4403 C   0  0  0  0  0  0  0  0  0  0  0  0
   11.5137   13.9111    9.6043 N   0  0  0  0  0  0  0  0  0  0  0  0
  1  7  2  0  0  0  0
  1  2  1  0  0  0  0
  2  3  1  0  0  0  0
  2  4  2  0  0  0  0
  4  5  1  0  0  0  0
  5  6  2  0  0  0  0
  5 11  1  0  0  0  0
  6  7  1  0  0  0  0
  6  9  1  0  0  0  0
  7  8  1  0  0  0  0
  9 10  1  0  0  0  0
 10 11  2  0  0  0  0
M  END
>  <CHROM.1>
11.87757512,12.38079326,7.86786571,-2.05360575,-0.85122627,1.02857934

>  <Name>
ligand

>  <RI>
0

>  <Rbt.Current_Directory>
/home/itssahil/PROJECTS/Mol_Feturizer/New_Systems/rnas/4FEO

>  <Rbt.Executable>
rbdock ($Id: //depot/dev/client3/rdock/2013.1/src/exe/rbdock.cxx#4 $)

>  <Rbt.Library>
libRbt.so (2013.1, Build901 2013/11/27)

>  <Rbt.Parameter_File>
/export/apps/rDock/src/rDock_2013.1_src/data/scripts/dock_solv.prm

>  <Rbt.Receptor>
prm/blind_docking_100.prm

>  <SCORE>
-9.85635

>  <SCORE.INTER>
-9.85635

>  <SCORE.INTER.CONST>
1

>  <SCORE.INTER.POLAR>
0

>  <SCORE.INTER.ROT>
0

>  <SCORE.INTER.SOLV>
16.7011

>  <SCORE.INTER.VDW>
-15.7379

>  <SCORE.INTER.norm>
-0.896031

>  <SCORE.INTRA>
0

>  <SCORE.INTRA.DIHEDRAL>
0

>  <SCORE.INTRA.DIHEDRAL.0>
0

>  <SCORE.INTRA.POLAR>
0

>  <SCORE.INTRA.POLAR.0>
0

>  <SCORE.INTRA.REPUL>
0

>  <SCORE.INTRA.REPUL.0>
0

>  <SCORE.INTRA.SOLV>
0

>  <SCORE.INTRA.SOLV.lig_0>
-48.9252

>  <SCORE.INTRA.VDW>
0

>  <SCORE.INTRA.VDW.0>
0

>  <SCORE.INTRA.norm>
0

>  <SCORE.RESTR>
0

>  <SCORE.RESTR.CAVITY>
0

>  <SCORE.RESTR.norm>
0

>  <SCORE.SYSTEM>
0

>  <SCORE.SYSTEM.CONST>
0

>  <SCORE.SYSTEM.DIHEDRAL>
0

>  <SCORE.SYSTEM.SOLV>
0

>  <SCORE.SYSTEM.norm>
0

>  <SCORE.heavy>
11

>  <SCORE.norm>
-0.896031

>  <RMSD>
3.417

$$$$
ligand
 OpenBabel11021811493D
libRbt.so/2013.1/901 2013/11/27
 11 12  0  0  0  0  0  0  0  0999 V2000
   11.8051   11.5054    6.3819 N   0  0  0  0  0  0  0  0  0  0  0  0
   10.9735   12.5608    6.3092 C   0  0  0  0  0  0  0  0  0  0  0  0
   10.2528   12.7793    5.1440 N   0  0  0  0  0  0  0  0  0  0  0  0
   10.8260   13.4094    7.3388 N   0  0  0  0  0  0  0  0  0  0  0  0
   11.5067   13.2432    8.4839 C   0  0  0  0  0  0  0  0  0  0  0  0
   12.3931   12.1505    8.6146 C   0  0  0  0  0  0  0  0  0  0  0  0
   12.5230   11.2642    7.4998 C   0  0  0  0  0  0  0  0  0  0  0  0
   13.3653   10.1809    7.5579 N   0  0  0  0  0  0  0  0  0  0  0  0
   12.9431   12.2241    9.8604 N   0  0  0  0  0  0  0  0  0  0  0  0
   12.4655   13.2628   10.4777 C   0  0  0  0  0  0  0  0  0  0  0  0
   11.5720   13.9248    9.6740 N   0  0  0  0  0  0  0  0  0  0  0  0
  1  7  2  0  0  0  0
  1  2  1  0  0  0  0
  2  3  1  0  0  0  0
  2  4  2  0  0  0  0
  4  5  1  0  0  0  0
  5  6  2  0  0  0  0
  5 11  1  0  0  0  0
  6  7  1  0  0  0  0
  6  9  1  0  0  0  0
  7  8  1  0  0  0  0
  9 10  1  0  0  0  0
 10 11  2  0  0  0  0
M  END
>  <CHROM.1>
11.86834185,12.40357385,7.91687722,-2.10053331,-0.84142275,1.00014632

>  <Name>
ligand

>  <RI>
0

>  <Rbt.Current_Directory>
/home/itssahil/PROJECTS/Mol_Feturizer/New_Systems/rnas/4FEO

>  <Rbt.Executable>
rbdock ($Id: //depot/dev/client3/rdock/2013.1/src/exe/rbdock.cxx#4 $)

>  <Rbt.Library>
libRbt.so (2013.1, Build901 2013/11/27)

>  <Rbt.Parameter_File>
/export/apps/rDock/src/rDock_2013.1_src/data/scripts/dock_solv.prm

>  <Rbt.Receptor>
prm/blind_docking_40.prm

>  <SCORE>
-9.78767

>  <SCORE.INTER>
-9.78767

>  <SCORE.INTER.CONST>
1

>  <SCORE.INTER.POLAR>
0

>  <SCORE.INTER.ROT>
0

>  <SCORE.INTER.SOLV>
16.0621

>  <SCORE.INTER.VDW>
-15.4791

>  <SCORE.INTER.norm>
-0.889788

>  <SCORE.INTRA>
0

>  <SCORE.INTRA.DIHEDRAL>
0

>  <SCORE.INTRA.DIHEDRAL.0>
0

>  <SCORE.INTRA.POLAR>
0

>  <SCORE.INTRA.POLAR.0>
0

>  <SCORE.INTRA.REPUL>
0

>  <SCORE.INTRA.REPUL.0>
0

>  <SCORE.INTRA.SOLV>
0

>  <SCORE.INTRA.SOLV.lig_0>
-48.9252

>  <SCORE.INTRA.VDW>
0

>  <SCORE.INTRA.VDW.0>
0

>  <SCORE.INTRA.norm>
0

>  <SCORE.RESTR>
0

>  <SCORE.RESTR.CAVITY>
0

>  <SCORE.RESTR.norm>
0

>  <SCORE.SYSTEM>
0

>  <SCORE.SYSTEM.CONST>
0

>  <SCORE.SYSTEM.DIHEDRAL>
0

>  <SCORE.SYSTEM.SOLV>
0

>  <SCORE.SYSTEM.norm>
0

>  <SCORE.heavy>
11

>  <SCORE.norm>
-0.889788

>  <RMSD>
3.417

$$$$
ligand
 OpenBabel11021811493D
libRbt.so/2013.1/901 2013/11/27
 11 12  0  0  0  0  0  0  0  0999 V2000
   11.8646   11.4664    6.3504 N   0  0  0  0  0  0  0  0  0  0  0  0
   11.0288   12.5151    6.2393 C   0  0  0  0  0  0  0  0  0  0  0  0
   10.3448   12.7161    5.0490 N   0  0  0  0  0  0  0  0  0  0  0  0
   10.8421   13.3735    7.2543 N   0  0  0  0  0  0  0  0  0  0  0  0
   11.4863   13.2243    8.4225 C   0  0  0  0  0  0  0  0  0  0  0  0
   12.3754   12.1395    8.5938 C   0  0  0  0  0  0  0  0  0  0  0  0
   12.5474   11.2423    7.4935 C   0  0  0  0  0  0  0  0  0  0  0  0
   13.3947   10.1656    7.5907 N   0  0  0  0  0  0  0  0  0  0  0  0
   12.8840   12.2302    9.8559 N   0  0  0  0  0  0  0  0  0  0  0  0
   12.3796   13.2720   10.4460 C   0  0  0  0  0  0  0  0  0  0  0  0
   11.5084   13.9191    9.6067 N   0  0  0  0  0  0  0  0  0  0  0  0
  1  7  2  0  0  0  0
  1  2  1  0  0  0  0
  2  3  1  0  0  0  0
  2  4  2  0  0  0  0
  4  5  1  0  0  0  0
  5  6  2  0  0  0  0
  5 11  1  0  0  0  0
  6  7  1  0  0  0  0
  6  9  1  0  0  0  0
  7  8  1  0  0  0  0
  9 10  1  0  0  0  0
 10 11  2  0  0  0  0
M  END
>  <CHROM.1>
11.87188763,12.38135121,7.87673058,-2.05338897,-0.85275256,1.02472741

>  <Name>
ligand

>  <RI>
0

>  <Rbt.Current_Directory>
/home/itssahil/PROJECTS/Mol_Feturizer/New_Systems/rnas/4FEO

>  <Rbt.Executable>
rbdock ($Id: //depot/dev/client3/rdock/2013.1/src/exe/rbdock.cxx#4 $)

>  <Rbt.Library>
libRbt.so (2013.1, Build901 2013/11/27)

>  <Rbt.Parameter_File>
/export/apps/rDock/src/rDock_2013.1_src/data/scripts/dock_solv.prm

>  <Rbt.Receptor>
prm/blind_docking_40.prm

>  <SCORE>
-9.86017

>  <SCORE.INTER>
-9.86017

>  <SCORE.INTER.CONST>
1

>  <SCORE.INTER.POLAR>
0

>  <SCORE.INTER.ROT>
0

>  <SCORE.INTER.SOLV>
16.685

>  <SCORE.INTER.VDW>
-15.7351

>  <SCORE.INTER.norm>
-0.896379

>  <SCORE.INTRA>
0

>  <SCORE.INTRA.DIHEDRAL>
0

>  <SCORE.INTRA.DIHEDRAL.0>
0

>  <SCORE.INTRA.POLAR>
0

>  <SCORE.INTRA.POLAR.0>
0

>  <SCORE.INTRA.REPUL>
0

>  <SCORE.INTRA.REPUL.0>
0

>  <SCORE.INTRA.SOLV>
0

>  <SCORE.INTRA.SOLV.lig_0>
-48.9252

>  <SCORE.INTRA.VDW>
0

>  <SCORE.INTRA.VDW.0>
0

>  <SCORE.INTRA.norm>
0

>  <SCORE.RESTR>
0

>  <SCORE.RESTR.CAVITY>
0

>  <SCORE.RESTR.norm>
0

>  <SCORE.SYSTEM>
0

>  <SCORE.SYSTEM.CONST>
0

>  <SCORE.SYSTEM.DIHEDRAL>
0

>  <SCORE.SYSTEM.SOLV>
0

>  <SCORE.SYSTEM.norm>
0

>  <SCORE.heavy>
11

>  <SCORE.norm>
-0.896379

>  <RMSD>
3.417

$$$$
ligand
 OpenBabel11021811493D
libRbt.so/2013.1/901 2013/11/27
 11 12  0  0  0  0  0  0  0  0999 V2000
   11.8067   11.5043    6.3820 N   0  0  0  0  0  0  0  0  0  0  0  0
   10.9660   12.5520    6.3028 C   0  0  0  0  0  0  0  0  0  0  0  0
   10.2444   12.7579    5.1358 N   0  0  0  0  0  0  0  0  0  0  0  0
   10.8100   13.4048    7.3277 N   0  0  0  0  0  0  0  0  0  0  0  0
   11.4910   13.2507    8.4742 C   0  0  0  0  0  0  0  0  0  0  0  0
   12.3869   12.1666    8.6117 C   0  0  0  0  0  0  0  0  0  0  0  0
   12.5256   11.2755    7.5018 C   0  0  0  0  0  0  0  0  0  0  0  0
   13.3773   10.1999    7.5665 N   0  0  0  0  0  0  0  0  0  0  0  0
   12.9350   12.2517    9.8575 N   0  0  0  0  0  0  0  0  0  0  0  0
   12.4478   13.2895   10.4688 C   0  0  0  0  0  0  0  0  0  0  0  0
   11.5493   13.9393    9.6608 N   0  0  0  0  0  0  0  0  0  0  0  0
  1  7  2  0  0  0  0
  1  2  1  0  0  0  0
  2  3  1  0  0  0  0
  2  4  2  0  0  0  0
  4  5  1  0  0  0  0
  5  6  2  0  0  0  0
  5 11  1  0  0  0  0
  6  7  1  0  0  0  0
  6  9  1  0  0  0  0
  7  8  1  0  0  0  0
  9 10  1  0  0  0  0
 10 11  2  0  0  0  0
M  END
>  <CHROM.1>
11.86062192,12.41130113,7.91211402,-2.09229197,-0.83452654,1.00089453

>  <Name>
ligand

>  <RI>
0

>  <Rbt.Current_Directory>
/home/itssahil/PROJECTS/Mol_Feturizer/New_Systems/rnas/4FEO

>  <Rbt.Executable>
rbdock ($Id: //depot/dev/client3/rdock/2013.1/src/exe/rbdock.cxx#4 $)

>  <Rbt.Library>
libRbt.so (2013.1, Build901 2013/11/27)

>  <Rbt.Parameter_File>
/export/apps/rDock/src/rDock_2013.1_src/data/scripts/dock_solv.prm

>  <Rbt.Receptor>
prm/pocket_docking_5.prm

>  <SCORE>
-9.7949

>  <SCORE.INTER>
-9.7949

>  <SCORE.INTER.CONST>
1

>  <SCORE.INTER.POLAR>
0

>  <SCORE.INTER.ROT>
0

>  <SCORE.INTER.SOLV>
16.1003

>  <SCORE.INTER.VDW>
-15.4967

>  <SCORE.INTER.norm>
-0.890446

>  <SCORE.INTRA>
0

>  <SCORE.INTRA.DIHEDRAL>
0

>  <SCORE.INTRA.DIHEDRAL.0>
0

>  <SCORE.INTRA.POLAR>
0

>  <SCORE.INTRA.POLAR.0>
0

>  <SCORE.INTRA.REPUL>
0

>  <SCORE.INTRA.REPUL.0>
0

>  <SCORE.INTRA.SOLV>
0

>  <SCORE.INTRA.SOLV.lig_0>
-48.9252

>  <SCORE.INTRA.VDW>
0

>  <SCORE.INTRA.VDW.0>
0

>  <SCORE.INTRA.norm>
0

>  <SCORE.RESTR>
0

>  <SCORE.RESTR.CAVITY>
0

>  <SCORE.RESTR.norm>
0

>  <SCORE.SYSTEM>
0

>  <SCORE.SYSTEM.CONST>
0

>  <SCORE.SYSTEM.DIHEDRAL>
0

>  <SCORE.SYSTEM.SOLV>
0

>  <SCORE.SYSTEM.norm>
0

>  <SCORE.heavy>
11

>  <SCORE.norm>
-0.890446

>  <RMSD>
3.417

$$$$
ligand
 OpenBabel11021811493D
libRbt.so/2013.1/901 2013/11/27
 11 12  0  0  0  0  0  0  0  0999 V2000
   11.7403   11.5214    6.4289 N   0  0  0  0  0  0  0  0  0  0  0  0
   10.8862   12.5603    6.3851 C   0  0  0  0  0  0  0  0  0  0  0  0
   10.1242   12.7663    5.2440 N   0  0  0  0  0  0  0  0  0  0  0  0
   10.7550   13.4043    7.4207 N   0  0  0  0  0  0  0  0  0  0  0  0
   11.4752   13.2498    8.5430 C   0  0  0  0  0  0  0  0  0  0  0  0
   12.3868   12.1748    8.6429 C   0  0  0  0  0  0  0  0  0  0  0  0
   12.4983   11.2928    7.5227 C   0  0  0  0  0  0  0  0  0  0  0  0
   13.3632   10.2263    7.5514 N   0  0  0  0  0  0  0  0  0  0  0  0
   12.9748   12.2573    9.8706 N   0  0  0  0  0  0  0  0  0  0  0  0
   12.4969   13.2854   10.5051 C   0  0  0  0  0  0  0  0  0  0  0  0
   11.5653   13.9308    9.7319 N   0  0  0  0  0  0  0  0  0  0  0  0
  1  7  2  0  0  0  0
  1  2  1  0  0  0  0
  2  3  1  0  0  0  0
  2  4  2  0  0  0  0
  4  5  1  0  0  0  0
  5  6  2  0  0  0  0
  5 11  1  0  0  0  0
  6  7  1  0  0  0  0
  6  9  1  0  0  0  0
  7  8  1  0  0  0  0
  9 10  1  0  0  0  0
 10 11  2  0  0  0  0
M  END
>  <CHROM.1>
11.83501624,12.41840623,7.96292370,-2.12415116,-0.80733658,0.98463141

>  <Name>
ligand

>  <RI>
0

>  <Rbt.Current_Directory>
/home/itssahil/PROJECTS/Mol_Feturizer/New_Systems/rnas/4FEO

>  <Rbt.Executable>
rbdock ($Id: //depot/dev/client3/rdock/2013.1/src/exe/rbdock.cxx#4 $)

>  <Rbt.Library>
libRbt.so (2013.1, Build901 2013/11/27)

>  <Rbt.Parameter_File>
/export/apps/rDock/src/rDock_2013.1_src/data/scripts/dock_solv.prm

>  <Rbt.Receptor>
prm/pocket_docking_5.prm

>  <SCORE>
-9.72579

>  <SCORE.INTER>
-9.72579

>  <SCORE.INTER.CONST>
1

>  <SCORE.INTER.POLAR>
0

>  <SCORE.INTER.ROT>
0

>  <SCORE.INTER.SOLV>
15.5595

>  <SCORE.INTER.VDW>
-15.2704

>  <SCORE.INTER.norm>
-0.884163

>  <SCORE.INTRA>
0

>  <SCORE.INTRA.DIHEDRAL>
0

>  <SCORE.INTRA.DIHEDRAL.0>
0

>  <SCORE.INTRA.POLAR>
0

>  <SCORE.INTRA.POLAR.0>
0

>  <SCORE.INTRA.REPUL>
0

>  <SCORE.INTRA.REPUL.0>
0

>  <SCORE.INTRA.SOLV>
0

>  <SCORE.INTRA.SOLV.lig_0>
-48.9252

>  <SCORE.INTRA.VDW>
0

>  <SCORE.INTRA.VDW.0>
0

>  <SCORE.INTRA.norm>
0

>  <SCORE.RESTR>
0

>  <SCORE.RESTR.CAVITY>
0

>  <SCORE.RESTR.norm>
0

>  <SCORE.SYSTEM>
0

>  <SCORE.SYSTEM.CONST>
0

>  <SCORE.SYSTEM.DIHEDRAL>
0

>  <SCORE.SYSTEM.SOLV>
0

>  <SCORE.SYSTEM.norm>
0

>  <SCORE.heavy>
11

>  <SCORE.norm>
-0.884163

>  <RMSD>
3.417

$$$$
ligand
 OpenBabel11021811493D
libRbt.so/2013.1/901 2013/11/27
 11 12  0  0  0  0  0  0  0  0999 V2000
   11.8630   11.4643    6.3527 N   0  0  0  0  0  0  0  0  0  0  0  0
   11.0289   12.5143    6.2410 C   0  0  0  0  0  0  0  0  0  0  0  0
   10.3448   12.7153    5.0508 N   0  0  0  0  0  0  0  0  0  0  0  0
   10.8440   13.3739    7.2553 N   0  0  0  0  0  0  0  0  0  0  0  0
   11.4885   13.2247    8.4234 C   0  0  0  0  0  0  0  0  0  0  0  0
   12.3758   12.1385    8.5953 C   0  0  0  0  0  0  0  0  0  0  0  0
   12.5459   11.2400    7.4957 C   0  0  0  0  0  0  0  0  0  0  0  0
   13.3914   10.1621    7.5935 N   0  0  0  0  0  0  0  0  0  0  0  0
   12.8852   12.2295    9.8571 N   0  0  0  0  0  0  0  0  0  0  0  0
   12.3828   13.2726   10.4465 C   0  0  0  0  0  0  0  0  0  0  0  0
   11.5122   13.9204    9.6069 N   0  0  0  0  0  0  0  0  0  0  0  0
  1  7  2  0  0  0  0
  1  2  1  0  0  0  0
  2  3  1  0  0  0  0
  2  4  2  0  0  0  0
  4  5  1  0  0  0  0
  5  6  2  0  0  0  0
  5 11  1  0  0  0  0
  6  7  1  0  0  0  0
  6  9  1  0  0  0  0
  7  8  1  0  0  0  0
  9 10  1  0  0  0  0
 10 11  2  0  0  0  0
M  END
>  <CHROM.1>
11.87247003,12.38056729,7.87820055,-2.05524468,-0.85395868,1.02243464

>  <Name>
ligand

>  <RI>
0

>  <Rbt.Current_Directory>
/home/itssahil/PROJECTS/Mol_Feturizer/New_Systems/rnas/4FEO

>  <Rbt.Executable>
rbdock ($Id: //depot/dev/client3/rdock/2013.1/src/exe/rbdock.cxx#4 $)

>  <Rbt.Library>
libRbt.so (2013.1, Build901 2013/11/27)

>  <Rbt.Parameter_File>
/export/apps/rDock/src/rDock_2013.1_src/data/scripts/dock_solv.prm

>  <Rbt.Receptor>
prm/pocket_docking_7.prm

>  <SCORE>
-9.85988

>  <SCORE.INTER>
-9.85988

>  <SCORE.INTER.CONST>
1

>  <SCORE.INTER.POLAR>
0

>  <SCORE.INTER.ROT>
0

>  <SCORE.INTER.SOLV>
16.6839

>  <SCORE.INTER.VDW>
-15.7346

>  <SCORE.INTER.norm>
-0.896353

>  <SCORE.INTRA>
0

>  <SCORE.INTRA.DIHEDRAL>
0

>  <SCORE.INTRA.DIHEDRAL.0>
0

>  <SCORE.INTRA.POLAR>
0

>  <SCORE.INTRA.POLAR.0>
0

>  <SCORE.INTRA.REPUL>
0

>  <SCORE.INTRA.REPUL.0>
0

>  <SCORE.INTRA.SOLV>
0

>  <SCORE.INTRA.SOLV.lig_0>
-48.9252

>  <SCORE.INTRA.VDW>
0

>  <SCORE.INTRA.VDW.0>
0

>  <SCORE.INTRA.norm>
0

>  <SCORE.RESTR>
0

>  <SCORE.RESTR.CAVITY>
0

>  <SCORE.RESTR.norm>
0

>  <SCORE.SYSTEM>
0

>  <SCORE.SYSTEM.CONST>
0

>  <SCORE.SYSTEM.DIHEDRAL>
0

>  <SCORE.SYSTEM.SOLV>
0

>  <SCORE.SYSTEM.norm>
0

>  <SCORE.heavy>
11

>  <SCORE.norm>
-0.896353

>  <RMSD>
3.417

$$$$
ligand
 OpenBabel11021811493D
libRbt.so/2013.1/901 2013/11/27
 11 12  0  0  0  0  0  0  0  0999 V2000
   11.8713   11.4580    6.3486 N   0  0  0  0  0  0  0  0  0  0  0  0
   11.0364   12.5075    6.2380 C   0  0  0  0  0  0  0  0  0  0  0  0
   10.3523   12.7095    5.0480 N   0  0  0  0  0  0  0  0  0  0  0  0
   10.8509   13.3658    7.2533 N   0  0  0  0  0  0  0  0  0  0  0  0
   11.4953   13.2156    8.4214 C   0  0  0  0  0  0  0  0  0  0  0  0
   12.3833   12.1298    8.5920 C   0  0  0  0  0  0  0  0  0  0  0  0
   12.5541   11.2327    7.4914 C   0  0  0  0  0  0  0  0  0  0  0  0
   13.4004   10.1553    7.5880 N   0  0  0  0  0  0  0  0  0  0  0  0
   12.8924   12.2196    9.8540 N   0  0  0  0  0  0  0  0  0  0  0  0
   12.3892   13.2617   10.4446 C   0  0  0  0  0  0  0  0  0  0  0  0
   11.5184   13.9099    9.6057 N   0  0  0  0  0  0  0  0  0  0  0  0
  1  7  2  0  0  0  0
  1  2  1  0  0  0  0
  2  3  1  0  0  0  0
  2  4  2  0  0  0  0
  4  5  1  0  0  0  0
  5  6  2  0  0  0  0
  5 11  1  0  0  0  0
  6  7  1  0  0  0  0
  6  9  1  0  0  0  0
  7  8  1  0  0  0  0
  9 10  1  0  0  0  0
 10 11  2  0  0  0  0
M  END
>  <CHROM.1>
11.87986917,12.37238714,7.87518124,-2.05454399,-0.85344655,1.02417530

>  <Name>
ligand

>  <RI>
0

>  <Rbt.Current_Directory>
/home/itssahil/PROJECTS/Mol_Feturizer/New_Systems/rnas/4FEO

>  <Rbt.Executable>
rbdock ($Id: //depot/dev/client3/rdock/2013.1/src/exe/rbdock.cxx#4 $)

>  <Rbt.Library>
libRbt.so (2013.1, Build901 2013/11/27)

>  <Rbt.Parameter_File>
/export/apps/rDock/src/rDock_2013.1_src/data/scripts/dock_solv.prm

>  <Rbt.Receptor>
prm/pocket_docking_7.prm

>  <SCORE>
-9.82391

>  <SCORE.INTER>
-9.82391

>  <SCORE.INTER.CONST>
1

>  <SCORE.INTER.POLAR>
0

>  <SCORE.INTER.ROT>
0

>  <SCORE.INTER.SOLV>
16.7094

>  <SCORE.INTER.VDW>
-15.7191

>  <SCORE.INTER.norm>
-0.893083

>  <SCORE.INTRA>
0

>  <SCORE.INTRA.DIHEDRAL>
0

>  <SCORE.INTRA.DIHEDRAL.0>
0

>  <SCORE.INTRA.POLAR>
0

>  <SCORE.INTRA.POLAR.0>
0

>  <SCORE.INTRA.REPUL>
0

>  <SCORE.INTRA.REPUL.0>
0

>  <SCORE.INTRA.SOLV>
0

>  <SCORE.INTRA.SOLV.lig_0>
-48.9252

>  <SCORE.INTRA.VDW>
0

>  <SCORE.INTRA.VDW.0>
0

>  <SCORE.INTRA.norm>
0

>  <SCORE.RESTR>
0

>  <SCORE.RESTR.CAVITY>
0

>  <SCORE.RESTR.norm>
0

>  <SCORE.SYSTEM>
0

>  <SCORE.SYSTEM.CONST>
0

>  <SCORE.SYSTEM.DIHEDRAL>
0

>  <SCORE.SYSTEM.SOLV>
0

>  <SCORE.SYSTEM.norm>
0

>  <SCORE.heavy>
11

>  <SCORE.norm>
-0.893083

>  <RMSD>
3.417

$$$$
ligand
 OpenBabel11021811493D
libRbt.so/2013.1/901 2013/11/27
 11 12  0  0  0  0  0  0  0  0999 V2000
   11.8063   11.5138    6.3795 N   0  0  0  0  0  0  0  0  0  0  0  0
   10.9663   12.5614    6.2917 C   0  0  0  0  0  0  0  0  0  0  0  0
   10.2567   12.7672    5.1173 N   0  0  0  0  0  0  0  0  0  0  0  0
   10.7997   13.4141    7.3150 N   0  0  0  0  0  0  0  0  0  0  0  0
   11.4689   13.2601    8.4684 C   0  0  0  0  0  0  0  0  0  0  0  0
   12.3635   12.1762    8.6151 C   0  0  0  0  0  0  0  0  0  0  0  0
   12.5137   11.2850    7.5067 C   0  0  0  0  0  0  0  0  0  0  0  0
   13.3649   10.2096    7.5801 N   0  0  0  0  0  0  0  0  0  0  0  0
   12.8988   12.2613    9.8665 N   0  0  0  0  0  0  0  0  0  0  0  0
   12.4051   13.2990   10.4727 C   0  0  0  0  0  0  0  0  0  0  0  0
   11.5149   13.9487    9.6555 N   0  0  0  0  0  0  0  0  0  0  0  0
  1  7  2  0  0  0  0
  1  2  1  0  0  0  0
  2  3  1  0  0  0  0
  2  4  2  0  0  0  0
  4  5  1  0  0  0  0
  5  6  2  0  0  0  0
  5 11  1  0  0  0  0
  6  7  1  0  0  0  0
  6  9  1  0  0  0  0
  7  8  1  0  0  0  0
  9 10  1  0  0  0  0
 10 11  2  0  0  0  0
M  END
>  <CHROM.1>
11.84437663,12.42074992,7.91012540,-2.07921581,-0.83991598,1.01061239

>  <Name>
ligand

>  <RI>
0

>  <Rbt.Current_Directory>
/home/itssahil/PROJECTS/Mol_Feturizer/New_Systems/rnas/4FEO

>  <Rbt.Executable>
rbdock ($Id: //depot/dev/client3/rdock/2013.1/src/exe/rbdock.cxx#4 $)

>  <Rbt.Library>
libRbt.so (2013.1, Build901 2013/11/27)

>  <Rbt.Parameter_File>
/export/apps/rDock/src/rDock_2013.1_src/data/scripts/dock_solv.prm

>  <Rbt.Receptor>
prm/blind_docking_100.prm

>  <SCORE>
-9.78508

>  <SCORE.INTER>
-9.78508

>  <SCORE.INTER.CONST>
1

>  <SCORE.INTER.POLAR>
0

>  <SCORE.INTER.ROT>
0

>  <SCORE.INTER.SOLV>
16.2073

>  <SCORE.INTER.VDW>
-15.5258

>  <SCORE.INTER.norm>
-0.889553

>  <SCORE.INTRA>
0

>  <SCORE.INTRA.DIHEDRAL>
0

>  <SCORE.INTRA.DIHEDRAL.0>
0

>  <SCORE.INTRA.POLAR>
0

>  <SCORE.INTRA.POLAR.0>
0

>  <SCORE.INTRA.REPUL>
0

>  <SCORE.INTRA.REPUL.0>
0

>  <SCORE.INTRA.SOLV>
0

>  <SCORE.INTRA.SOLV.lig_0>
-48.9252

>  <SCORE.INTRA.VDW>
0

>  <SCORE.INTRA.VDW.0>
0

>  <SCORE.INTRA.norm>
0

>  <SCORE.RESTR>
0

>  <SCORE.RESTR.CAVITY>
0

>  <SCORE.RESTR.norm>
0

>  <SCORE.SYSTEM>
0

>  <SCORE.SYSTEM.CONST>
0

>  <SCORE.SYSTEM.DIHEDRAL>
0

>  <SCORE.SYSTEM.SOLV>
0

>  <SCORE.SYSTEM.norm>
0

>  <SCORE.heavy>
11

>  <SCORE.norm>
-0.889553

>  <RMSD>
3.418

$$$$
ligand
 OpenBabel11021811493D
libRbt.so/2013.1/901 2013/11/27
 11 12  0  0  0  0  0  0  0  0999 V2000
   11.8034   11.5008    6.4046 N   0  0  0  0  0  0  0  0  0  0  0  0
   10.9745   12.5579    6.3265 C   0  0  0  0  0  0  0  0  0  0  0  0
   10.2515   12.7703    5.1614 N   0  0  0  0  0  0  0  0  0  0  0  0
   10.8315   13.4140    7.3505 N   0  0  0  0  0  0  0  0  0  0  0  0
   11.5144   13.2538    8.4951 C   0  0  0  0  0  0  0  0  0  0  0  0
   12.3983   12.1597    8.6314 C   0  0  0  0  0  0  0  0  0  0  0  0
   12.5232   11.2654    7.5224 C   0  0  0  0  0  0  0  0  0  0  0  0
   13.3628   10.1802    7.5861 N   0  0  0  0  0  0  0  0  0  0  0  0
   12.9513   12.2405    9.8754 N   0  0  0  0  0  0  0  0  0  0  0  0
   12.4779   13.2846   10.4865 C   0  0  0  0  0  0  0  0  0  0  0  0
   11.5844   13.9435    9.6804 N   0  0  0  0  0  0  0  0  0  0  0  0
  1  7  2  0  0  0  0
  1  2  1  0  0  0  0
  2  3  1  0  0  0  0
  2  4  2  0  0  0  0
  4  5  1  0  0  0  0
  5  6  2  0  0  0  0
  5 11  1  0  0  0  0
  6  7  1  0  0  0  0
  6  9  1  0  0  0  0
  7  8  1  0  0  0  0
  9 10  1  0  0  0  0
 10 11  2  0  0  0  0
M  END
>  <CHROM.1>
11.87257623,12.40936410,7.93311669,-2.10562495,-0.84239131,0.98944570

>  <Name>
ligand

>  <RI>
0

>  <Rbt.Current_Directory>
/home/itssahil/PROJECTS/Mol_Feturizer/New_Systems/rnas/4FEO

>  <Rbt.Executable>
rbdock ($Id: //depot/dev/client3/rdock/2013.1/src/exe/rbdock.cxx#4 $)

>  <Rbt.Library>
libRbt.so (2013.1, Build901 2013/11/27)

>  <Rbt.Parameter_File>
/export/apps/rDock/src/rDock_2013.1_src/data/scripts/dock_solv.prm

>  <Rbt.Receptor>
prm/blind_docking_60.prm

>  <SCORE>
-9.82398

>  <SCORE.INTER>
-9.82398

>  <SCORE.INTER.CONST>
1

>  <SCORE.INTER.POLAR>
0

>  <SCORE.INTER.ROT>
0

>  <SCORE.INTER.SOLV>
16.0104

>  <SCORE.INTER.VDW>
-15.4861

>  <SCORE.INTER.norm>
-0.893089

>  <SCORE.INTRA>
0

>  <SCORE.INTRA.DIHEDRAL>
0

>  <SCORE.INTRA.DIHEDRAL.0>
0

>  <SCORE.INTRA.POLAR>
0

>  <SCORE.INTRA.POLAR.0>
0

>  <SCORE.INTRA.REPUL>
0

>  <SCORE.INTRA.REPUL.0>
0

>  <SCORE.INTRA.SOLV>
0

>  <SCORE.INTRA.SOLV.lig_0>
-48.9252

>  <SCORE.INTRA.VDW>
0

>  <SCORE.INTRA.VDW.0>
0

>  <SCORE.INTRA.norm>
0

>  <SCORE.RESTR>
0

>  <SCORE.RESTR.CAVITY>
0

>  <SCORE.RESTR.norm>
0

>  <SCORE.SYSTEM>
0

>  <SCORE.SYSTEM.CONST>
0

>  <SCORE.SYSTEM.DIHEDRAL>
0

>  <SCORE.SYSTEM.SOLV>
0

>  <SCORE.SYSTEM.norm>
0

>  <SCORE.heavy>
11

>  <SCORE.norm>
-0.893089

>  <RMSD>
3.418

$$$$
ligand
 OpenBabel11021811493D
libRbt.so/2013.1/901 2013/11/27
 11 12  0  0  0  0  0  0  0  0999 V2000
   11.9166   11.4267    6.3062 N   0  0  0  0  0  0  0  0  0  0  0  0
   11.0458   12.4470    6.1991 C   0  0  0  0  0  0  0  0  0  0  0  0
   10.3572   12.6309    5.0087 N   0  0  0  0  0  0  0  0  0  0  0  0
   10.8287   13.2934    7.2182 N   0  0  0  0  0  0  0  0  0  0  0  0
   11.4759   13.1601    8.3867 C   0  0  0  0  0  0  0  0  0  0  0  0
   12.4009   12.1051    8.5539 C   0  0  0  0  0  0  0  0  0  0  0  0
   12.6049   11.2199    7.4493 C   0  0  0  0  0  0  0  0  0  0  0  0
   13.4880   10.1721    7.5423 N   0  0  0  0  0  0  0  0  0  0  0  0
   12.9044   12.2065    9.8173 N   0  0  0  0  0  0  0  0  0  0  0  0
   12.3641   13.2275   10.4119 C   0  0  0  0  0  0  0  0  0  0  0  0
   11.4727   13.8490    9.5744 N   0  0  0  0  0  0  0  0  0  0  0  0
  1  7  2  0  0  0  0
  1  2  1  0  0  0  0
  2  3  1  0  0  0  0
  2  4  2  0  0  0  0
  4  5  1  0  0  0  0
  5  6  2  0  0  0  0
  5 11  1  0  0  0  0
  6  7  1  0  0  0  0
  6  9  1  0  0  0  0
  7  8  1  0  0  0  0
  9 10  1  0  0  0  0
 10 11  2  0  0  0  0
M  END
>  <CHROM.1>
11.89059904,12.33346091,7.83720259,-2.02564285,-0.82435919,1.05050537

>  <Name>
ligand

>  <RI>
0

>  <Rbt.Current_Directory>
/home/itssahil/PROJECTS/Mol_Feturizer/New_Systems/rnas/4FEO

>  <Rbt.Executable>
rbdock ($Id: //depot/dev/client3/rdock/2013.1/src/exe/rbdock.cxx#4 $)

>  <Rbt.Library>
libRbt.so (2013.1, Build901 2013/11/27)

>  <Rbt.Parameter_File>
/export/apps/rDock/src/rDock_2013.1_src/data/scripts/dock_solv.prm

>  <Rbt.Receptor>
prm/pocket_docking_4.prm

>  <SCORE>
-9.78802

>  <SCORE.INTER>
-9.78802

>  <SCORE.INTER.CONST>
1

>  <SCORE.INTER.POLAR>
0

>  <SCORE.INTER.ROT>
0

>  <SCORE.INTER.SOLV>
16.8793

>  <SCORE.INTER.VDW>
-15.7518

>  <SCORE.INTER.norm>
-0.88982

>  <SCORE.INTRA>
0

>  <SCORE.INTRA.DIHEDRAL>
0

>  <SCORE.INTRA.DIHEDRAL.0>
0

>  <SCORE.INTRA.POLAR>
0

>  <SCORE.INTRA.POLAR.0>
0

>  <SCORE.INTRA.REPUL>
0

>  <SCORE.INTRA.REPUL.0>
0

>  <SCORE.INTRA.SOLV>
0

>  <SCORE.INTRA.SOLV.lig_0>
-48.9252

>  <SCORE.INTRA.VDW>
0

>  <SCORE.INTRA.VDW.0>
0

>  <SCORE.INTRA.norm>
0

>  <SCORE.RESTR>
0

>  <SCORE.RESTR.CAVITY>
0

>  <SCORE.RESTR.norm>
0

>  <SCORE.SYSTEM>
0

>  <SCORE.SYSTEM.CONST>
0

>  <SCORE.SYSTEM.DIHEDRAL>
0

>  <SCORE.SYSTEM.SOLV>
0

>  <SCORE.SYSTEM.norm>
0

>  <SCORE.heavy>
11

>  <SCORE.norm>
-0.88982

>  <RMSD>
3.418

$$$$
ligand
 OpenBabel11021811493D
libRbt.so/2013.1/901 2013/11/27
 11 12  0  0  0  0  0  0  0  0999 V2000
   11.9070   11.4456    6.3470 N   0  0  0  0  0  0  0  0  0  0  0  0
   11.0619   12.4859    6.2277 C   0  0  0  0  0  0  0  0  0  0  0  0
   10.3846   12.6779    5.0320 N   0  0  0  0  0  0  0  0  0  0  0  0
   10.8595   13.3445    7.2395 N   0  0  0  0  0  0  0  0  0  0  0  0
   11.4966   13.2039    8.4127 C   0  0  0  0  0  0  0  0  0  0  0  0
   12.3949   12.1280    8.5927 C   0  0  0  0  0  0  0  0  0  0  0  0
   12.5836   11.2303    7.4955 C   0  0  0  0  0  0  0  0  0  0  0  0
   13.4405   10.1622    7.6010 N   0  0  0  0  0  0  0  0  0  0  0  0
   12.8935   12.2262    9.8582 N   0  0  0  0  0  0  0  0  0  0  0  0
   12.3747   13.2642   10.4425 C   0  0  0  0  0  0  0  0  0  0  0  0
   11.5033   13.9011    9.5956 N   0  0  0  0  0  0  0  0  0  0  0  0
  1  7  2  0  0  0  0
  1  2  1  0  0  0  0
  2  3  1  0  0  0  0
  2  4  2  0  0  0  0
  4  5  1  0  0  0  0
  5  6  2  0  0  0  0
  5 11  1  0  0  0  0
  6  7  1  0  0  0  0
  6  9  1  0  0  0  0
  7  8  1  0  0  0  0
  9 10  1  0  0  0  0
 10 11  2  0  0  0  0
M  END
>  <CHROM.1>
11.89429387,12.36359594,7.87144571,-2.03639183,-0.84818427,1.03548766

>  <Name>
ligand

>  <RI>
0

>  <Rbt.Current_Directory>
/home/itssahil/PROJECTS/Mol_Feturizer/New_Systems/rnas/4FEO

>  <Rbt.Executable>
rbdock ($Id: //depot/dev/client3/rdock/2013.1/src/exe/rbdock.cxx#4 $)

>  <Rbt.Library>
libRbt.so (2013.1, Build901 2013/11/27)

>  <Rbt.Parameter_File>
/export/apps/rDock/src/rDock_2013.1_src/data/scripts/dock_solv.prm

>  <Rbt.Receptor>
prm/blind_docking_100.prm

>  <SCORE>
-9.81658

>  <SCORE.INTER>
-9.81658

>  <SCORE.INTER.CONST>
1

>  <SCORE.INTER.POLAR>
0

>  <SCORE.INTER.ROT>
0

>  <SCORE.INTER.SOLV>
16.8378

>  <SCORE.INTER.VDW>
-15.757

>  <SCORE.INTER.norm>
-0.892416

>  <SCORE.INTRA>
0

>  <SCORE.INTRA.DIHEDRAL>
0

>  <SCORE.INTRA.DIHEDRAL.0>
0

>  <SCORE.INTRA.POLAR>
0

>  <SCORE.INTRA.POLAR.0>
0

>  <SCORE.INTRA.REPUL>
0

>  <SCORE.INTRA.REPUL.0>
0

>  <SCORE.INTRA.SOLV>
0

>  <SCORE.INTRA.SOLV.lig_0>
-48.9252

>  <SCORE.INTRA.VDW>
0

>  <SCORE.INTRA.VDW.0>
0

>  <SCORE.INTRA.norm>
0

>  <SCORE.RESTR>
0

>  <SCORE.RESTR.CAVITY>
0

>  <SCORE.RESTR.norm>
0

>  <SCORE.SYSTEM>
0

>  <SCORE.SYSTEM.CONST>
0

>  <SCORE.SYSTEM.DIHEDRAL>
0

>  <SCORE.SYSTEM.SOLV>
0

>  <SCORE.SYSTEM.norm>
0

>  <SCORE.heavy>
11

>  <SCORE.norm>
-0.892416

>  <RMSD>
3.419

$$$$
ligand
 OpenBabel11021811493D
libRbt.so/2013.1/901 2013/11/27
 11 12  0  0  0  0  0  0  0  0999 V2000
   11.9007   11.4920    6.3149 N   0  0  0  0  0  0  0  0  0  0  0  0
   11.0723   12.5463    6.2016 C   0  0  0  0  0  0  0  0  0  0  0  0
   10.4071   12.7625    5.0033 N   0  0  0  0  0  0  0  0  0  0  0  0
   10.8752   13.3960    7.2219 N   0  0  0  0  0  0  0  0  0  0  0  0
   11.5013   13.2321    8.3981 C   0  0  0  0  0  0  0  0  0  0  0  0
   12.3818   12.1407    8.5720 C   0  0  0  0  0  0  0  0  0  0  0  0
   12.5652   11.2531    7.4657 C   0  0  0  0  0  0  0  0  0  0  0  0
   13.4051   10.1709    7.5650 N   0  0  0  0  0  0  0  0  0  0  0  0
   12.8723   12.2165    9.8423 N   0  0  0  0  0  0  0  0  0  0  0  0
   12.3649   13.2554   10.4349 C   0  0  0  0  0  0  0  0  0  0  0  0
   11.5096   13.9153    9.5891 N   0  0  0  0  0  0  0  0  0  0  0  0
  1  7  2  0  0  0  0
  1  2  1  0  0  0  0
  2  3  1  0  0  0  0
  2  4  2  0  0  0  0
  4  5  1  0  0  0  0
  5  6  2  0  0  0  0
  5 11  1  0  0  0  0
  6  7  1  0  0  0  0
  6  9  1  0  0  0  0
  7  8  1  0  0  0  0
  9 10  1  0  0  0  0
 10 11  2  0  0  0  0
M  END
>  <CHROM.1>
11.89033505,12.39221011,7.84990861,-2.03826028,-0.86502642,1.04578289

>  <Name>
ligand

>  <RI>
0

>  <Rbt.Current_Directory>
/home/itssahil/PROJECTS/Mol_Feturizer/New_Systems/rnas/4FEO

>  <Rbt.Executable>
rbdock ($Id: //depot/dev/client3/rdock/2013.1/src/exe/rbdock.cxx#4 $)

>  <Rbt.Library>
libRbt.so (2013.1, Build901 2013/11/27)

>  <Rbt.Parameter_File>
/export/apps/rDock/src/rDock_2013.1_src/data/scripts/dock_solv.prm

>  <Rbt.Receptor>
prm/blind_docking_60.prm

>  <SCORE>
-9.82766

>  <SCORE.INTER>
-9.82766

>  <SCORE.INTER.CONST>
1

>  <SCORE.INTER.POLAR>
0

>  <SCORE.INTER.ROT>
0

>  <SCORE.INTER.SOLV>
16.9634

>  <SCORE.INTER.VDW>
-15.8062

>  <SCORE.INTER.norm>
-0.893424

>  <SCORE.INTRA>
0

>  <SCORE.INTRA.DIHEDRAL>
0

>  <SCORE.INTRA.DIHEDRAL.0>
0

>  <SCORE.INTRA.POLAR>
0

>  <SCORE.INTRA.POLAR.0>
0

>  <SCORE.INTRA.REPUL>
0

>  <SCORE.INTRA.REPUL.0>
0

>  <SCORE.INTRA.SOLV>
0

>  <SCORE.INTRA.SOLV.lig_0>
-48.9252

>  <SCORE.INTRA.VDW>
0

>  <SCORE.INTRA.VDW.0>
0

>  <SCORE.INTRA.norm>
0

>  <SCORE.RESTR>
0

>  <SCORE.RESTR.CAVITY>
0

>  <SCORE.RESTR.norm>
0

>  <SCORE.SYSTEM>
0

>  <SCORE.SYSTEM.CONST>
0

>  <SCORE.SYSTEM.DIHEDRAL>
0

>  <SCORE.SYSTEM.SOLV>
0

>  <SCORE.SYSTEM.norm>
0

>  <SCORE.heavy>
11

>  <SCORE.norm>
-0.893424

>  <RMSD>
3.419

$$$$
ligand
 OpenBabel11021811493D
libRbt.so/2013.1/901 2013/11/27
 11 12  0  0  0  0  0  0  0  0999 V2000
   11.9082   11.4463    6.3478 N   0  0  0  0  0  0  0  0  0  0  0  0
   11.0606   12.4849    6.2312 C   0  0  0  0  0  0  0  0  0  0  0  0
   10.3792   12.6755    5.0377 N   0  0  0  0  0  0  0  0  0  0  0  0
   10.8596   13.3430    7.2437 N   0  0  0  0  0  0  0  0  0  0  0  0
   11.5008   13.2036    8.4149 C   0  0  0  0  0  0  0  0  0  0  0  0
   12.4018   12.1296    8.5919 C   0  0  0  0  0  0  0  0  0  0  0  0
   12.5889   11.2323    7.4941 C   0  0  0  0  0  0  0  0  0  0  0  0
   13.4483   10.1659    7.5969 N   0  0  0  0  0  0  0  0  0  0  0  0
   12.9042   12.2288    9.8559 N   0  0  0  0  0  0  0  0  0  0  0  0
   12.3852   13.2657   10.4419 C   0  0  0  0  0  0  0  0  0  0  0  0
   11.5098   13.9008    9.5977 N   0  0  0  0  0  0  0  0  0  0  0  0
  1  7  2  0  0  0  0
  1  2  1  0  0  0  0
  2  3  1  0  0  0  0
  2  4  2  0  0  0  0
  4  5  1  0  0  0  0
  5  6  2  0  0  0  0
  5 11  1  0  0  0  0
  6  7  1  0  0  0  0
  6  9  1  0  0  0  0
  7  8  1  0  0  0  0
  9 10  1  0  0  0  0
 10 11  2  0  0  0  0
M  END
>  <CHROM.1>
11.89847215,12.36417015,7.87230818,-2.03891186,-0.84480688,1.03363747

>  <Name>
ligand

>  <RI>
0

>  <Rbt.Current_Directory>
/home/itssahil/PROJECTS/Mol_Feturizer/New_Systems/rnas/4FEO

>  <Rbt.Executable>
rbdock ($Id: //depot/dev/client3/rdock/2013.1/src/exe/rbdock.cxx#4 $)

>  <Rbt.Library>
libRbt.so (2013.1, Build901 2013/11/27)

>  <Rbt.Parameter_File>
/export/apps/rDock/src/rDock_2013.1_src/data/scripts/dock_solv.prm

>  <Rbt.Receptor>
prm/pocket_docking_8.prm

>  <SCORE>
-9.82105

>  <SCORE.INTER>
-9.82105

>  <SCORE.INTER.CONST>
1

>  <SCORE.INTER.POLAR>
0

>  <SCORE.INTER.ROT>
0

>  <SCORE.INTER.SOLV>
16.8051

>  <SCORE.INTER.VDW>
-15.7491

>  <SCORE.INTER.norm>
-0.892823

>  <SCORE.INTRA>
0

>  <SCORE.INTRA.DIHEDRAL>
0

>  <SCORE.INTRA.DIHEDRAL.0>
0

>  <SCORE.INTRA.POLAR>
0

>  <SCORE.INTRA.POLAR.0>
0

>  <SCORE.INTRA.REPUL>
0

>  <SCORE.INTRA.REPUL.0>
0

>  <SCORE.INTRA.SOLV>
0

>  <SCORE.INTRA.SOLV.lig_0>
-48.9252

>  <SCORE.INTRA.VDW>
0

>  <SCORE.INTRA.VDW.0>
0

>  <SCORE.INTRA.norm>
0

>  <SCORE.RESTR>
0

>  <SCORE.RESTR.CAVITY>
0

>  <SCORE.RESTR.norm>
0

>  <SCORE.SYSTEM>
0

>  <SCORE.SYSTEM.CONST>
0

>  <SCORE.SYSTEM.DIHEDRAL>
0

>  <SCORE.SYSTEM.SOLV>
0

>  <SCORE.SYSTEM.norm>
0

>  <SCORE.heavy>
11

>  <SCORE.norm>
-0.892823

>  <RMSD>
3.419

$$$$
ligand
 OpenBabel11021811493D
libRbt.so/2013.1/901 2013/11/27
 11 12  0  0  0  0  0  0  0  0999 V2000
   11.7250   11.5486    6.4571 N   0  0  0  0  0  0  0  0  0  0  0  0
   10.8566   12.5760    6.4258 C   0  0  0  0  0  0  0  0  0  0  0  0
   10.0857   12.7802    5.2905 N   0  0  0  0  0  0  0  0  0  0  0  0
   10.7196   13.4103    7.4685 N   0  0  0  0  0  0  0  0  0  0  0  0
   11.4480   13.2572    8.5857 C   0  0  0  0  0  0  0  0  0  0  0  0
   12.3746   12.1939    8.6726 C   0  0  0  0  0  0  0  0  0  0  0  0
   12.4920   11.3221    7.5450 C   0  0  0  0  0  0  0  0  0  0  0  0
   13.3715   10.2673    7.5610 N   0  0  0  0  0  0  0  0  0  0  0  0
   12.9683   12.2753    9.8977 N   0  0  0  0  0  0  0  0  0  0  0  0
   12.4799   13.2919   10.5425 C   0  0  0  0  0  0  0  0  0  0  0  0
   11.5353   13.9304    9.7793 N   0  0  0  0  0  0  0  0  0  0  0  0
  1  7  2  0  0  0  0
  1  2  1  0  0  0  0
  2  3  1  0  0  0  0
  2  4  2  0  0  0  0
  4  5  1  0  0  0  0
  5  6  2  0  0  0  0
  5 11  1  0  0  0  0
  6  7  1  0  0  0  0
  6  9  1  0  0  0  0
  7  8  1  0  0  0  0
  9 10  1  0  0  0  0
 10 11  2  0  0  0  0
M  END
>  <CHROM.1>
11.81591452,12.43517445,7.99740218,-2.11994804,-0.79297255,0.99522961

>  <Name>
ligand

>  <RI>
0

>  <Rbt.Current_Directory>
/home/itssahil/PROJECTS/Mol_Feturizer/New_Systems/rnas/4FEO

>  <Rbt.Executable>
rbdock ($Id: //depot/dev/client3/rdock/2013.1/src/exe/rbdock.cxx#4 $)

>  <Rbt.Library>
libRbt.so (2013.1, Build901 2013/11/27)

>  <Rbt.Parameter_File>
/export/apps/rDock/src/rDock_2013.1_src/data/scripts/dock_solv.prm

>  <Rbt.Receptor>
prm/blind_docking_40.prm

>  <SCORE>
-9.73455

>  <SCORE.INTER>
-9.73455

>  <SCORE.INTER.CONST>
1

>  <SCORE.INTER.POLAR>
0

>  <SCORE.INTER.ROT>
0

>  <SCORE.INTER.SOLV>
15.3933

>  <SCORE.INTER.VDW>
-15.2208

>  <SCORE.INTER.norm>
-0.884959

>  <SCORE.INTRA>
0

>  <SCORE.INTRA.DIHEDRAL>
0

>  <SCORE.INTRA.DIHEDRAL.0>
0

>  <SCORE.INTRA.POLAR>
0

>  <SCORE.INTRA.POLAR.0>
0

>  <SCORE.INTRA.REPUL>
0

>  <SCORE.INTRA.REPUL.0>
0

>  <SCORE.INTRA.SOLV>
0

>  <SCORE.INTRA.SOLV.lig_0>
-48.9252

>  <SCORE.INTRA.VDW>
0

>  <SCORE.INTRA.VDW.0>
0

>  <SCORE.INTRA.norm>
0

>  <SCORE.RESTR>
0

>  <SCORE.RESTR.CAVITY>
0

>  <SCORE.RESTR.norm>
0

>  <SCORE.SYSTEM>
0

>  <SCORE.SYSTEM.CONST>
0

>  <SCORE.SYSTEM.DIHEDRAL>
0

>  <SCORE.SYSTEM.SOLV>
0

>  <SCORE.SYSTEM.norm>
0

>  <SCORE.heavy>
11

>  <SCORE.norm>
-0.884959

>  <RMSD>
3.422

$$$$
ligand
 OpenBabel11021811493D
libRbt.so/2013.1/901 2013/11/27
 11 12  0  0  0  0  0  0  0  0999 V2000
   11.9166   10.7801    6.5517 N   0  0  0  0  0  0  0  0  0  0  0  0
   12.5789   10.0864    7.4955 C   0  0  0  0  0  0  0  0  0  0  0  0
   13.1018    8.8401    7.1818 N   0  0  0  0  0  0  0  0  0  0  0  0
   12.7444   10.5720    8.7360 N   0  0  0  0  0  0  0  0  0  0  0  0
   12.2510   11.7696    9.0886 C   0  0  0  0  0  0  0  0  0  0  0  0
   11.5476   12.5408    8.1361 C   0  0  0  0  0  0  0  0  0  0  0  0
   11.3933   11.9948    6.8234 C   0  0  0  0  0  0  0  0  0  0  0  0
   10.7224   12.6904    5.8475 N   0  0  0  0  0  0  0  0  0  0  0  0
   11.1631   13.6936    8.7551 N   0  0  0  0  0  0  0  0  0  0  0  0
   11.5718   13.6735    9.9881 C   0  0  0  0  0  0  0  0  0  0  0  0
   12.2516   12.5098   10.2452 N   0  0  0  0  0  0  0  0  0  0  0  0
  1  7  2  0  0  0  0
  1  2  1  0  0  0  0
  2  3  1  0  0  0  0
  2  4  2  0  0  0  0
  4  5  1  0  0  0  0
  5  6  2  0  0  0  0
  5 11  1  0  0  0  0
  6  7  1  0  0  0  0
  6  9  1  0  0  0  0
  7  8  1  0  0  0  0
  9 10  1  0  0  0  0
 10 11  2  0  0  0  0
M  END
>  <CHROM.1>
11.93546400,11.72217126,8.06130671,1.11445105,1.02831156,-2.14449551

>  <Name>
ligand

>  <RI>
0

>  <Rbt.Current_Directory>
/home/itssahil/PROJECTS/Mol_Feturizer/New_Systems/rnas/4FEO

>  <Rbt.Executable>
rbdock ($Id: //depot/dev/client3/rdock/2013.1/src/exe/rbdock.cxx#4 $)

>  <Rbt.Library>
libRbt.so (2013.1, Build901 2013/11/27)

>  <Rbt.Parameter_File>
/export/apps/rDock/src/rDock_2013.1_src/data/scripts/dock_solv.prm

>  <Rbt.Receptor>
prm/pocket_docking_5.prm

>  <SCORE>
-9.98091

>  <SCORE.INTER>
-9.98091

>  <SCORE.INTER.CONST>
1

>  <SCORE.INTER.POLAR>
0

>  <SCORE.INTER.ROT>
0

>  <SCORE.INTER.SOLV>
14.9693

>  <SCORE.INTER.VDW>
-15.2437

>  <SCORE.INTER.norm>
-0.907356

>  <SCORE.INTRA>
0

>  <SCORE.INTRA.DIHEDRAL>
0

>  <SCORE.INTRA.DIHEDRAL.0>
0

>  <SCORE.INTRA.POLAR>
0

>  <SCORE.INTRA.POLAR.0>
0

>  <SCORE.INTRA.REPUL>
0

>  <SCORE.INTRA.REPUL.0>
0

>  <SCORE.INTRA.SOLV>
0

>  <SCORE.INTRA.SOLV.lig_0>
-48.9252

>  <SCORE.INTRA.VDW>
0

>  <SCORE.INTRA.VDW.0>
0

>  <SCORE.INTRA.norm>
0

>  <SCORE.RESTR>
0

>  <SCORE.RESTR.CAVITY>
0

>  <SCORE.RESTR.norm>
0

>  <SCORE.SYSTEM>
0

>  <SCORE.SYSTEM.CONST>
0

>  <SCORE.SYSTEM.DIHEDRAL>
0

>  <SCORE.SYSTEM.SOLV>
0

>  <SCORE.SYSTEM.norm>
0

>  <SCORE.heavy>
11

>  <SCORE.norm>
-0.907356

>  <RMSD>
3.822

$$$$
ligand
 OpenBabel11021811493D
libRbt.so/2013.1/901 2013/11/27
 11 12  0  0  0  0  0  0  0  0999 V2000
   11.8341   10.6893    6.5509 N   0  0  0  0  0  0  0  0  0  0  0  0
   12.5072    9.9969    7.4880 C   0  0  0  0  0  0  0  0  0  0  0  0
   12.9973    8.7359    7.1803 N   0  0  0  0  0  0  0  0  0  0  0  0
   12.7147   10.4979    8.7160 N   0  0  0  0  0  0  0  0  0  0  0  0
   12.2542   11.7102    9.0626 C   0  0  0  0  0  0  0  0  0  0  0  0
   11.5412   12.4808    8.1167 C   0  0  0  0  0  0  0  0  0  0  0  0
   11.3419   11.9182    6.8171 C   0  0  0  0  0  0  0  0  0  0  0  0
   10.6593   12.6122    5.8482 N   0  0  0  0  0  0  0  0  0  0  0  0
   11.1957   13.6503    8.7273 N   0  0  0  0  0  0  0  0  0  0  0  0
   11.6362   13.6406    9.9495 C   0  0  0  0  0  0  0  0  0  0  0  0
   12.2996   12.4676   10.2070 N   0  0  0  0  0  0  0  0  0  0  0  0
  1  7  2  0  0  0  0
  1  2  1  0  0  0  0
  2  3  1  0  0  0  0
  2  4  2  0  0  0  0
  4  5  1  0  0  0  0
  5  6  2  0  0  0  0
  5 11  1  0  0  0  0
  6  7  1  0  0  0  0
  6  9  1  0  0  0  0
  7  8  1  0  0  0  0
  9 10  1  0  0  0  0
 10 11  2  0  0  0  0
M  END
>  <CHROM.1>
11.91093604,11.65356431,8.04464713,1.17787427,1.02958130,-2.21422670

>  <Name>
ligand

>  <RI>
0

>  <Rbt.Current_Directory>
/home/itssahil/PROJECTS/Mol_Feturizer/New_Systems/rnas/4FEO

>  <Rbt.Executable>
rbdock ($Id: //depot/dev/client3/rdock/2013.1/src/exe/rbdock.cxx#4 $)

>  <Rbt.Library>
libRbt.so (2013.1, Build901 2013/11/27)

>  <Rbt.Parameter_File>
/export/apps/rDock/src/rDock_2013.1_src/data/scripts/dock_solv.prm

>  <Rbt.Receptor>
prm/pocket_docking_4.prm

>  <SCORE>
-10.0059

>  <SCORE.INTER>
-10.0059

>  <SCORE.INTER.CONST>
1

>  <SCORE.INTER.POLAR>
0

>  <SCORE.INTER.ROT>
0

>  <SCORE.INTER.SOLV>
15.159

>  <SCORE.INTER.VDW>
-15.3236

>  <SCORE.INTER.norm>
-0.90963

>  <SCORE.INTRA>
0

>  <SCORE.INTRA.DIHEDRAL>
0

>  <SCORE.INTRA.DIHEDRAL.0>
0

>  <SCORE.INTRA.POLAR>
0

>  <SCORE.INTRA.POLAR.0>
0

>  <SCORE.INTRA.REPUL>
0

>  <SCORE.INTRA.REPUL.0>
0

>  <SCORE.INTRA.SOLV>
0

>  <SCORE.INTRA.SOLV.lig_0>
-48.9252

>  <SCORE.INTRA.VDW>
0

>  <SCORE.INTRA.VDW.0>
0

>  <SCORE.INTRA.norm>
0

>  <SCORE.RESTR>
0

>  <SCORE.RESTR.CAVITY>
0

>  <SCORE.RESTR.norm>
0

>  <SCORE.SYSTEM>
0

>  <SCORE.SYSTEM.CONST>
0

>  <SCORE.SYSTEM.DIHEDRAL>
0

>  <SCORE.SYSTEM.SOLV>
0

>  <SCORE.SYSTEM.norm>
0

>  <SCORE.heavy>
11

>  <SCORE.norm>
-0.90963

>  <RMSD>
3.827

$$$$
ligand
 OpenBabel11021811493D
libRbt.so/2013.1/901 2013/11/27
 11 12  0  0  0  0  0  0  0  0999 V2000
   11.8432   10.7056    6.6072 N   0  0  0  0  0  0  0  0  0  0  0  0
   12.5366   10.0244    7.5376 C   0  0  0  0  0  0  0  0  0  0  0  0
   13.0489    8.7738    7.2233 N   0  0  0  0  0  0  0  0  0  0  0  0
   12.7434   10.5265    8.7652 N   0  0  0  0  0  0  0  0  0  0  0  0
   12.2619   11.7289    9.1181 C   0  0  0  0  0  0  0  0  0  0  0  0
   11.5271   12.4875    8.1793 C   0  0  0  0  0  0  0  0  0  0  0  0
   11.3291   11.9241    6.8799 C   0  0  0  0  0  0  0  0  0  0  0  0
   10.6259   12.6068    5.9177 N   0  0  0  0  0  0  0  0  0  0  0  0
   11.1633   13.6487    8.7952 N   0  0  0  0  0  0  0  0  0  0  0  0
   11.6129   13.6449   10.0141 C   0  0  0  0  0  0  0  0  0  0  0  0
   12.3010   12.4845   10.2639 N   0  0  0  0  0  0  0  0  0  0  0  0
  1  7  2  0  0  0  0
  1  2  1  0  0  0  0
  2  3  1  0  0  0  0
  2  4  2  0  0  0  0
  4  5  1  0  0  0  0
  5  6  2  0  0  0  0
  5 11  1  0  0  0  0
  6  7  1  0  0  0  0
  6  9  1  0  0  0  0
  7  8  1  0  0  0  0
  9 10  1  0  0  0  0
 10 11  2  0  0  0  0
M  END
>  <CHROM.1>
11.91228170,11.66782960,8.10257688,1.16704067,1.00950858,-2.20268462

>  <Name>
ligand

>  <RI>
0

>  <Rbt.Current_Directory>
/home/itssahil/PROJECTS/Mol_Feturizer/New_Systems/rnas/4FEO

>  <Rbt.Executable>
rbdock ($Id: //depot/dev/client3/rdock/2013.1/src/exe/rbdock.cxx#4 $)

>  <Rbt.Library>
libRbt.so (2013.1, Build901 2013/11/27)

>  <Rbt.Parameter_File>
/export/apps/rDock/src/rDock_2013.1_src/data/scripts/dock_solv.prm

>  <Rbt.Receptor>
prm/pocket_docking_6.prm

>  <SCORE>
-10.0261

>  <SCORE.INTER>
-10.0261

>  <SCORE.INTER.CONST>
1

>  <SCORE.INTER.POLAR>
0

>  <SCORE.INTER.ROT>
0

>  <SCORE.INTER.SOLV>
14.7636

>  <SCORE.INTER.VDW>
-15.2053

>  <SCORE.INTER.norm>
-0.911466

>  <SCORE.INTRA>
0

>  <SCORE.INTRA.DIHEDRAL>
0

>  <SCORE.INTRA.DIHEDRAL.0>
0

>  <SCORE.INTRA.POLAR>
0

>  <SCORE.INTRA.POLAR.0>
0

>  <SCORE.INTRA.REPUL>
0

>  <SCORE.INTRA.REPUL.0>
0

>  <SCORE.INTRA.SOLV>
0

>  <SCORE.INTRA.SOLV.lig_0>
-48.9252

>  <SCORE.INTRA.VDW>
0

>  <SCORE.INTRA.VDW.0>
0

>  <SCORE.INTRA.norm>
0

>  <SCORE.RESTR>
0

>  <SCORE.RESTR.CAVITY>
0

>  <SCORE.RESTR.norm>
0

>  <SCORE.SYSTEM>
0

>  <SCORE.SYSTEM.CONST>
0

>  <SCORE.SYSTEM.DIHEDRAL>
0

>  <SCORE.SYSTEM.SOLV>
0

>  <SCORE.SYSTEM.norm>
0

>  <SCORE.heavy>
11

>  <SCORE.norm>
-0.911466

>  <RMSD>
3.831

$$$$
ligand
 OpenBabel11021811493D
libRbt.so/2013.1/901 2013/11/27
 11 12  0  0  0  0  0  0  0  0999 V2000
   11.8374   10.7591    6.5060 N   0  0  0  0  0  0  0  0  0  0  0  0
   12.5268   10.0603    7.4263 C   0  0  0  0  0  0  0  0  0  0  0  0
   13.0318    8.8115    7.0938 N   0  0  0  0  0  0  0  0  0  0  0  0
   12.7365   10.5433    8.6611 N   0  0  0  0  0  0  0  0  0  0  0  0
   12.2621   11.7433    9.0315 C   0  0  0  0  0  0  0  0  0  0  0  0
   11.5318   12.5198    8.1039 C   0  0  0  0  0  0  0  0  0  0  0  0
   11.3306   11.9765    6.7964 C   0  0  0  0  0  0  0  0  0  0  0  0
   10.6314   12.6772    5.8443 N   0  0  0  0  0  0  0  0  0  0  0  0
   11.1748   13.6740    8.7367 N   0  0  0  0  0  0  0  0  0  0  0  0
   11.6244   13.6498    9.9554 C   0  0  0  0  0  0  0  0  0  0  0  0
   12.3056   12.4818   10.1882 N   0  0  0  0  0  0  0  0  0  0  0  0
  1  7  2  0  0  0  0
  1  2  1  0  0  0  0
  2  3  1  0  0  0  0
  2  4  2  0  0  0  0
  4  5  1  0  0  0  0
  5  6  2  0  0  0  0
  5 11  1  0  0  0  0
  6  7  1  0  0  0  0
  6  9  1  0  0  0  0
  7  8  1  0  0  0  0
  9 10  1  0  0  0  0
 10 11  2  0  0  0  0
M  END
>  <CHROM.1>
11.91217488,11.69903774,8.01520769,1.17356860,1.01424519,-2.19365297

>  <Name>
ligand

>  <RI>
0

>  <Rbt.Current_Directory>
/home/itssahil/PROJECTS/Mol_Feturizer/New_Systems/rnas/4FEO

>  <Rbt.Executable>
rbdock ($Id: //depot/dev/client3/rdock/2013.1/src/exe/rbdock.cxx#4 $)

>  <Rbt.Library>
libRbt.so (2013.1, Build901 2013/11/27)

>  <Rbt.Parameter_File>
/export/apps/rDock/src/rDock_2013.1_src/data/scripts/dock_solv.prm

>  <Rbt.Receptor>
prm/blind_docking_100.prm

>  <SCORE>
-10.0887

>  <SCORE.INTER>
-10.0887

>  <SCORE.INTER.CONST>
1

>  <SCORE.INTER.POLAR>
0

>  <SCORE.INTER.ROT>
0

>  <SCORE.INTER.SOLV>
15.1519

>  <SCORE.INTER.VDW>
-15.3764

>  <SCORE.INTER.norm>
-0.917155

>  <SCORE.INTRA>
0

>  <SCORE.INTRA.DIHEDRAL>
0

>  <SCORE.INTRA.DIHEDRAL.0>
0

>  <SCORE.INTRA.POLAR>
0

>  <SCORE.INTRA.POLAR.0>
0

>  <SCORE.INTRA.REPUL>
0

>  <SCORE.INTRA.REPUL.0>
0

>  <SCORE.INTRA.SOLV>
0

>  <SCORE.INTRA.SOLV.lig_0>
-48.9252

>  <SCORE.INTRA.VDW>
0

>  <SCORE.INTRA.VDW.0>
0

>  <SCORE.INTRA.norm>
0

>  <SCORE.RESTR>
0

>  <SCORE.RESTR.CAVITY>
0

>  <SCORE.RESTR.norm>
0

>  <SCORE.SYSTEM>
0

>  <SCORE.SYSTEM.CONST>
0

>  <SCORE.SYSTEM.DIHEDRAL>
0

>  <SCORE.SYSTEM.SOLV>
0

>  <SCORE.SYSTEM.norm>
0

>  <SCORE.heavy>
11

>  <SCORE.norm>
-0.917155

>  <RMSD>
3.832

$$$$
ligand
 OpenBabel11021811493D
libRbt.so/2013.1/901 2013/11/27
 11 12  0  0  0  0  0  0  0  0999 V2000
   11.8397   10.7663    6.5222 N   0  0  0  0  0  0  0  0  0  0  0  0
   12.5130   10.0598    7.4487 C   0  0  0  0  0  0  0  0  0  0  0  0
   13.0054    8.8047    7.1210 N   0  0  0  0  0  0  0  0  0  0  0  0
   12.7184   10.5411    8.6848 N   0  0  0  0  0  0  0  0  0  0  0  0
   12.2556   11.7470    9.0506 C   0  0  0  0  0  0  0  0  0  0  0  0
   11.5424   12.5317    8.1166 C   0  0  0  0  0  0  0  0  0  0  0  0
   11.3453   11.9899    6.8078 C   0  0  0  0  0  0  0  0  0  0  0  0
   10.6625   12.6985    5.8496 N   0  0  0  0  0  0  0  0  0  0  0  0
   11.1944   13.6906    8.7457 N   0  0  0  0  0  0  0  0  0  0  0  0
   11.6336   13.6618    9.9680 C   0  0  0  0  0  0  0  0  0  0  0  0
   12.2987   12.4858   10.2071 N   0  0  0  0  0  0  0  0  0  0  0  0
  1  7  2  0  0  0  0
  1  2  1  0  0  0  0
  2  3  1  0  0  0  0
  2  4  2  0  0  0  0
  4  5  1  0  0  0  0
  5  6  2  0  0  0  0
  5 11  1  0  0  0  0
  6  7  1  0  0  0  0
  6  9  1  0  0  0  0
  7  8  1  0  0  0  0
  9 10  1  0  0  0  0
 10 11  2  0  0  0  0
M  END
>  <CHROM.1>
11.91350096,11.70631231,8.03147507,1.17445669,1.02890333,-2.19506545

>  <Name>
ligand

>  <RI>
0

>  <Rbt.Current_Directory>
/home/itssahil/PROJECTS/Mol_Feturizer/New_Systems/rnas/4FEO

>  <Rbt.Executable>
rbdock ($Id: //depot/dev/client3/rdock/2013.1/src/exe/rbdock.cxx#4 $)

>  <Rbt.Library>
libRbt.so (2013.1, Build901 2013/11/27)

>  <Rbt.Parameter_File>
/export/apps/rDock/src/rDock_2013.1_src/data/scripts/dock_solv.prm

>  <Rbt.Receptor>
prm/blind_docking_40.prm

>  <SCORE>
-10.1311

>  <SCORE.INTER>
-10.1311

>  <SCORE.INTER.CONST>
1

>  <SCORE.INTER.POLAR>
0

>  <SCORE.INTER.ROT>
0

>  <SCORE.INTER.SOLV>
15.1707

>  <SCORE.INTER.VDW>
-15.411

>  <SCORE.INTER.norm>
-0.921007

>  <SCORE.INTRA>
0

>  <SCORE.INTRA.DIHEDRAL>
0

>  <SCORE.INTRA.DIHEDRAL.0>
0

>  <SCORE.INTRA.POLAR>
0

>  <SCORE.INTRA.POLAR.0>
0

>  <SCORE.INTRA.REPUL>
0

>  <SCORE.INTRA.REPUL.0>
0

>  <SCORE.INTRA.SOLV>
0

>  <SCORE.INTRA.SOLV.lig_0>
-48.9252

>  <SCORE.INTRA.VDW>
0

>  <SCORE.INTRA.VDW.0>
0

>  <SCORE.INTRA.norm>
0

>  <SCORE.RESTR>
0

>  <SCORE.RESTR.CAVITY>
0

>  <SCORE.RESTR.norm>
0

>  <SCORE.SYSTEM>
0

>  <SCORE.SYSTEM.CONST>
0

>  <SCORE.SYSTEM.DIHEDRAL>
0

>  <SCORE.SYSTEM.SOLV>
0

>  <SCORE.SYSTEM.norm>
0

>  <SCORE.heavy>
11

>  <SCORE.norm>
-0.921007

>  <RMSD>
3.832

$$$$
ligand
 OpenBabel11021811493D
libRbt.so/2013.1/901 2013/11/27
 11 12  0  0  0  0  0  0  0  0999 V2000
   11.8631   10.7822    6.5169 N   0  0  0  0  0  0  0  0  0  0  0  0
   12.5450   10.0806    7.4408 C   0  0  0  0  0  0  0  0  0  0  0  0
   13.0529    8.8330    7.1085 N   0  0  0  0  0  0  0  0  0  0  0  0
   12.7444   10.5598    8.6788 N   0  0  0  0  0  0  0  0  0  0  0  0
   12.2667   11.7585    9.0490 C   0  0  0  0  0  0  0  0  0  0  0  0
   11.5439   12.5378    8.1179 C   0  0  0  0  0  0  0  0  0  0  0  0
   11.3536   11.9985    6.8070 C   0  0  0  0  0  0  0  0  0  0  0  0
   10.6621   12.7022    5.8514 N   0  0  0  0  0  0  0  0  0  0  0  0
   11.1815   13.6899    8.7513 N   0  0  0  0  0  0  0  0  0  0  0  0
   11.6210   13.6619    9.9736 C   0  0  0  0  0  0  0  0  0  0  0  0
   12.3005   12.4934   10.2083 N   0  0  0  0  0  0  0  0  0  0  0  0
  1  7  2  0  0  0  0
  1  2  1  0  0  0  0
  2  3  1  0  0  0  0
  2  4  2  0  0  0  0
  4  5  1  0  0  0  0
  5  6  2  0  0  0  0
  5 11  1  0  0  0  0
  6  7  1  0  0  0  0
  6  9  1  0  0  0  0
  7  8  1  0  0  0  0
  9 10  1  0  0  0  0
 10 11  2  0  0  0  0
M  END
>  <CHROM.1>
11.92517441,11.71736861,8.02971280,1.16056065,1.01885294,-2.17943472

>  <Name>
ligand

>  <RI>
0

>  <Rbt.Current_Directory>
/home/itssahil/PROJECTS/Mol_Feturizer/New_Systems/rnas/4FEO

>  <Rbt.Executable>
rbdock ($Id: //depot/dev/client3/rdock/2013.1/src/exe/rbdock.cxx#4 $)

>  <Rbt.Library>
libRbt.so (2013.1, Build901 2013/11/27)

>  <Rbt.Parameter_File>
/export/apps/rDock/src/rDock_2013.1_src/data/scripts/dock_solv.prm

>  <Rbt.Receptor>
prm/pocket_docking_5.prm

>  <SCORE>
-10.1269

>  <SCORE.INTER>
-10.1269

>  <SCORE.INTER.CONST>
1

>  <SCORE.INTER.POLAR>
0

>  <SCORE.INTER.ROT>
0

>  <SCORE.INTER.SOLV>
15.0835

>  <SCORE.INTER.VDW>
-15.3791

>  <SCORE.INTER.norm>
-0.920628

>  <SCORE.INTRA>
0

>  <SCORE.INTRA.DIHEDRAL>
0

>  <SCORE.INTRA.DIHEDRAL.0>
0

>  <SCORE.INTRA.POLAR>
0

>  <SCORE.INTRA.POLAR.0>
0

>  <SCORE.INTRA.REPUL>
0

>  <SCORE.INTRA.REPUL.0>
0

>  <SCORE.INTRA.SOLV>
0

>  <SCORE.INTRA.SOLV.lig_0>
-48.9252

>  <SCORE.INTRA.VDW>
0

>  <SCORE.INTRA.VDW.0>
0

>  <SCORE.INTRA.norm>
0

>  <SCORE.RESTR>
0

>  <SCORE.RESTR.CAVITY>
0

>  <SCORE.RESTR.norm>
0

>  <SCORE.SYSTEM>
0

>  <SCORE.SYSTEM.CONST>
0

>  <SCORE.SYSTEM.DIHEDRAL>
0

>  <SCORE.SYSTEM.SOLV>
0

>  <SCORE.SYSTEM.norm>
0

>  <SCORE.heavy>
11

>  <SCORE.norm>
-0.920628

>  <RMSD>
3.832

$$$$
ligand
 OpenBabel11021811493D
libRbt.so/2013.1/901 2013/11/27
 11 12  0  0  0  0  0  0  0  0999 V2000
   11.8362   10.7672    6.5213 N   0  0  0  0  0  0  0  0  0  0  0  0
   12.5121   10.0617    7.4465 C   0  0  0  0  0  0  0  0  0  0  0  0
   13.0059    8.8074    7.1180 N   0  0  0  0  0  0  0  0  0  0  0  0
   12.7190   10.5433    8.6824 N   0  0  0  0  0  0  0  0  0  0  0  0
   12.2550   11.7484    9.0489 C   0  0  0  0  0  0  0  0  0  0  0  0
   11.5390   12.5321    8.1162 C   0  0  0  0  0  0  0  0  0  0  0  0
   11.3405   11.9901    6.8077 C   0  0  0  0  0  0  0  0  0  0  0  0
   10.6550   12.6976    5.8507 N   0  0  0  0  0  0  0  0  0  0  0  0
   11.1903   13.6904    8.7459 N   0  0  0  0  0  0  0  0  0  0  0  0
   11.6318   13.6622    9.9675 C   0  0  0  0  0  0  0  0  0  0  0  0
   12.2990   12.4873   10.2055 N   0  0  0  0  0  0  0  0  0  0  0  0
  1  7  2  0  0  0  0
  1  2  1  0  0  0  0
  2  3  1  0  0  0  0
  2  4  2  0  0  0  0
  4  5  1  0  0  0  0
  5  6  2  0  0  0  0
  5 11  1  0  0  0  0
  6  7  1  0  0  0  0
  6  9  1  0  0  0  0
  7  8  1  0  0  0  0
  9 10  1  0  0  0  0
 10 11  2  0  0  0  0
M  END
>  <CHROM.1>
11.91121498,11.70725749,8.03043158,1.17546219,1.02667756,-2.19589914

>  <Name>
ligand

>  <RI>
0

>  <Rbt.Current_Directory>
/home/itssahil/PROJECTS/Mol_Feturizer/New_Systems/rnas/4FEO

>  <Rbt.Executable>
rbdock ($Id: //depot/dev/client3/rdock/2013.1/src/exe/rbdock.cxx#4 $)

>  <Rbt.Library>
libRbt.so (2013.1, Build901 2013/11/27)

>  <Rbt.Parameter_File>
/export/apps/rDock/src/rDock_2013.1_src/data/scripts/dock_solv.prm

>  <Rbt.Receptor>
prm/pocket_docking_6.prm

>  <SCORE>
-10.1261

>  <SCORE.INTER>
-10.1261

>  <SCORE.INTER.CONST>
1

>  <SCORE.INTER.POLAR>
0

>  <SCORE.INTER.ROT>
0

>  <SCORE.INTER.SOLV>
15.1631

>  <SCORE.INTER.VDW>
-15.4051

>  <SCORE.INTER.norm>
-0.920554

>  <SCORE.INTRA>
0

>  <SCORE.INTRA.DIHEDRAL>
0

>  <SCORE.INTRA.DIHEDRAL.0>
0

>  <SCORE.INTRA.POLAR>
0

>  <SCORE.INTRA.POLAR.0>
0

>  <SCORE.INTRA.REPUL>
0

>  <SCORE.INTRA.REPUL.0>
0

>  <SCORE.INTRA.SOLV>
0

>  <SCORE.INTRA.SOLV.lig_0>
-48.9252

>  <SCORE.INTRA.VDW>
0

>  <SCORE.INTRA.VDW.0>
0

>  <SCORE.INTRA.norm>
0

>  <SCORE.RESTR>
0

>  <SCORE.RESTR.CAVITY>
0

>  <SCORE.RESTR.norm>
0

>  <SCORE.SYSTEM>
0

>  <SCORE.SYSTEM.CONST>
0

>  <SCORE.SYSTEM.DIHEDRAL>
0

>  <SCORE.SYSTEM.SOLV>
0

>  <SCORE.SYSTEM.norm>
0

>  <SCORE.heavy>
11

>  <SCORE.norm>
-0.920554

>  <RMSD>
3.832

$$$$
ligand
 OpenBabel11021811493D
libRbt.so/2013.1/901 2013/11/27
 11 12  0  0  0  0  0  0  0  0999 V2000
   11.8695   10.7712    6.5094 N   0  0  0  0  0  0  0  0  0  0  0  0
   12.5460   10.0681    7.4361 C   0  0  0  0  0  0  0  0  0  0  0  0
   13.0498    8.8180    7.1069 N   0  0  0  0  0  0  0  0  0  0  0  0
   12.7439   10.5481    8.6740 N   0  0  0  0  0  0  0  0  0  0  0  0
   12.2700   11.7492    9.0412 C   0  0  0  0  0  0  0  0  0  0  0  0
   11.5529   12.5302    8.1071 C   0  0  0  0  0  0  0  0  0  0  0  0
   11.3641   11.9899    6.7964 C   0  0  0  0  0  0  0  0  0  0  0  0
   10.6781   12.6951    5.8379 N   0  0  0  0  0  0  0  0  0  0  0  0
   11.1934   13.6846    8.7379 N   0  0  0  0  0  0  0  0  0  0  0  0
   11.6294   13.6565    9.9615 C   0  0  0  0  0  0  0  0  0  0  0  0
   12.3036   12.4856   10.1997 N   0  0  0  0  0  0  0  0  0  0  0  0
  1  7  2  0  0  0  0
  1  2  1  0  0  0  0
  2  3  1  0  0  0  0
  2  4  2  0  0  0  0
  4  5  1  0  0  0  0
  5  6  2  0  0  0  0
  5 11  1  0  0  0  0
  6  7  1  0  0  0  0
  6  9  1  0  0  0  0
  7  8  1  0  0  0  0
  9 10  1  0  0  0  0
 10 11  2  0  0  0  0
M  END
>  <CHROM.1>
11.93112641,11.70812744,8.02107765,1.16062227,1.02375673,-2.18084575

>  <Name>
ligand

>  <RI>
0

>  <Rbt.Current_Directory>
/home/itssahil/PROJECTS/Mol_Feturizer/New_Systems/rnas/4FEO

>  <Rbt.Executable>
rbdock ($Id: //depot/dev/client3/rdock/2013.1/src/exe/rbdock.cxx#4 $)

>  <Rbt.Library>
libRbt.so (2013.1, Build901 2013/11/27)

>  <Rbt.Parameter_File>
/export/apps/rDock/src/rDock_2013.1_src/data/scripts/dock_solv.prm

>  <Rbt.Receptor>
prm/pocket_docking_6.prm

>  <SCORE>
-10.1285

>  <SCORE.INTER>
-10.1285

>  <SCORE.INTER.CONST>
1

>  <SCORE.INTER.POLAR>
0

>  <SCORE.INTER.ROT>
0

>  <SCORE.INTER.SOLV>
15.1705

>  <SCORE.INTER.VDW>
-15.4092

>  <SCORE.INTER.norm>
-0.920769

>  <SCORE.INTRA>
0

>  <SCORE.INTRA.DIHEDRAL>
0

>  <SCORE.INTRA.DIHEDRAL.0>
0

>  <SCORE.INTRA.POLAR>
0

>  <SCORE.INTRA.POLAR.0>
0

>  <SCORE.INTRA.REPUL>
0

>  <SCORE.INTRA.REPUL.0>
0

>  <SCORE.INTRA.SOLV>
0

>  <SCORE.INTRA.SOLV.lig_0>
-48.9252

>  <SCORE.INTRA.VDW>
0

>  <SCORE.INTRA.VDW.0>
0

>  <SCORE.INTRA.norm>
0

>  <SCORE.RESTR>
0

>  <SCORE.RESTR.CAVITY>
0

>  <SCORE.RESTR.norm>
0

>  <SCORE.SYSTEM>
0

>  <SCORE.SYSTEM.CONST>
0

>  <SCORE.SYSTEM.DIHEDRAL>
0

>  <SCORE.SYSTEM.SOLV>
0

>  <SCORE.SYSTEM.norm>
0

>  <SCORE.heavy>
11

>  <SCORE.norm>
-0.920769

>  <RMSD>
3.832

$$$$
ligand
 OpenBabel11021811493D
libRbt.so/2013.1/901 2013/11/27
 11 12  0  0  0  0  0  0  0  0999 V2000
   11.8735   10.7959    6.5109 N   0  0  0  0  0  0  0  0  0  0  0  0
   12.5386   10.0840    7.4391 C   0  0  0  0  0  0  0  0  0  0  0  0
   13.0359    8.8318    7.1078 N   0  0  0  0  0  0  0  0  0  0  0  0
   12.7312   10.5571    8.6804 N   0  0  0  0  0  0  0  0  0  0  0  0
   12.2632   11.7599    9.0498 C   0  0  0  0  0  0  0  0  0  0  0  0
   11.5581   12.5500    8.1142 C   0  0  0  0  0  0  0  0  0  0  0  0
   11.3747   12.0169    6.7998 C   0  0  0  0  0  0  0  0  0  0  0  0
   10.7004   12.7311    5.8398 N   0  0  0  0  0  0  0  0  0  0  0  0
   11.2023   13.7041    8.7477 N   0  0  0  0  0  0  0  0  0  0  0  0
   11.6296   13.6676    9.9741 C   0  0  0  0  0  0  0  0  0  0  0  0
   12.2938   12.4909   10.2117 N   0  0  0  0  0  0  0  0  0  0  0  0
  1  7  2  0  0  0  0
  1  2  1  0  0  0  0
  2  3  1  0  0  0  0
  2  4  2  0  0  0  0
  4  5  1  0  0  0  0
  5  6  2  0  0  0  0
  5 11  1  0  0  0  0
  6  7  1  0  0  0  0
  6  9  1  0  0  0  0
  7  8  1  0  0  0  0
  9 10  1  0  0  0  0
 10 11  2  0  0  0  0
M  END
>  <CHROM.1>
11.93118491,11.72571246,8.02711573,1.15726758,1.03349825,-2.17351469

>  <Name>
ligand

>  <RI>
0

>  <Rbt.Current_Directory>
/home/itssahil/PROJECTS/Mol_Feturizer/New_Systems/rnas/4FEO

>  <Rbt.Executable>
rbdock ($Id: //depot/dev/client3/rdock/2013.1/src/exe/rbdock.cxx#4 $)

>  <Rbt.Library>
libRbt.so (2013.1, Build901 2013/11/27)

>  <Rbt.Parameter_File>
/export/apps/rDock/src/rDock_2013.1_src/data/scripts/dock_solv.prm

>  <Rbt.Receptor>
prm/pocket_docking_6.prm

>  <SCORE>
-10.1203

>  <SCORE.INTER>
-10.1203

>  <SCORE.INTER.CONST>
1

>  <SCORE.INTER.POLAR>
0

>  <SCORE.INTER.ROT>
0

>  <SCORE.INTER.SOLV>
15.2112

>  <SCORE.INTER.VDW>
-15.4173

>  <SCORE.INTER.norm>
-0.92003

>  <SCORE.INTRA>
0

>  <SCORE.INTRA.DIHEDRAL>
0

>  <SCORE.INTRA.DIHEDRAL.0>
0

>  <SCORE.INTRA.POLAR>
0

>  <SCORE.INTRA.POLAR.0>
0

>  <SCORE.INTRA.REPUL>
0

>  <SCORE.INTRA.REPUL.0>
0

>  <SCORE.INTRA.SOLV>
0

>  <SCORE.INTRA.SOLV.lig_0>
-48.9252

>  <SCORE.INTRA.VDW>
0

>  <SCORE.INTRA.VDW.0>
0

>  <SCORE.INTRA.norm>
0

>  <SCORE.RESTR>
0

>  <SCORE.RESTR.CAVITY>
0

>  <SCORE.RESTR.norm>
0

>  <SCORE.SYSTEM>
0

>  <SCORE.SYSTEM.CONST>
0

>  <SCORE.SYSTEM.DIHEDRAL>
0

>  <SCORE.SYSTEM.SOLV>
0

>  <SCORE.SYSTEM.norm>
0

>  <SCORE.heavy>
11

>  <SCORE.norm>
-0.92003

>  <RMSD>
3.833

$$$$
ligand
 OpenBabel11021811493D
libRbt.so/2013.1/901 2013/11/27
 11 12  0  0  0  0  0  0  0  0999 V2000
   11.8671   10.7810    6.5150 N   0  0  0  0  0  0  0  0  0  0  0  0
   12.5464   10.0776    7.4395 C   0  0  0  0  0  0  0  0  0  0  0  0
   13.0518    8.8288    7.1076 N   0  0  0  0  0  0  0  0  0  0  0  0
   12.7456   10.5562    8.6778 N   0  0  0  0  0  0  0  0  0  0  0  0
   12.2703   11.7559    9.0476 C   0  0  0  0  0  0  0  0  0  0  0  0
   11.5503   12.5370    8.1159 C   0  0  0  0  0  0  0  0  0  0  0  0
   11.3602   11.9984    6.8047 C   0  0  0  0  0  0  0  0  0  0  0  0
   10.6715   12.7038    5.8485 N   0  0  0  0  0  0  0  0  0  0  0  0
   11.1900   13.6899    8.7491 N   0  0  0  0  0  0  0  0  0  0  0  0
   11.6281   13.6607    9.9718 C   0  0  0  0  0  0  0  0  0  0  0  0
   12.3046   12.4906   10.2071 N   0  0  0  0  0  0  0  0  0  0  0  0
  1  7  2  0  0  0  0
  1  2  1  0  0  0  0
  2  3  1  0  0  0  0
  2  4  2  0  0  0  0
  4  5  1  0  0  0  0
  5  6  2  0  0  0  0
  5 11  1  0  0  0  0
  6  7  1  0  0  0  0
  6  9  1  0  0  0  0
  7  8  1  0  0  0  0
  9 10  1  0  0  0  0
 10 11  2  0  0  0  0
M  END
>  <CHROM.1>
11.92978663,11.71575228,8.02799600,1.16143324,1.02140957,-2.18004166

>  <Name>
ligand

>  <RI>
0

>  <Rbt.Current_Directory>
/home/itssahil/PROJECTS/Mol_Feturizer/New_Systems/rnas/4FEO

>  <Rbt.Executable>
rbdock ($Id: //depot/dev/client3/rdock/2013.1/src/exe/rbdock.cxx#4 $)

>  <Rbt.Library>
libRbt.so (2013.1, Build901 2013/11/27)

>  <Rbt.Parameter_File>
/export/apps/rDock/src/rDock_2013.1_src/data/scripts/dock_solv.prm

>  <Rbt.Receptor>
prm/pocket_docking_7.prm

>  <SCORE>
-10.1304

>  <SCORE.INTER>
-10.1304

>  <SCORE.INTER.CONST>
1

>  <SCORE.INTER.POLAR>
0

>  <SCORE.INTER.ROT>
0

>  <SCORE.INTER.SOLV>
15.1128

>  <SCORE.INTER.VDW>
-15.3912

>  <SCORE.INTER.norm>
-0.920942

>  <SCORE.INTRA>
0

>  <SCORE.INTRA.DIHEDRAL>
0

>  <SCORE.INTRA.DIHEDRAL.0>
0

>  <SCORE.INTRA.POLAR>
0

>  <SCORE.INTRA.POLAR.0>
0

>  <SCORE.INTRA.REPUL>
0

>  <SCORE.INTRA.REPUL.0>
0

>  <SCORE.INTRA.SOLV>
0

>  <SCORE.INTRA.SOLV.lig_0>
-48.9252

>  <SCORE.INTRA.VDW>
0

>  <SCORE.INTRA.VDW.0>
0

>  <SCORE.INTRA.norm>
0

>  <SCORE.RESTR>
0

>  <SCORE.RESTR.CAVITY>
0

>  <SCORE.RESTR.norm>
0

>  <SCORE.SYSTEM>
0

>  <SCORE.SYSTEM.CONST>
0

>  <SCORE.SYSTEM.DIHEDRAL>
0

>  <SCORE.SYSTEM.SOLV>
0

>  <SCORE.SYSTEM.norm>
0

>  <SCORE.heavy>
11

>  <SCORE.norm>
-0.920942

>  <RMSD>
3.833

$$$$
ligand
 OpenBabel11021811493D
libRbt.so/2013.1/901 2013/11/27
 11 12  0  0  0  0  0  0  0  0999 V2000
   11.8380   10.7686    6.5224 N   0  0  0  0  0  0  0  0  0  0  0  0
   12.5099   10.0606    7.4487 C   0  0  0  0  0  0  0  0  0  0  0  0
   13.0011    8.8052    7.1204 N   0  0  0  0  0  0  0  0  0  0  0  0
   12.7151   10.5407    8.6854 N   0  0  0  0  0  0  0  0  0  0  0  0
   12.2534   11.7468    9.0518 C   0  0  0  0  0  0  0  0  0  0  0  0
   11.5417   12.5330    8.1179 C   0  0  0  0  0  0  0  0  0  0  0  0
   11.3448   11.9925    6.8086 C   0  0  0  0  0  0  0  0  0  0  0  0
   10.6634   12.7026    5.8505 N   0  0  0  0  0  0  0  0  0  0  0  0
   11.1945   13.6918    8.7477 N   0  0  0  0  0  0  0  0  0  0  0  0
   11.6330   13.6616    9.9703 C   0  0  0  0  0  0  0  0  0  0  0  0
   12.2965   12.4847   10.2090 N   0  0  0  0  0  0  0  0  0  0  0  0
  1  7  2  0  0  0  0
  1  2  1  0  0  0  0
  2  3  1  0  0  0  0
  2  4  2  0  0  0  0
  4  5  1  0  0  0  0
  5  6  2  0  0  0  0
  5 11  1  0  0  0  0
  6  7  1  0  0  0  0
  6  9  1  0  0  0  0
  7  8  1  0  0  0  0
  9 10  1  0  0  0  0
 10 11  2  0  0  0  0
M  END
>  <CHROM.1>
11.91189349,11.70731019,8.03243012,1.17471912,1.03019620,-2.19450882

>  <Name>
ligand

>  <RI>
0

>  <Rbt.Current_Directory>
/home/itssahil/PROJECTS/Mol_Feturizer/New_Systems/rnas/4FEO

>  <Rbt.Executable>
rbdock ($Id: //depot/dev/client3/rdock/2013.1/src/exe/rbdock.cxx#4 $)

>  <Rbt.Library>
libRbt.so (2013.1, Build901 2013/11/27)

>  <Rbt.Parameter_File>
/export/apps/rDock/src/rDock_2013.1_src/data/scripts/dock_solv.prm

>  <Rbt.Receptor>
prm/pocket_docking_8.prm

>  <SCORE>
-10.1294

>  <SCORE.INTER>
-10.1294

>  <SCORE.INTER.CONST>
1

>  <SCORE.INTER.POLAR>
0

>  <SCORE.INTER.ROT>
0

>  <SCORE.INTER.SOLV>
15.1799

>  <SCORE.INTER.VDW>
-15.4129

>  <SCORE.INTER.norm>
-0.920853

>  <SCORE.INTRA>
0

>  <SCORE.INTRA.DIHEDRAL>
0

>  <SCORE.INTRA.DIHEDRAL.0>
0

>  <SCORE.INTRA.POLAR>
0

>  <SCORE.INTRA.POLAR.0>
0

>  <SCORE.INTRA.REPUL>
0

>  <SCORE.INTRA.REPUL.0>
0

>  <SCORE.INTRA.SOLV>
0

>  <SCORE.INTRA.SOLV.lig_0>
-48.9252

>  <SCORE.INTRA.VDW>
0

>  <SCORE.INTRA.VDW.0>
0

>  <SCORE.INTRA.norm>
0

>  <SCORE.RESTR>
0

>  <SCORE.RESTR.CAVITY>
0

>  <SCORE.RESTR.norm>
0

>  <SCORE.SYSTEM>
0

>  <SCORE.SYSTEM.CONST>
0

>  <SCORE.SYSTEM.DIHEDRAL>
0

>  <SCORE.SYSTEM.SOLV>
0

>  <SCORE.SYSTEM.norm>
0

>  <SCORE.heavy>
11

>  <SCORE.norm>
-0.920853

>  <RMSD>
3.833

$$$$
ligand
 OpenBabel11021811493D
libRbt.so/2013.1/901 2013/11/27
 11 12  0  0  0  0  0  0  0  0999 V2000
   11.7770   10.7279    6.6042 N   0  0  0  0  0  0  0  0  0  0  0  0
   12.4825   10.0426    7.5225 C   0  0  0  0  0  0  0  0  0  0  0  0
   12.9858    8.7910    7.1980 N   0  0  0  0  0  0  0  0  0  0  0  0
   12.7098   10.5417    8.7478 N   0  0  0  0  0  0  0  0  0  0  0  0
   12.2377   11.7450    9.1102 C   0  0  0  0  0  0  0  0  0  0  0  0
   11.4911   12.5078    8.1843 C   0  0  0  0  0  0  0  0  0  0  0  0
   11.2713   11.9475    6.8870 C   0  0  0  0  0  0  0  0  0  0  0  0
   10.5556   12.6344    5.9371 N   0  0  0  0  0  0  0  0  0  0  0  0
   11.1406   13.6690    8.8079 N   0  0  0  0  0  0  0  0  0  0  0  0
   11.6090   13.6613   10.0198 C   0  0  0  0  0  0  0  0  0  0  0  0
   12.2970   12.4982   10.2568 N   0  0  0  0  0  0  0  0  0  0  0  0
  1  7  2  0  0  0  0
  1  2  1  0  0  0  0
  2  3  1  0  0  0  0
  2  4  2  0  0  0  0
  4  5  1  0  0  0  0
  5  6  2  0  0  0  0
  5 11  1  0  0  0  0
  6  7  1  0  0  0  0
  6  9  1  0  0  0  0
  7  8  1  0  0  0  0
  9 10  1  0  0  0  0
 10 11  2  0  0  0  0
M  END
>  <CHROM.1>
11.87235045,11.68702189,8.10011337,1.19376355,1.00289345,-2.22335673

>  <Name>
ligand

>  <RI>
0

>  <Rbt.Current_Directory>
/home/itssahil/PROJECTS/Mol_Feturizer/New_Systems/rnas/4FEO

>  <Rbt.Executable>
rbdock ($Id: //depot/dev/client3/rdock/2013.1/src/exe/rbdock.cxx#4 $)

>  <Rbt.Library>
libRbt.so (2013.1, Build901 2013/11/27)

>  <Rbt.Parameter_File>
/export/apps/rDock/src/rDock_2013.1_src/data/scripts/dock_solv.prm

>  <Rbt.Receptor>
prm/pocket_docking_8.prm

>  <SCORE>
-10.0305

>  <SCORE.INTER>
-10.0305

>  <SCORE.INTER.CONST>
1

>  <SCORE.INTER.POLAR>
0

>  <SCORE.INTER.ROT>
0

>  <SCORE.INTER.SOLV>
14.7985

>  <SCORE.INTER.VDW>
-15.2198

>  <SCORE.INTER.norm>
-0.911862

>  <SCORE.INTRA>
0

>  <SCORE.INTRA.DIHEDRAL>
0

>  <SCORE.INTRA.DIHEDRAL.0>
0

>  <SCORE.INTRA.POLAR>
0

>  <SCORE.INTRA.POLAR.0>
0

>  <SCORE.INTRA.REPUL>
0

>  <SCORE.INTRA.REPUL.0>
0

>  <SCORE.INTRA.SOLV>
0

>  <SCORE.INTRA.SOLV.lig_0>
-48.9252

>  <SCORE.INTRA.VDW>
0

>  <SCORE.INTRA.VDW.0>
0

>  <SCORE.INTRA.norm>
0

>  <SCORE.RESTR>
0

>  <SCORE.RESTR.CAVITY>
0

>  <SCORE.RESTR.norm>
0

>  <SCORE.SYSTEM>
0

>  <SCORE.SYSTEM.CONST>
0

>  <SCORE.SYSTEM.DIHEDRAL>
0

>  <SCORE.SYSTEM.SOLV>
0

>  <SCORE.SYSTEM.norm>
0

>  <SCORE.heavy>
11

>  <SCORE.norm>
-0.911862

>  <RMSD>
3.833

$$$$
ligand
 OpenBabel11021811493D
libRbt.so/2013.1/901 2013/11/27
 11 12  0  0  0  0  0  0  0  0999 V2000
   11.8386   10.7732    6.5226 N   0  0  0  0  0  0  0  0  0  0  0  0
   12.5097   10.0640    7.4485 C   0  0  0  0  0  0  0  0  0  0  0  0
   13.0006    8.8087    7.1191 N   0  0  0  0  0  0  0  0  0  0  0  0
   12.7146   10.5427    8.6858 N   0  0  0  0  0  0  0  0  0  0  0  0
   12.2532   11.7486    9.0532 C   0  0  0  0  0  0  0  0  0  0  0  0
   11.5423   12.5361    8.1198 C   0  0  0  0  0  0  0  0  0  0  0  0
   11.3458   11.9971    6.8099 C   0  0  0  0  0  0  0  0  0  0  0  0
   10.6651   12.7084    5.8522 N   0  0  0  0  0  0  0  0  0  0  0  0
   11.1953   13.6944    8.7507 N   0  0  0  0  0  0  0  0  0  0  0  0
   11.6332   13.6627    9.9735 C   0  0  0  0  0  0  0  0  0  0  0  0
   12.2962   12.4852   10.2112 N   0  0  0  0  0  0  0  0  0  0  0  0
  1  7  2  0  0  0  0
  1  2  1  0  0  0  0
  2  3  1  0  0  0  0
  2  4  2  0  0  0  0
  4  5  1  0  0  0  0
  5  6  2  0  0  0  0
  5 11  1  0  0  0  0
  6  7  1  0  0  0  0
  6  9  1  0  0  0  0
  7  8  1  0  0  0  0
  9 10  1  0  0  0  0
 10 11  2  0  0  0  0
M  END
>  <CHROM.1>
11.91218409,11.71031414,8.03364636,1.17447065,1.03080105,-2.19325663

>  <Name>
ligand

>  <RI>
0

>  <Rbt.Current_Directory>
/home/itssahil/PROJECTS/Mol_Feturizer/New_Systems/rnas/4FEO

>  <Rbt.Executable>
rbdock ($Id: //depot/dev/client3/rdock/2013.1/src/exe/rbdock.cxx#4 $)

>  <Rbt.Library>
libRbt.so (2013.1, Build901 2013/11/27)

>  <Rbt.Parameter_File>
/export/apps/rDock/src/rDock_2013.1_src/data/scripts/dock_solv.prm

>  <Rbt.Receptor>
prm/blind_docking_100.prm

>  <SCORE>
-10.1275

>  <SCORE.INTER>
-10.1275

>  <SCORE.INTER.CONST>
1

>  <SCORE.INTER.POLAR>
0

>  <SCORE.INTER.ROT>
0

>  <SCORE.INTER.SOLV>
15.177

>  <SCORE.INTER.VDW>
-15.4107

>  <SCORE.INTER.norm>
-0.920683

>  <SCORE.INTRA>
0

>  <SCORE.INTRA.DIHEDRAL>
0

>  <SCORE.INTRA.DIHEDRAL.0>
0

>  <SCORE.INTRA.POLAR>
0

>  <SCORE.INTRA.POLAR.0>
0

>  <SCORE.INTRA.REPUL>
0

>  <SCORE.INTRA.REPUL.0>
0

>  <SCORE.INTRA.SOLV>
0

>  <SCORE.INTRA.SOLV.lig_0>
-48.9252

>  <SCORE.INTRA.VDW>
0

>  <SCORE.INTRA.VDW.0>
0

>  <SCORE.INTRA.norm>
0

>  <SCORE.RESTR>
0

>  <SCORE.RESTR.CAVITY>
0

>  <SCORE.RESTR.norm>
0

>  <SCORE.SYSTEM>
0

>  <SCORE.SYSTEM.CONST>
0

>  <SCORE.SYSTEM.DIHEDRAL>
0

>  <SCORE.SYSTEM.SOLV>
0

>  <SCORE.SYSTEM.norm>
0

>  <SCORE.heavy>
11

>  <SCORE.norm>
-0.920683

>  <RMSD>
3.834

$$$$
ligand
 OpenBabel11021811493D
libRbt.so/2013.1/901 2013/11/27
 11 12  0  0  0  0  0  0  0  0999 V2000
   11.8514   10.7791    6.5129 N   0  0  0  0  0  0  0  0  0  0  0  0
   12.5341   10.0749    7.4341 C   0  0  0  0  0  0  0  0  0  0  0  0
   13.0366    8.8256    7.0997 N   0  0  0  0  0  0  0  0  0  0  0  0
   12.7395   10.5530    8.6716 N   0  0  0  0  0  0  0  0  0  0  0  0
   12.2672   11.7532    9.0438 C   0  0  0  0  0  0  0  0  0  0  0  0
   11.5438   12.5353    8.1154 C   0  0  0  0  0  0  0  0  0  0  0  0
   11.3471   11.9971    6.8051 C   0  0  0  0  0  0  0  0  0  0  0  0
   10.6548   12.7034    5.8521 N   0  0  0  0  0  0  0  0  0  0  0  0
   11.1876   13.6884    8.7504 N   0  0  0  0  0  0  0  0  0  0  0  0
   11.6313   13.6586    9.9712 C   0  0  0  0  0  0  0  0  0  0  0  0
   12.3076   12.4876   10.2032 N   0  0  0  0  0  0  0  0  0  0  0  0
  1  7  2  0  0  0  0
  1  2  1  0  0  0  0
  2  3  1  0  0  0  0
  2  4  2  0  0  0  0
  4  5  1  0  0  0  0
  5  6  2  0  0  0  0
  5 11  1  0  0  0  0
  6  7  1  0  0  0  0
  6  9  1  0  0  0  0
  7  8  1  0  0  0  0
  9 10  1  0  0  0  0
 10 11  2  0  0  0  0
M  END
>  <CHROM.1>
11.92199388,11.71357263,8.02569115,1.16974838,1.01967960,-2.18696665

>  <Name>
ligand

>  <RI>
0

>  <Rbt.Current_Directory>
/home/itssahil/PROJECTS/Mol_Feturizer/New_Systems/rnas/4FEO

>  <Rbt.Executable>
rbdock ($Id: //depot/dev/client3/rdock/2013.1/src/exe/rbdock.cxx#4 $)

>  <Rbt.Library>
libRbt.so (2013.1, Build901 2013/11/27)

>  <Rbt.Parameter_File>
/export/apps/rDock/src/rDock_2013.1_src/data/scripts/dock_solv.prm

>  <Rbt.Receptor>
prm/blind_docking_40.prm

>  <SCORE>
-10.1337

>  <SCORE.INTER>
-10.1337

>  <SCORE.INTER.CONST>
1

>  <SCORE.INTER.POLAR>
0

>  <SCORE.INTER.ROT>
0

>  <SCORE.INTER.SOLV>
15.1237

>  <SCORE.INTER.VDW>
-15.397

>  <SCORE.INTER.norm>
-0.921242

>  <SCORE.INTRA>
0

>  <SCORE.INTRA.DIHEDRAL>
0

>  <SCORE.INTRA.DIHEDRAL.0>
0

>  <SCORE.INTRA.POLAR>
0

>  <SCORE.INTRA.POLAR.0>
0

>  <SCORE.INTRA.REPUL>
0

>  <SCORE.INTRA.REPUL.0>
0

>  <SCORE.INTRA.SOLV>
0

>  <SCORE.INTRA.SOLV.lig_0>
-48.9252

>  <SCORE.INTRA.VDW>
0

>  <SCORE.INTRA.VDW.0>
0

>  <SCORE.INTRA.norm>
0

>  <SCORE.RESTR>
0

>  <SCORE.RESTR.CAVITY>
0

>  <SCORE.RESTR.norm>
0

>  <SCORE.SYSTEM>
0

>  <SCORE.SYSTEM.CONST>
0

>  <SCORE.SYSTEM.DIHEDRAL>
0

>  <SCORE.SYSTEM.SOLV>
0

>  <SCORE.SYSTEM.norm>
0

>  <SCORE.heavy>
11

>  <SCORE.norm>
-0.921242

>  <RMSD>
3.834

$$$$
ligand
 OpenBabel11021811493D
libRbt.so/2013.1/901 2013/11/27
 11 12  0  0  0  0  0  0  0  0999 V2000
   11.8551   10.7753    6.5081 N   0  0  0  0  0  0  0  0  0  0  0  0
   12.5320   10.0688    7.4318 C   0  0  0  0  0  0  0  0  0  0  0  0
   13.0308    8.8175    7.0994 N   0  0  0  0  0  0  0  0  0  0  0  0
   12.7351   10.5464    8.6698 N   0  0  0  0  0  0  0  0  0  0  0  0
   12.2662   11.7485    9.0401 C   0  0  0  0  0  0  0  0  0  0  0  0
   11.5489   12.5331    8.1092 C   0  0  0  0  0  0  0  0  0  0  0  0
   11.3545   11.9953    6.7984 C   0  0  0  0  0  0  0  0  0  0  0  0
   10.6680   12.7040    5.8429 N   0  0  0  0  0  0  0  0  0  0  0  0
   11.1950   13.6878    8.7427 N   0  0  0  0  0  0  0  0  0  0  0  0
   11.6345   13.6566    9.9649 C   0  0  0  0  0  0  0  0  0  0  0  0
   12.3056   12.4831   10.1995 N   0  0  0  0  0  0  0  0  0  0  0  0
  1  7  2  0  0  0  0
  1  2  1  0  0  0  0
  2  3  1  0  0  0  0
  2  4  2  0  0  0  0
  4  5  1  0  0  0  0
  5  6  2  0  0  0  0
  5 11  1  0  0  0  0
  6  7  1  0  0  0  0
  6  9  1  0  0  0  0
  7  8  1  0  0  0  0
  9 10  1  0  0  0  0
 10 11  2  0  0  0  0
M  END
>  <CHROM.1>
11.92420344,11.70993602,8.02092672,1.16881923,1.02470188,-2.18644191

>  <Name>
ligand

>  <RI>
0

>  <Rbt.Current_Directory>
/home/itssahil/PROJECTS/Mol_Feturizer/New_Systems/rnas/4FEO

>  <Rbt.Executable>
rbdock ($Id: //depot/dev/client3/rdock/2013.1/src/exe/rbdock.cxx#4 $)

>  <Rbt.Library>
libRbt.so (2013.1, Build901 2013/11/27)

>  <Rbt.Parameter_File>
/export/apps/rDock/src/rDock_2013.1_src/data/scripts/dock_solv.prm

>  <Rbt.Receptor>
prm/blind_docking_40.prm

>  <SCORE>
-10.1344

>  <SCORE.INTER>
-10.1344

>  <SCORE.INTER.CONST>
1

>  <SCORE.INTER.POLAR>
0

>  <SCORE.INTER.ROT>
0

>  <SCORE.INTER.SOLV>
15.1868

>  <SCORE.INTER.VDW>
-15.4185

>  <SCORE.INTER.norm>
-0.921305

>  <SCORE.INTRA>
0

>  <SCORE.INTRA.DIHEDRAL>
0

>  <SCORE.INTRA.DIHEDRAL.0>
0

>  <SCORE.INTRA.POLAR>
0

>  <SCORE.INTRA.POLAR.0>
0

>  <SCORE.INTRA.REPUL>
0

>  <SCORE.INTRA.REPUL.0>
0

>  <SCORE.INTRA.SOLV>
0

>  <SCORE.INTRA.SOLV.lig_0>
-48.9252

>  <SCORE.INTRA.VDW>
0

>  <SCORE.INTRA.VDW.0>
0

>  <SCORE.INTRA.norm>
0

>  <SCORE.RESTR>
0

>  <SCORE.RESTR.CAVITY>
0

>  <SCORE.RESTR.norm>
0

>  <SCORE.SYSTEM>
0

>  <SCORE.SYSTEM.CONST>
0

>  <SCORE.SYSTEM.DIHEDRAL>
0

>  <SCORE.SYSTEM.SOLV>
0

>  <SCORE.SYSTEM.norm>
0

>  <SCORE.heavy>
11

>  <SCORE.norm>
-0.921305

>  <RMSD>
3.834

$$$$
ligand
 OpenBabel11021811493D
libRbt.so/2013.1/901 2013/11/27
 11 12  0  0  0  0  0  0  0  0999 V2000
   11.8645   10.7849    6.5167 N   0  0  0  0  0  0  0  0  0  0  0  0
   12.5435   10.0796    7.4399 C   0  0  0  0  0  0  0  0  0  0  0  0
   13.0468    8.8305    7.1063 N   0  0  0  0  0  0  0  0  0  0  0  0
   12.7443   10.5566    8.6785 N   0  0  0  0  0  0  0  0  0  0  0  0
   12.2710   11.7566    9.0500 C   0  0  0  0  0  0  0  0  0  0  0  0
   11.5515   12.5398    8.1196 C   0  0  0  0  0  0  0  0  0  0  0  0
   11.3596   12.0028    6.8081 C   0  0  0  0  0  0  0  0  0  0  0  0
   10.6711   12.7102    5.8531 N   0  0  0  0  0  0  0  0  0  0  0  0
   11.1933   13.6925    8.7543 N   0  0  0  0  0  0  0  0  0  0  0  0
   11.6323   13.6614    9.9767 C   0  0  0  0  0  0  0  0  0  0  0  0
   12.3073   12.4900   10.2103 N   0  0  0  0  0  0  0  0  0  0  0  0
  1  7  2  0  0  0  0
  1  2  1  0  0  0  0
  2  3  1  0  0  0  0
  2  4  2  0  0  0  0
  4  5  1  0  0  0  0
  5  6  2  0  0  0  0
  5 11  1  0  0  0  0
  6  7  1  0  0  0  0
  6  9  1  0  0  0  0
  7  8  1  0  0  0  0
  9 10  1  0  0  0  0
 10 11  2  0  0  0  0
M  END
>  <CHROM.1>
11.92969481,11.71801363,8.03058493,1.16421056,1.02214639,-2.18135931

>  <Name>
ligand

>  <RI>
0

>  <Rbt.Current_Directory>
/home/itssahil/PROJECTS/Mol_Feturizer/New_Systems/rnas/4FEO

>  <Rbt.Executable>
rbdock ($Id: //depot/dev/client3/rdock/2013.1/src/exe/rbdock.cxx#4 $)

>  <Rbt.Library>
libRbt.so (2013.1, Build901 2013/11/27)

>  <Rbt.Parameter_File>
/export/apps/rDock/src/rDock_2013.1_src/data/scripts/dock_solv.prm

>  <Rbt.Receptor>
prm/blind_docking_80.prm

>  <SCORE>
-10.1346

>  <SCORE.INTER>
-10.1346

>  <SCORE.INTER.CONST>
1

>  <SCORE.INTER.POLAR>
0

>  <SCORE.INTER.ROT>
0

>  <SCORE.INTER.SOLV>
15.1061

>  <SCORE.INTER.VDW>
-15.3917

>  <SCORE.INTER.norm>
-0.921326

>  <SCORE.INTRA>
0

>  <SCORE.INTRA.DIHEDRAL>
0

>  <SCORE.INTRA.DIHEDRAL.0>
0

>  <SCORE.INTRA.POLAR>
0

>  <SCORE.INTRA.POLAR.0>
0

>  <SCORE.INTRA.REPUL>
0

>  <SCORE.INTRA.REPUL.0>
0

>  <SCORE.INTRA.SOLV>
0

>  <SCORE.INTRA.SOLV.lig_0>
-48.9252

>  <SCORE.INTRA.VDW>
0

>  <SCORE.INTRA.VDW.0>
0

>  <SCORE.INTRA.norm>
0

>  <SCORE.RESTR>
0

>  <SCORE.RESTR.CAVITY>
0

>  <SCORE.RESTR.norm>
0

>  <SCORE.SYSTEM>
0

>  <SCORE.SYSTEM.CONST>
0

>  <SCORE.SYSTEM.DIHEDRAL>
0

>  <SCORE.SYSTEM.SOLV>
0

>  <SCORE.SYSTEM.norm>
0

>  <SCORE.heavy>
11

>  <SCORE.norm>
-0.921326

>  <RMSD>
3.834

$$$$
ligand
 OpenBabel11021811493D
libRbt.so/2013.1/901 2013/11/27
 11 12  0  0  0  0  0  0  0  0999 V2000
   11.8451   10.8015    6.5100 N   0  0  0  0  0  0  0  0  0  0  0  0
   12.5152   10.0882    7.4334 C   0  0  0  0  0  0  0  0  0  0  0  0
   13.0081    8.8352    7.0985 N   0  0  0  0  0  0  0  0  0  0  0  0
   12.7171   10.5607    8.6736 N   0  0  0  0  0  0  0  0  0  0  0  0
   12.2538   11.7642    9.0464 C   0  0  0  0  0  0  0  0  0  0  0  0
   11.5438   12.5558    8.1158 C   0  0  0  0  0  0  0  0  0  0  0  0
   11.3504   12.0233    6.8026 C   0  0  0  0  0  0  0  0  0  0  0  0
   10.6709   12.7389    5.8473 N   0  0  0  0  0  0  0  0  0  0  0  0
   11.1944   13.7104    8.7519 N   0  0  0  0  0  0  0  0  0  0  0  0
   11.6299   13.6727    9.9754 C   0  0  0  0  0  0  0  0  0  0  0  0
   12.2936   12.4948   10.2083 N   0  0  0  0  0  0  0  0  0  0  0  0
  1  7  2  0  0  0  0
  1  2  1  0  0  0  0
  2  3  1  0  0  0  0
  2  4  2  0  0  0  0
  4  5  1  0  0  0  0
  5  6  2  0  0  0  0
  5 11  1  0  0  0  0
  6  7  1  0  0  0  0
  6  9  1  0  0  0  0
  7  8  1  0  0  0  0
  9 10  1  0  0  0  0
 10 11  2  0  0  0  0
M  END
>  <CHROM.1>
11.91474040,11.73082128,8.02598586,1.17016116,1.03106155,-2.18434863

>  <Name>
ligand

>  <RI>
0

>  <Rbt.Current_Directory>
/home/itssahil/PROJECTS/Mol_Feturizer/New_Systems/rnas/4FEO

>  <Rbt.Executable>
rbdock ($Id: //depot/dev/client3/rdock/2013.1/src/exe/rbdock.cxx#4 $)

>  <Rbt.Library>
libRbt.so (2013.1, Build901 2013/11/27)

>  <Rbt.Parameter_File>
/export/apps/rDock/src/rDock_2013.1_src/data/scripts/dock_solv.prm

>  <Rbt.Receptor>
prm/pocket_docking_4.prm

>  <SCORE>
-10.1263

>  <SCORE.INTER>
-10.1263

>  <SCORE.INTER.CONST>
1

>  <SCORE.INTER.POLAR>
0

>  <SCORE.INTER.ROT>
0

>  <SCORE.INTER.SOLV>
15.2105

>  <SCORE.INTER.VDW>
-15.4211

>  <SCORE.INTER.norm>
-0.920577

>  <SCORE.INTRA>
0

>  <SCORE.INTRA.DIHEDRAL>
0

>  <SCORE.INTRA.DIHEDRAL.0>
0

>  <SCORE.INTRA.POLAR>
0

>  <SCORE.INTRA.POLAR.0>
0

>  <SCORE.INTRA.REPUL>
0

>  <SCORE.INTRA.REPUL.0>
0

>  <SCORE.INTRA.SOLV>
0

>  <SCORE.INTRA.SOLV.lig_0>
-48.9252

>  <SCORE.INTRA.VDW>
0

>  <SCORE.INTRA.VDW.0>
0

>  <SCORE.INTRA.norm>
0

>  <SCORE.RESTR>
0

>  <SCORE.RESTR.CAVITY>
0

>  <SCORE.RESTR.norm>
0

>  <SCORE.SYSTEM>
0

>  <SCORE.SYSTEM.CONST>
0

>  <SCORE.SYSTEM.DIHEDRAL>
0

>  <SCORE.SYSTEM.SOLV>
0

>  <SCORE.SYSTEM.norm>
0

>  <SCORE.heavy>
11

>  <SCORE.norm>
-0.920577

>  <RMSD>
3.834

$$$$
ligand
 OpenBabel11021811493D
libRbt.so/2013.1/901 2013/11/27
 11 12  0  0  0  0  0  0  0  0999 V2000
   11.8558   10.7848    6.5114 N   0  0  0  0  0  0  0  0  0  0  0  0
   12.5318   10.0766    7.4346 C   0  0  0  0  0  0  0  0  0  0  0  0
   13.0303    8.8256    7.1008 N   0  0  0  0  0  0  0  0  0  0  0  0
   12.7343   10.5525    8.6734 N   0  0  0  0  0  0  0  0  0  0  0  0
   12.2656   11.7543    9.0450 C   0  0  0  0  0  0  0  0  0  0  0  0
   11.5494   12.5405    8.1147 C   0  0  0  0  0  0  0  0  0  0  0  0
   11.3556   12.0046    6.8030 C   0  0  0  0  0  0  0  0  0  0  0  0
   10.6701   12.7148    5.8480 N   0  0  0  0  0  0  0  0  0  0  0  0
   11.1955   13.6945    8.7495 N   0  0  0  0  0  0  0  0  0  0  0  0
   11.6342   13.6614    9.9720 C   0  0  0  0  0  0  0  0  0  0  0  0
   12.3045   12.4873   10.2054 N   0  0  0  0  0  0  0  0  0  0  0  0
  1  7  2  0  0  0  0
  1  2  1  0  0  0  0
  2  3  1  0  0  0  0
  2  4  2  0  0  0  0
  4  5  1  0  0  0  0
  5  6  2  0  0  0  0
  5 11  1  0  0  0  0
  6  7  1  0  0  0  0
  6  9  1  0  0  0  0
  7  8  1  0  0  0  0
  9 10  1  0  0  0  0
 10 11  2  0  0  0  0
M  END
>  <CHROM.1>
11.92434041,11.71727270,8.02554478,1.16824200,1.02547443,-2.18459164

>  <Name>
ligand

>  <RI>
0

>  <Rbt.Current_Directory>
/home/itssahil/PROJECTS/Mol_Feturizer/New_Systems/rnas/4FEO

>  <Rbt.Executable>
rbdock ($Id: //depot/dev/client3/rdock/2013.1/src/exe/rbdock.cxx#4 $)

>  <Rbt.Library>
libRbt.so (2013.1, Build901 2013/11/27)

>  <Rbt.Parameter_File>
/export/apps/rDock/src/rDock_2013.1_src/data/scripts/dock_solv.prm

>  <Rbt.Receptor>
prm/blind_docking_100.prm

>  <SCORE>
-10.1346

>  <SCORE.INTER>
-10.1346

>  <SCORE.INTER.CONST>
1

>  <SCORE.INTER.POLAR>
0

>  <SCORE.INTER.ROT>
0

>  <SCORE.INTER.SOLV>
15.1656

>  <SCORE.INTER.VDW>
-15.4116

>  <SCORE.INTER.norm>
-0.921331

>  <SCORE.INTRA>
0

>  <SCORE.INTRA.DIHEDRAL>
0

>  <SCORE.INTRA.DIHEDRAL.0>
0

>  <SCORE.INTRA.POLAR>
0

>  <SCORE.INTRA.POLAR.0>
0

>  <SCORE.INTRA.REPUL>
0

>  <SCORE.INTRA.REPUL.0>
0

>  <SCORE.INTRA.SOLV>
0

>  <SCORE.INTRA.SOLV.lig_0>
-48.9252

>  <SCORE.INTRA.VDW>
0

>  <SCORE.INTRA.VDW.0>
0

>  <SCORE.INTRA.norm>
0

>  <SCORE.RESTR>
0

>  <SCORE.RESTR.CAVITY>
0

>  <SCORE.RESTR.norm>
0

>  <SCORE.SYSTEM>
0

>  <SCORE.SYSTEM.CONST>
0

>  <SCORE.SYSTEM.DIHEDRAL>
0

>  <SCORE.SYSTEM.SOLV>
0

>  <SCORE.SYSTEM.norm>
0

>  <SCORE.heavy>
11

>  <SCORE.norm>
-0.921331

>  <RMSD>
3.835

$$$$
ligand
 OpenBabel11021811493D
libRbt.so/2013.1/901 2013/11/27
 11 12  0  0  0  0  0  0  0  0999 V2000
   11.8447   10.7870    6.5121 N   0  0  0  0  0  0  0  0  0  0  0  0
   12.5243   10.0789    7.4326 C   0  0  0  0  0  0  0  0  0  0  0  0
   13.0225    8.8283    7.0966 N   0  0  0  0  0  0  0  0  0  0  0  0
   12.7306   10.5543    8.6710 N   0  0  0  0  0  0  0  0  0  0  0  0
   12.2624   11.7556    9.0448 C   0  0  0  0  0  0  0  0  0  0  0  0
   11.5424   12.5417    8.1172 C   0  0  0  0  0  0  0  0  0  0  0  0
   11.3446   12.0063    6.8059 C   0  0  0  0  0  0  0  0  0  0  0  0
   10.6554   12.7166    5.8536 N   0  0  0  0  0  0  0  0  0  0  0  0
   11.1900   13.6951    8.7538 N   0  0  0  0  0  0  0  0  0  0  0  0
   11.6328   13.6618    9.9748 C   0  0  0  0  0  0  0  0  0  0  0  0
   12.3047   12.4881   10.2054 N   0  0  0  0  0  0  0  0  0  0  0  0
  1  7  2  0  0  0  0
  1  2  1  0  0  0  0
  2  3  1  0  0  0  0
  2  4  2  0  0  0  0
  4  5  1  0  0  0  0
  5  6  2  0  0  0  0
  5 11  1  0  0  0  0
  6  7  1  0  0  0  0
  6  9  1  0  0  0  0
  7  8  1  0  0  0  0
  9 10  1  0  0  0  0
 10 11  2  0  0  0  0
M  END
>  <CHROM.1>
11.91769304,11.71880356,8.02640811,1.17277483,1.02295492,-2.18797949

>  <Name>
ligand

>  <RI>
0

>  <Rbt.Current_Directory>
/home/itssahil/PROJECTS/Mol_Feturizer/New_Systems/rnas/4FEO

>  <Rbt.Executable>
rbdock ($Id: //depot/dev/client3/rdock/2013.1/src/exe/rbdock.cxx#4 $)

>  <Rbt.Library>
libRbt.so (2013.1, Build901 2013/11/27)

>  <Rbt.Parameter_File>
/export/apps/rDock/src/rDock_2013.1_src/data/scripts/dock_solv.prm

>  <Rbt.Receptor>
prm/blind_docking_100.prm

>  <SCORE>
-10.1351

>  <SCORE.INTER>
-10.1351

>  <SCORE.INTER.CONST>
1

>  <SCORE.INTER.POLAR>
0

>  <SCORE.INTER.ROT>
0

>  <SCORE.INTER.SOLV>
15.1469

>  <SCORE.INTER.VDW>
-15.4057

>  <SCORE.INTER.norm>
-0.921373

>  <SCORE.INTRA>
0

>  <SCORE.INTRA.DIHEDRAL>
0

>  <SCORE.INTRA.DIHEDRAL.0>
0

>  <SCORE.INTRA.POLAR>
0

>  <SCORE.INTRA.POLAR.0>
0

>  <SCORE.INTRA.REPUL>
0

>  <SCORE.INTRA.REPUL.0>
0

>  <SCORE.INTRA.SOLV>
0

>  <SCORE.INTRA.SOLV.lig_0>
-48.9252

>  <SCORE.INTRA.VDW>
0

>  <SCORE.INTRA.VDW.0>
0

>  <SCORE.INTRA.norm>
0

>  <SCORE.RESTR>
0

>  <SCORE.RESTR.CAVITY>
0

>  <SCORE.RESTR.norm>
0

>  <SCORE.SYSTEM>
0

>  <SCORE.SYSTEM.CONST>
0

>  <SCORE.SYSTEM.DIHEDRAL>
0

>  <SCORE.SYSTEM.SOLV>
0

>  <SCORE.SYSTEM.norm>
0

>  <SCORE.heavy>
11

>  <SCORE.norm>
-0.921373

>  <RMSD>
3.835

$$$$
ligand
 OpenBabel11021811493D
libRbt.so/2013.1/901 2013/11/27
 11 12  0  0  0  0  0  0  0  0999 V2000
   11.8560   10.7847    6.5076 N   0  0  0  0  0  0  0  0  0  0  0  0
   12.5284   10.0741    7.4315 C   0  0  0  0  0  0  0  0  0  0  0  0
   13.0256    8.8227    7.0971 N   0  0  0  0  0  0  0  0  0  0  0  0
   12.7283   10.5476    8.6715 N   0  0  0  0  0  0  0  0  0  0  0  0
   12.2607   11.7497    9.0438 C   0  0  0  0  0  0  0  0  0  0  0  0
   11.5482   12.5385    8.1128 C   0  0  0  0  0  0  0  0  0  0  0  0
   11.3570   12.0049    6.7997 C   0  0  0  0  0  0  0  0  0  0  0  0
   10.6753   12.7179    5.8440 N   0  0  0  0  0  0  0  0  0  0  0  0
   11.1947   13.6921    8.7485 N   0  0  0  0  0  0  0  0  0  0  0  0
   11.6300   13.6563    9.9720 C   0  0  0  0  0  0  0  0  0  0  0  0
   12.2978   12.4808   10.2055 N   0  0  0  0  0  0  0  0  0  0  0  0
  1  7  2  0  0  0  0
  1  2  1  0  0  0  0
  2  3  1  0  0  0  0
  2  4  2  0  0  0  0
  4  5  1  0  0  0  0
  5  6  2  0  0  0  0
  5 11  1  0  0  0  0
  6  7  1  0  0  0  0
  6  9  1  0  0  0  0
  7  8  1  0  0  0  0
  9 10  1  0  0  0  0
 10 11  2  0  0  0  0
M  END
>  <CHROM.1>
11.92207189,11.71478823,8.02334914,1.16591872,1.02837469,-2.18104157

>  <Name>
ligand

>  <RI>
0

>  <Rbt.Current_Directory>
/home/itssahil/PROJECTS/Mol_Feturizer/New_Systems/rnas/4FEO

>  <Rbt.Executable>
rbdock ($Id: //depot/dev/client3/rdock/2013.1/src/exe/rbdock.cxx#4 $)

>  <Rbt.Library>
libRbt.so (2013.1, Build901 2013/11/27)

>  <Rbt.Parameter_File>
/export/apps/rDock/src/rDock_2013.1_src/data/scripts/dock_solv.prm

>  <Rbt.Receptor>
prm/blind_docking_40.prm

>  <SCORE>
-10.1272

>  <SCORE.INTER>
-10.1272

>  <SCORE.INTER.CONST>
1

>  <SCORE.INTER.POLAR>
0

>  <SCORE.INTER.ROT>
0

>  <SCORE.INTER.SOLV>
15.2013

>  <SCORE.INTER.VDW>
-15.4186

>  <SCORE.INTER.norm>
-0.920653

>  <SCORE.INTRA>
0

>  <SCORE.INTRA.DIHEDRAL>
0

>  <SCORE.INTRA.DIHEDRAL.0>
0

>  <SCORE.INTRA.POLAR>
0

>  <SCORE.INTRA.POLAR.0>
0

>  <SCORE.INTRA.REPUL>
0

>  <SCORE.INTRA.REPUL.0>
0

>  <SCORE.INTRA.SOLV>
0

>  <SCORE.INTRA.SOLV.lig_0>
-48.9252

>  <SCORE.INTRA.VDW>
0

>  <SCORE.INTRA.VDW.0>
0

>  <SCORE.INTRA.norm>
0

>  <SCORE.RESTR>
0

>  <SCORE.RESTR.CAVITY>
0

>  <SCORE.RESTR.norm>
0

>  <SCORE.SYSTEM>
0

>  <SCORE.SYSTEM.CONST>
0

>  <SCORE.SYSTEM.DIHEDRAL>
0

>  <SCORE.SYSTEM.SOLV>
0

>  <SCORE.SYSTEM.norm>
0

>  <SCORE.heavy>
11

>  <SCORE.norm>
-0.920653

>  <RMSD>
3.835

$$$$
ligand
 OpenBabel11021811493D
libRbt.so/2013.1/901 2013/11/27
 11 12  0  0  0  0  0  0  0  0999 V2000
   11.8584   10.7921    6.5072 N   0  0  0  0  0  0  0  0  0  0  0  0
   12.5249   10.0782    7.4329 C   0  0  0  0  0  0  0  0  0  0  0  0
   13.0177    8.8248    7.0996 N   0  0  0  0  0  0  0  0  0  0  0  0
   12.7231   10.5506    8.6737 N   0  0  0  0  0  0  0  0  0  0  0  0
   12.2595   11.7545    9.0449 C   0  0  0  0  0  0  0  0  0  0  0  0
   11.5533   12.5467    8.1119 C   0  0  0  0  0  0  0  0  0  0  0  0
   11.3638   12.0144    6.7981 C   0  0  0  0  0  0  0  0  0  0  0  0
   10.6881   12.7305    5.8406 N   0  0  0  0  0  0  0  0  0  0  0  0
   11.2028   13.7016    8.7469 N   0  0  0  0  0  0  0  0  0  0  0  0
   11.6342   13.6637    9.9718 C   0  0  0  0  0  0  0  0  0  0  0  0
   12.2962   12.4852   10.2069 N   0  0  0  0  0  0  0  0  0  0  0  0
  1  7  2  0  0  0  0
  1  2  1  0  0  0  0
  2  3  1  0  0  0  0
  2  4  2  0  0  0  0
  4  5  1  0  0  0  0
  5  6  2  0  0  0  0
  5 11  1  0  0  0  0
  6  7  1  0  0  0  0
  6  9  1  0  0  0  0
  7  8  1  0  0  0  0
  9 10  1  0  0  0  0
 10 11  2  0  0  0  0
M  END
>  <CHROM.1>
11.92385587,11.72142632,8.02339318,1.16587178,1.03366869,-2.18071753

>  <Name>
ligand

>  <RI>
0

>  <Rbt.Current_Directory>
/home/itssahil/PROJECTS/Mol_Feturizer/New_Systems/rnas/4FEO

>  <Rbt.Executable>
rbdock ($Id: //depot/dev/client3/rdock/2013.1/src/exe/rbdock.cxx#4 $)

>  <Rbt.Library>
libRbt.so (2013.1, Build901 2013/11/27)

>  <Rbt.Parameter_File>
/export/apps/rDock/src/rDock_2013.1_src/data/scripts/dock_solv.prm

>  <Rbt.Receptor>
prm/blind_docking_40.prm

>  <SCORE>
-10.1282

>  <SCORE.INTER>
-10.1282

>  <SCORE.INTER.CONST>
1

>  <SCORE.INTER.POLAR>
0

>  <SCORE.INTER.ROT>
0

>  <SCORE.INTER.SOLV>
15.2418

>  <SCORE.INTER.VDW>
-15.4327

>  <SCORE.INTER.norm>
-0.920746

>  <SCORE.INTRA>
0

>  <SCORE.INTRA.DIHEDRAL>
0

>  <SCORE.INTRA.DIHEDRAL.0>
0

>  <SCORE.INTRA.POLAR>
0

>  <SCORE.INTRA.POLAR.0>
0

>  <SCORE.INTRA.REPUL>
0

>  <SCORE.INTRA.REPUL.0>
0

>  <SCORE.INTRA.SOLV>
0

>  <SCORE.INTRA.SOLV.lig_0>
-48.9252

>  <SCORE.INTRA.VDW>
0

>  <SCORE.INTRA.VDW.0>
0

>  <SCORE.INTRA.norm>
0

>  <SCORE.RESTR>
0

>  <SCORE.RESTR.CAVITY>
0

>  <SCORE.RESTR.norm>
0

>  <SCORE.SYSTEM>
0

>  <SCORE.SYSTEM.CONST>
0

>  <SCORE.SYSTEM.DIHEDRAL>
0

>  <SCORE.SYSTEM.SOLV>
0

>  <SCORE.SYSTEM.norm>
0

>  <SCORE.heavy>
11

>  <SCORE.norm>
-0.920746

>  <RMSD>
3.835

$$$$
ligand
 OpenBabel11021811493D
libRbt.so/2013.1/901 2013/11/27
 11 12  0  0  0  0  0  0  0  0999 V2000
   11.8297   10.7747    6.5215 N   0  0  0  0  0  0  0  0  0  0  0  0
   12.4975   10.0615    7.4467 C   0  0  0  0  0  0  0  0  0  0  0  0
   12.9842    8.8051    7.1157 N   0  0  0  0  0  0  0  0  0  0  0  0
   12.7029   10.5375    8.6850 N   0  0  0  0  0  0  0  0  0  0  0  0
   12.2455   11.7444    9.0540 C   0  0  0  0  0  0  0  0  0  0  0  0
   11.5382   12.5360    8.1213 C   0  0  0  0  0  0  0  0  0  0  0  0
   11.3410   11.9998    6.8103 C   0  0  0  0  0  0  0  0  0  0  0  0
   10.6638   12.7151    5.8532 N   0  0  0  0  0  0  0  0  0  0  0  0
   11.1949   13.6944    8.7538 N   0  0  0  0  0  0  0  0  0  0  0  0
   11.6315   13.6591    9.9769 C   0  0  0  0  0  0  0  0  0  0  0  0
   12.2901   12.4789   10.2132 N   0  0  0  0  0  0  0  0  0  0  0  0
  1  7  2  0  0  0  0
  1  2  1  0  0  0  0
  2  3  1  0  0  0  0
  2  4  2  0  0  0  0
  4  5  1  0  0  0  0
  5  6  2  0  0  0  0
  5 11  1  0  0  0  0
  6  7  1  0  0  0  0
  6  9  1  0  0  0  0
  7  8  1  0  0  0  0
  9 10  1  0  0  0  0
 10 11  2  0  0  0  0
M  END
>  <CHROM.1>
11.90527571,11.70900336,8.03410247,1.17711222,1.03421654,-2.19386512

>  <Name>
ligand

>  <RI>
0

>  <Rbt.Current_Directory>
/home/itssahil/PROJECTS/Mol_Feturizer/New_Systems/rnas/4FEO

>  <Rbt.Executable>
rbdock ($Id: //depot/dev/client3/rdock/2013.1/src/exe/rbdock.cxx#4 $)

>  <Rbt.Library>
libRbt.so (2013.1, Build901 2013/11/27)

>  <Rbt.Parameter_File>
/export/apps/rDock/src/rDock_2013.1_src/data/scripts/dock_solv.prm

>  <Rbt.Receptor>
prm/blind_docking_40.prm

>  <SCORE>
-10.1211

>  <SCORE.INTER>
-10.1211

>  <SCORE.INTER.CONST>
1

>  <SCORE.INTER.POLAR>
0

>  <SCORE.INTER.ROT>
0

>  <SCORE.INTER.SOLV>
15.2219

>  <SCORE.INTER.VDW>
-15.4214

>  <SCORE.INTER.norm>
-0.920101

>  <SCORE.INTRA>
0

>  <SCORE.INTRA.DIHEDRAL>
0

>  <SCORE.INTRA.DIHEDRAL.0>
0

>  <SCORE.INTRA.POLAR>
0

>  <SCORE.INTRA.POLAR.0>
0

>  <SCORE.INTRA.REPUL>
0

>  <SCORE.INTRA.REPUL.0>
0

>  <SCORE.INTRA.SOLV>
0

>  <SCORE.INTRA.SOLV.lig_0>
-48.9252

>  <SCORE.INTRA.VDW>
0

>  <SCORE.INTRA.VDW.0>
0

>  <SCORE.INTRA.norm>
0

>  <SCORE.RESTR>
0

>  <SCORE.RESTR.CAVITY>
0

>  <SCORE.RESTR.norm>
0

>  <SCORE.SYSTEM>
0

>  <SCORE.SYSTEM.CONST>
0

>  <SCORE.SYSTEM.DIHEDRAL>
0

>  <SCORE.SYSTEM.SOLV>
0

>  <SCORE.SYSTEM.norm>
0

>  <SCORE.heavy>
11

>  <SCORE.norm>
-0.920101

>  <RMSD>
3.835

$$$$
ligand
 OpenBabel11021811493D
libRbt.so/2013.1/901 2013/11/27
 11 12  0  0  0  0  0  0  0  0999 V2000
   11.8418   10.7922    6.5115 N   0  0  0  0  0  0  0  0  0  0  0  0
   12.5187   10.0819    7.4323 C   0  0  0  0  0  0  0  0  0  0  0  0
   13.0145    8.8305    7.0959 N   0  0  0  0  0  0  0  0  0  0  0  0
   12.7247   10.5559    8.6712 N   0  0  0  0  0  0  0  0  0  0  0  0
   12.2587   11.7579    9.0454 C   0  0  0  0  0  0  0  0  0  0  0  0
   11.5417   12.5464    8.1176 C   0  0  0  0  0  0  0  0  0  0  0  0
   11.3441   12.0125    6.8057 C   0  0  0  0  0  0  0  0  0  0  0  0
   10.6577   12.7251    5.8531 N   0  0  0  0  0  0  0  0  0  0  0  0
   11.1911   13.7002    8.7547 N   0  0  0  0  0  0  0  0  0  0  0  0
   11.6324   13.6649    9.9762 C   0  0  0  0  0  0  0  0  0  0  0  0
   12.3014   12.4894   10.2067 N   0  0  0  0  0  0  0  0  0  0  0  0
  1  7  2  0  0  0  0
  1  2  1  0  0  0  0
  2  3  1  0  0  0  0
  2  4  2  0  0  0  0
  4  5  1  0  0  0  0
  5  6  2  0  0  0  0
  5 11  1  0  0  0  0
  6  7  1  0  0  0  0
  6  9  1  0  0  0  0
  7  8  1  0  0  0  0
  9 10  1  0  0  0  0
 10 11  2  0  0  0  0
M  END
>  <CHROM.1>
11.91514738,11.72274542,8.02665593,1.17348885,1.02548904,-2.18781472

>  <Name>
ligand

>  <RI>
0

>  <Rbt.Current_Directory>
/home/itssahil/PROJECTS/Mol_Feturizer/New_Systems/rnas/4FEO

>  <Rbt.Executable>
rbdock ($Id: //depot/dev/client3/rdock/2013.1/src/exe/rbdock.cxx#4 $)

>  <Rbt.Library>
libRbt.so (2013.1, Build901 2013/11/27)

>  <Rbt.Parameter_File>
/export/apps/rDock/src/rDock_2013.1_src/data/scripts/dock_solv.prm

>  <Rbt.Receptor>
prm/blind_docking_40.prm

>  <SCORE>
-10.1353

>  <SCORE.INTER>
-10.1353

>  <SCORE.INTER.CONST>
1

>  <SCORE.INTER.POLAR>
0

>  <SCORE.INTER.ROT>
0

>  <SCORE.INTER.SOLV>
15.1634

>  <SCORE.INTER.VDW>
-15.4114

>  <SCORE.INTER.norm>
-0.921393

>  <SCORE.INTRA>
0

>  <SCORE.INTRA.DIHEDRAL>
0

>  <SCORE.INTRA.DIHEDRAL.0>
0

>  <SCORE.INTRA.POLAR>
0

>  <SCORE.INTRA.POLAR.0>
0

>  <SCORE.INTRA.REPUL>
0

>  <SCORE.INTRA.REPUL.0>
0

>  <SCORE.INTRA.SOLV>
0

>  <SCORE.INTRA.SOLV.lig_0>
-48.9252

>  <SCORE.INTRA.VDW>
0

>  <SCORE.INTRA.VDW.0>
0

>  <SCORE.INTRA.norm>
0

>  <SCORE.RESTR>
0

>  <SCORE.RESTR.CAVITY>
0

>  <SCORE.RESTR.norm>
0

>  <SCORE.SYSTEM>
0

>  <SCORE.SYSTEM.CONST>
0

>  <SCORE.SYSTEM.DIHEDRAL>
0

>  <SCORE.SYSTEM.SOLV>
0

>  <SCORE.SYSTEM.norm>
0

>  <SCORE.heavy>
11

>  <SCORE.norm>
-0.921393

>  <RMSD>
3.835

$$$$
ligand
 OpenBabel11021811493D
libRbt.so/2013.1/901 2013/11/27
 11 12  0  0  0  0  0  0  0  0999 V2000
   11.8382   10.7696    6.5229 N   0  0  0  0  0  0  0  0  0  0  0  0
   12.5113   10.0606    7.4474 C   0  0  0  0  0  0  0  0  0  0  0  0
   13.0039    8.8064    7.1164 N   0  0  0  0  0  0  0  0  0  0  0  0
   12.7165   10.5384    8.6850 N   0  0  0  0  0  0  0  0  0  0  0  0
   12.2535   11.7432    9.0541 C   0  0  0  0  0  0  0  0  0  0  0  0
   11.5405   12.5305    8.1222 C   0  0  0  0  0  0  0  0  0  0  0  0
   11.3437   11.9924    6.8118 C   0  0  0  0  0  0  0  0  0  0  0  0
   10.6611   12.7036    5.8554 N   0  0  0  0  0  0  0  0  0  0  0  0
   11.1922   13.6875    8.7545 N   0  0  0  0  0  0  0  0  0  0  0  0
   11.6312   13.6553    9.9768 C   0  0  0  0  0  0  0  0  0  0  0  0
   12.2963   12.4787   10.2128 N   0  0  0  0  0  0  0  0  0  0  0  0
  1  7  2  0  0  0  0
  1  2  1  0  0  0  0
  2  3  1  0  0  0  0
  2  4  2  0  0  0  0
  4  5  1  0  0  0  0
  5  6  2  0  0  0  0
  5 11  1  0  0  0  0
  6  7  1  0  0  0  0
  6  9  1  0  0  0  0
  7  8  1  0  0  0  0
  9 10  1  0  0  0  0
 10 11  2  0  0  0  0
M  END
>  <CHROM.1>
11.91163654,11.70533793,8.03480103,1.17402516,1.02898629,-2.19185617

>  <Name>
ligand

>  <RI>
0

>  <Rbt.Current_Directory>
/home/itssahil/PROJECTS/Mol_Feturizer/New_Systems/rnas/4FEO

>  <Rbt.Executable>
rbdock ($Id: //depot/dev/client3/rdock/2013.1/src/exe/rbdock.cxx#4 $)

>  <Rbt.Library>
libRbt.so (2013.1, Build901 2013/11/27)

>  <Rbt.Parameter_File>
/export/apps/rDock/src/rDock_2013.1_src/data/scripts/dock_solv.prm

>  <Rbt.Receptor>
prm/blind_docking_60.prm

>  <SCORE>
-10.1236

>  <SCORE.INTER>
-10.1236

>  <SCORE.INTER.CONST>
1

>  <SCORE.INTER.POLAR>
0

>  <SCORE.INTER.ROT>
0

>  <SCORE.INTER.SOLV>
15.1607

>  <SCORE.INTER.VDW>
-15.4026

>  <SCORE.INTER.norm>
-0.920326

>  <SCORE.INTRA>
0

>  <SCORE.INTRA.DIHEDRAL>
0

>  <SCORE.INTRA.DIHEDRAL.0>
0

>  <SCORE.INTRA.POLAR>
0

>  <SCORE.INTRA.POLAR.0>
0

>  <SCORE.INTRA.REPUL>
0

>  <SCORE.INTRA.REPUL.0>
0

>  <SCORE.INTRA.SOLV>
0

>  <SCORE.INTRA.SOLV.lig_0>
-48.9252

>  <SCORE.INTRA.VDW>
0

>  <SCORE.INTRA.VDW.0>
0

>  <SCORE.INTRA.norm>
0

>  <SCORE.RESTR>
0

>  <SCORE.RESTR.CAVITY>
0

>  <SCORE.RESTR.norm>
0

>  <SCORE.SYSTEM>
0

>  <SCORE.SYSTEM.CONST>
0

>  <SCORE.SYSTEM.DIHEDRAL>
0

>  <SCORE.SYSTEM.SOLV>
0

>  <SCORE.SYSTEM.norm>
0

>  <SCORE.heavy>
11

>  <SCORE.norm>
-0.920326

>  <RMSD>
3.835

$$$$
ligand
 OpenBabel11021811493D
libRbt.so/2013.1/901 2013/11/27
 11 12  0  0  0  0  0  0  0  0999 V2000
   11.8547   10.7763    6.5091 N   0  0  0  0  0  0  0  0  0  0  0  0
   12.5322   10.0693    7.4321 C   0  0  0  0  0  0  0  0  0  0  0  0
   13.0313    8.8184    7.0987 N   0  0  0  0  0  0  0  0  0  0  0  0
   12.7357   10.5463    8.6702 N   0  0  0  0  0  0  0  0  0  0  0  0
   12.2666   11.7480    9.0415 C   0  0  0  0  0  0  0  0  0  0  0  0
   11.5487   12.5330    8.1113 C   0  0  0  0  0  0  0  0  0  0  0  0
   11.3539   11.9959    6.8002 C   0  0  0  0  0  0  0  0  0  0  0  0
   10.6668   12.7050    5.8455 N   0  0  0  0  0  0  0  0  0  0  0  0
   11.1947   13.6872    8.7457 N   0  0  0  0  0  0  0  0  0  0  0  0
   11.6347   13.6553    9.9677 C   0  0  0  0  0  0  0  0  0  0  0  0
   12.3062   12.4820   10.2013 N   0  0  0  0  0  0  0  0  0  0  0  0
  1  7  2  0  0  0  0
  1  2  1  0  0  0  0
  2  3  1  0  0  0  0
  2  4  2  0  0  0  0
  4  5  1  0  0  0  0
  5  6  2  0  0  0  0
  5 11  1  0  0  0  0
  6  7  1  0  0  0  0
  6  9  1  0  0  0  0
  7  8  1  0  0  0  0
  9 10  1  0  0  0  0
 10 11  2  0  0  0  0
M  END
>  <CHROM.1>
11.92417617,11.70997527,8.02240548,1.16913655,1.02422731,-2.18611267

>  <Name>
ligand

>  <RI>
0

>  <Rbt.Current_Directory>
/home/itssahil/PROJECTS/Mol_Feturizer/New_Systems/rnas/4FEO

>  <Rbt.Executable>
rbdock ($Id: //depot/dev/client3/rdock/2013.1/src/exe/rbdock.cxx#4 $)

>  <Rbt.Library>
libRbt.so (2013.1, Build901 2013/11/27)

>  <Rbt.Parameter_File>
/export/apps/rDock/src/rDock_2013.1_src/data/scripts/dock_solv.prm

>  <Rbt.Receptor>
prm/blind_docking_80.prm

>  <SCORE>
-10.1349

>  <SCORE.INTER>
-10.1349

>  <SCORE.INTER.CONST>
1

>  <SCORE.INTER.POLAR>
0

>  <SCORE.INTER.ROT>
0

>  <SCORE.INTER.SOLV>
15.1752

>  <SCORE.INTER.VDW>
-15.415

>  <SCORE.INTER.norm>
-0.921354

>  <SCORE.INTRA>
0

>  <SCORE.INTRA.DIHEDRAL>
0

>  <SCORE.INTRA.DIHEDRAL.0>
0

>  <SCORE.INTRA.POLAR>
0

>  <SCORE.INTRA.POLAR.0>
0

>  <SCORE.INTRA.REPUL>
0

>  <SCORE.INTRA.REPUL.0>
0

>  <SCORE.INTRA.SOLV>
0

>  <SCORE.INTRA.SOLV.lig_0>
-48.9252

>  <SCORE.INTRA.VDW>
0

>  <SCORE.INTRA.VDW.0>
0

>  <SCORE.INTRA.norm>
0

>  <SCORE.RESTR>
0

>  <SCORE.RESTR.CAVITY>
0

>  <SCORE.RESTR.norm>
0

>  <SCORE.SYSTEM>
0

>  <SCORE.SYSTEM.CONST>
0

>  <SCORE.SYSTEM.DIHEDRAL>
0

>  <SCORE.SYSTEM.SOLV>
0

>  <SCORE.SYSTEM.norm>
0

>  <SCORE.heavy>
11

>  <SCORE.norm>
-0.921354

>  <RMSD>
3.835

$$$$
ligand
 OpenBabel11021811493D
libRbt.so/2013.1/901 2013/11/27
 11 12  0  0  0  0  0  0  0  0999 V2000
   11.8361   10.7898    6.5090 N   0  0  0  0  0  0  0  0  0  0  0  0
   12.5130   10.0790    7.4294 C   0  0  0  0  0  0  0  0  0  0  0  0
   13.0072    8.8270    7.0929 N   0  0  0  0  0  0  0  0  0  0  0  0
   12.7205   10.5531    8.6680 N   0  0  0  0  0  0  0  0  0  0  0  0
   12.2561   11.7557    9.0423 C   0  0  0  0  0  0  0  0  0  0  0  0
   11.5390   12.5447    8.1149 C   0  0  0  0  0  0  0  0  0  0  0  0
   11.3399   12.0106    6.8033 C   0  0  0  0  0  0  0  0  0  0  0  0
   10.6534   12.7236    5.8511 N   0  0  0  0  0  0  0  0  0  0  0  0
   11.1901   13.6990    8.7520 N   0  0  0  0  0  0  0  0  0  0  0  0
   11.6324   13.6635    9.9730 C   0  0  0  0  0  0  0  0  0  0  0  0
   12.3004   12.4875   10.2033 N   0  0  0  0  0  0  0  0  0  0  0  0
  1  7  2  0  0  0  0
  1  2  1  0  0  0  0
  2  3  1  0  0  0  0
  2  4  2  0  0  0  0
  4  5  1  0  0  0  0
  5  6  2  0  0  0  0
  5 11  1  0  0  0  0
  6  7  1  0  0  0  0
  6  9  1  0  0  0  0
  7  8  1  0  0  0  0
  9 10  1  0  0  0  0
 10 11  2  0  0  0  0
M  END
>  <CHROM.1>
11.91160258,11.72061337,8.02381271,1.17590930,1.02583627,-2.19015139

>  <Name>
ligand

>  <RI>
0

>  <Rbt.Current_Directory>
/home/itssahil/PROJECTS/Mol_Feturizer/New_Systems/rnas/4FEO

>  <Rbt.Executable>
rbdock ($Id: //depot/dev/client3/rdock/2013.1/src/exe/rbdock.cxx#4 $)

>  <Rbt.Library>
libRbt.so (2013.1, Build901 2013/11/27)

>  <Rbt.Parameter_File>
/export/apps/rDock/src/rDock_2013.1_src/data/scripts/dock_solv.prm

>  <Rbt.Receptor>
prm/blind_docking_80.prm

>  <SCORE>
-10.1335

>  <SCORE.INTER>
-10.1335

>  <SCORE.INTER.CONST>
1

>  <SCORE.INTER.POLAR>
0

>  <SCORE.INTER.ROT>
0

>  <SCORE.INTER.SOLV>
15.1892

>  <SCORE.INTER.VDW>
-15.4188

>  <SCORE.INTER.norm>
-0.921231

>  <SCORE.INTRA>
0

>  <SCORE.INTRA.DIHEDRAL>
0

>  <SCORE.INTRA.DIHEDRAL.0>
0

>  <SCORE.INTRA.POLAR>
0

>  <SCORE.INTRA.POLAR.0>
0

>  <SCORE.INTRA.REPUL>
0

>  <SCORE.INTRA.REPUL.0>
0

>  <SCORE.INTRA.SOLV>
0

>  <SCORE.INTRA.SOLV.lig_0>
-48.9252

>  <SCORE.INTRA.VDW>
0

>  <SCORE.INTRA.VDW.0>
0

>  <SCORE.INTRA.norm>
0

>  <SCORE.RESTR>
0

>  <SCORE.RESTR.CAVITY>
0

>  <SCORE.RESTR.norm>
0

>  <SCORE.SYSTEM>
0

>  <SCORE.SYSTEM.CONST>
0

>  <SCORE.SYSTEM.DIHEDRAL>
0

>  <SCORE.SYSTEM.SOLV>
0

>  <SCORE.SYSTEM.norm>
0

>  <SCORE.heavy>
11

>  <SCORE.norm>
-0.921231

>  <RMSD>
3.835

$$$$
ligand
 OpenBabel11021811493D
libRbt.so/2013.1/901 2013/11/27
 11 12  0  0  0  0  0  0  0  0999 V2000
   11.8423   10.7803    6.5077 N   0  0  0  0  0  0  0  0  0  0  0  0
   12.5202   10.0716    7.4290 C   0  0  0  0  0  0  0  0  0  0  0  0
   13.0168    8.8201    7.0937 N   0  0  0  0  0  0  0  0  0  0  0  0
   12.7263   10.5471    8.6673 N   0  0  0  0  0  0  0  0  0  0  0  0
   12.2596   11.7492    9.0403 C   0  0  0  0  0  0  0  0  0  0  0  0
   11.5414   12.5361    8.1119 C   0  0  0  0  0  0  0  0  0  0  0  0
   11.3438   12.0005    6.8007 C   0  0  0  0  0  0  0  0  0  0  0  0
   10.6563   12.7114    5.8476 N   0  0  0  0  0  0  0  0  0  0  0  0
   11.1902   13.6903    8.7478 N   0  0  0  0  0  0  0  0  0  0  0  0
   11.6321   13.6567    9.9691 C   0  0  0  0  0  0  0  0  0  0  0  0
   12.3021   12.4821   10.2007 N   0  0  0  0  0  0  0  0  0  0  0  0
  1  7  2  0  0  0  0
  1  2  1  0  0  0  0
  2  3  1  0  0  0  0
  2  4  2  0  0  0  0
  4  5  1  0  0  0  0
  5  6  2  0  0  0  0
  5 11  1  0  0  0  0
  6  7  1  0  0  0  0
  6  9  1  0  0  0  0
  7  8  1  0  0  0  0
  9 10  1  0  0  0  0
 10 11  2  0  0  0  0
M  END
>  <CHROM.1>
11.91554888,11.71261011,8.02169037,1.17329124,1.02458085,-2.18878998

>  <Name>
ligand

>  <RI>
0

>  <Rbt.Current_Directory>
/home/itssahil/PROJECTS/Mol_Feturizer/New_Systems/rnas/4FEO

>  <Rbt.Executable>
rbdock ($Id: //depot/dev/client3/rdock/2013.1/src/exe/rbdock.cxx#4 $)

>  <Rbt.Library>
libRbt.so (2013.1, Build901 2013/11/27)

>  <Rbt.Parameter_File>
/export/apps/rDock/src/rDock_2013.1_src/data/scripts/dock_solv.prm

>  <Rbt.Receptor>
prm/blind_docking_80.prm

>  <SCORE>
-10.1349

>  <SCORE.INTER>
-10.1349

>  <SCORE.INTER.CONST>
1

>  <SCORE.INTER.POLAR>
0

>  <SCORE.INTER.ROT>
0

>  <SCORE.INTER.SOLV>
15.186

>  <SCORE.INTER.VDW>
-15.4186

>  <SCORE.INTER.norm>
-0.921351

>  <SCORE.INTRA>
0

>  <SCORE.INTRA.DIHEDRAL>
0

>  <SCORE.INTRA.DIHEDRAL.0>
0

>  <SCORE.INTRA.POLAR>
0

>  <SCORE.INTRA.POLAR.0>
0

>  <SCORE.INTRA.REPUL>
0

>  <SCORE.INTRA.REPUL.0>
0

>  <SCORE.INTRA.SOLV>
0

>  <SCORE.INTRA.SOLV.lig_0>
-48.9252

>  <SCORE.INTRA.VDW>
0

>  <SCORE.INTRA.VDW.0>
0

>  <SCORE.INTRA.norm>
0

>  <SCORE.RESTR>
0

>  <SCORE.RESTR.CAVITY>
0

>  <SCORE.RESTR.norm>
0

>  <SCORE.SYSTEM>
0

>  <SCORE.SYSTEM.CONST>
0

>  <SCORE.SYSTEM.DIHEDRAL>
0

>  <SCORE.SYSTEM.SOLV>
0

>  <SCORE.SYSTEM.norm>
0

>  <SCORE.heavy>
11

>  <SCORE.norm>
-0.921351

>  <RMSD>
3.835

$$$$
ligand
 OpenBabel11021811493D
libRbt.so/2013.1/901 2013/11/27
 11 12  0  0  0  0  0  0  0  0999 V2000
   11.8604   10.7931    6.5124 N   0  0  0  0  0  0  0  0  0  0  0  0
   12.5319   10.0823    7.4368 C   0  0  0  0  0  0  0  0  0  0  0  0
   13.0300    8.8312    7.1024 N   0  0  0  0  0  0  0  0  0  0  0  0
   12.7303   10.5555    8.6772 N   0  0  0  0  0  0  0  0  0  0  0  0
   12.2618   11.7572    9.0494 C   0  0  0  0  0  0  0  0  0  0  0  0
   11.5501   12.5461    8.1179 C   0  0  0  0  0  0  0  0  0  0  0  0
   11.3606   12.0130    6.8044 C   0  0  0  0  0  0  0  0  0  0  0  0
   10.6797   12.7261    5.8482 N   0  0  0  0  0  0  0  0  0  0  0  0
   11.1954   13.6993    8.7536 N   0  0  0  0  0  0  0  0  0  0  0  0
   11.6294   13.6633    9.9777 C   0  0  0  0  0  0  0  0  0  0  0  0
   12.2973   12.4879   10.2114 N   0  0  0  0  0  0  0  0  0  0  0  0
  1  7  2  0  0  0  0
  1  2  1  0  0  0  0
  2  3  1  0  0  0  0
  2  4  2  0  0  0  0
  4  5  1  0  0  0  0
  5  6  2  0  0  0  0
  5 11  1  0  0  0  0
  6  7  1  0  0  0  0
  6  9  1  0  0  0  0
  7  8  1  0  0  0  0
  9 10  1  0  0  0  0
 10 11  2  0  0  0  0
M  END
>  <CHROM.1>
11.92437955,11.72257342,8.02856763,1.16370338,1.02873781,-2.17875892

>  <Name>
ligand

>  <RI>
0

>  <Rbt.Current_Directory>
/home/itssahil/PROJECTS/Mol_Feturizer/New_Systems/rnas/4FEO

>  <Rbt.Executable>
rbdock ($Id: //depot/dev/client3/rdock/2013.1/src/exe/rbdock.cxx#4 $)

>  <Rbt.Library>
libRbt.so (2013.1, Build901 2013/11/27)

>  <Rbt.Parameter_File>
/export/apps/rDock/src/rDock_2013.1_src/data/scripts/dock_solv.prm

>  <Rbt.Receptor>
prm/blind_docking_80.prm

>  <SCORE>
-10.1274

>  <SCORE.INTER>
-10.1274

>  <SCORE.INTER.CONST>
1

>  <SCORE.INTER.POLAR>
0

>  <SCORE.INTER.ROT>
0

>  <SCORE.INTER.SOLV>
15.1712

>  <SCORE.INTER.VDW>
-15.4087

>  <SCORE.INTER.norm>
-0.920672

>  <SCORE.INTRA>
0

>  <SCORE.INTRA.DIHEDRAL>
0

>  <SCORE.INTRA.DIHEDRAL.0>
0

>  <SCORE.INTRA.POLAR>
0

>  <SCORE.INTRA.POLAR.0>
0

>  <SCORE.INTRA.REPUL>
0

>  <SCORE.INTRA.REPUL.0>
0

>  <SCORE.INTRA.SOLV>
0

>  <SCORE.INTRA.SOLV.lig_0>
-48.9252

>  <SCORE.INTRA.VDW>
0

>  <SCORE.INTRA.VDW.0>
0

>  <SCORE.INTRA.norm>
0

>  <SCORE.RESTR>
0

>  <SCORE.RESTR.CAVITY>
0

>  <SCORE.RESTR.norm>
0

>  <SCORE.SYSTEM>
0

>  <SCORE.SYSTEM.CONST>
0

>  <SCORE.SYSTEM.DIHEDRAL>
0

>  <SCORE.SYSTEM.SOLV>
0

>  <SCORE.SYSTEM.norm>
0

>  <SCORE.heavy>
11

>  <SCORE.norm>
-0.920672

>  <RMSD>
3.835

$$$$
ligand
 OpenBabel11021811493D
libRbt.so/2013.1/901 2013/11/27
 11 12  0  0  0  0  0  0  0  0999 V2000
   11.8606   10.7853    6.5145 N   0  0  0  0  0  0  0  0  0  0  0  0
   12.5385   10.0788    7.4375 C   0  0  0  0  0  0  0  0  0  0  0  0
   13.0399    8.8290    7.1036 N   0  0  0  0  0  0  0  0  0  0  0  0
   12.7400   10.5551    8.6763 N   0  0  0  0  0  0  0  0  0  0  0  0
   12.2684   11.7558    9.0480 C   0  0  0  0  0  0  0  0  0  0  0  0
   11.5501   12.5402    8.1178 C   0  0  0  0  0  0  0  0  0  0  0  0
   11.3574   12.0039    6.8062 C   0  0  0  0  0  0  0  0  0  0  0  0
   10.6700   12.7125    5.8513 N   0  0  0  0  0  0  0  0  0  0  0  0
   11.1935   13.6933    8.7528 N   0  0  0  0  0  0  0  0  0  0  0  0
   11.6325   13.6613    9.9752 C   0  0  0  0  0  0  0  0  0  0  0  0
   12.3058   12.4888   10.2085 N   0  0  0  0  0  0  0  0  0  0  0  0
  1  7  2  0  0  0  0
  1  2  1  0  0  0  0
  2  3  1  0  0  0  0
  2  4  2  0  0  0  0
  4  5  1  0  0  0  0
  5  6  2  0  0  0  0
  5 11  1  0  0  0  0
  6  7  1  0  0  0  0
  6  9  1  0  0  0  0
  7  8  1  0  0  0  0
  9 10  1  0  0  0  0
 10 11  2  0  0  0  0
M  END
>  <CHROM.1>
11.92706274,11.71795753,8.02861007,1.16580623,1.02336654,-2.18247118

>  <Name>
ligand

>  <RI>
0

>  <Rbt.Current_Directory>
/home/itssahil/PROJECTS/Mol_Feturizer/New_Systems/rnas/4FEO

>  <Rbt.Executable>
rbdock ($Id: //depot/dev/client3/rdock/2013.1/src/exe/rbdock.cxx#4 $)

>  <Rbt.Library>
libRbt.so (2013.1, Build901 2013/11/27)

>  <Rbt.Parameter_File>
/export/apps/rDock/src/rDock_2013.1_src/data/scripts/dock_solv.prm

>  <Rbt.Receptor>
prm/pocket_docking_5.prm

>  <SCORE>
-10.1339

>  <SCORE.INTER>
-10.1339

>  <SCORE.INTER.CONST>
1

>  <SCORE.INTER.POLAR>
0

>  <SCORE.INTER.ROT>
0

>  <SCORE.INTER.SOLV>
15.1289

>  <SCORE.INTER.VDW>
-15.3989

>  <SCORE.INTER.norm>
-0.921268

>  <SCORE.INTRA>
0

>  <SCORE.INTRA.DIHEDRAL>
0

>  <SCORE.INTRA.DIHEDRAL.0>
0

>  <SCORE.INTRA.POLAR>
0

>  <SCORE.INTRA.POLAR.0>
0

>  <SCORE.INTRA.REPUL>
0

>  <SCORE.INTRA.REPUL.0>
0

>  <SCORE.INTRA.SOLV>
0

>  <SCORE.INTRA.SOLV.lig_0>
-48.9252

>  <SCORE.INTRA.VDW>
0

>  <SCORE.INTRA.VDW.0>
0

>  <SCORE.INTRA.norm>
0

>  <SCORE.RESTR>
0

>  <SCORE.RESTR.CAVITY>
0

>  <SCORE.RESTR.norm>
0

>  <SCORE.SYSTEM>
0

>  <SCORE.SYSTEM.CONST>
0

>  <SCORE.SYSTEM.DIHEDRAL>
0

>  <SCORE.SYSTEM.SOLV>
0

>  <SCORE.SYSTEM.norm>
0

>  <SCORE.heavy>
11

>  <SCORE.norm>
-0.921268

>  <RMSD>
3.835

$$$$
ligand
 OpenBabel11021811493D
libRbt.so/2013.1/901 2013/11/27
 11 12  0  0  0  0  0  0  0  0999 V2000
   11.8543   10.7966    6.5152 N   0  0  0  0  0  0  0  0  0  0  0  0
   12.5293   10.0866    7.4377 C   0  0  0  0  0  0  0  0  0  0  0  0
   13.0274    8.8358    7.1021 N   0  0  0  0  0  0  0  0  0  0  0  0
   12.7311   10.5603    8.6774 N   0  0  0  0  0  0  0  0  0  0  0  0
   12.2628   11.7617    9.0507 C   0  0  0  0  0  0  0  0  0  0  0  0
   11.5476   12.5498    8.1211 C   0  0  0  0  0  0  0  0  0  0  0  0
   11.3544   12.0162    6.8084 C   0  0  0  0  0  0  0  0  0  0  0  0
   10.6700   12.7284    5.8541 N   0  0  0  0  0  0  0  0  0  0  0  0
   11.1939   13.7029    8.7576 N   0  0  0  0  0  0  0  0  0  0  0  0
   11.6316   13.6676    9.9803 C   0  0  0  0  0  0  0  0  0  0  0  0
   12.3013   12.4928   10.2123 N   0  0  0  0  0  0  0  0  0  0  0  0
  1  7  2  0  0  0  0
  1  2  1  0  0  0  0
  2  3  1  0  0  0  0
  2  4  2  0  0  0  0
  4  5  1  0  0  0  0
  5  6  2  0  0  0  0
  5 11  1  0  0  0  0
  6  7  1  0  0  0  0
  6  9  1  0  0  0  0
  7  8  1  0  0  0  0
  9 10  1  0  0  0  0
 10 11  2  0  0  0  0
M  END
>  <CHROM.1>
11.92221033,11.72654447,8.03087144,1.16768644,1.02628582,-2.18245066

>  <Name>
ligand

>  <RI>
0

>  <Rbt.Current_Directory>
/home/itssahil/PROJECTS/Mol_Feturizer/New_Systems/rnas/4FEO

>  <Rbt.Executable>
rbdock ($Id: //depot/dev/client3/rdock/2013.1/src/exe/rbdock.cxx#4 $)

>  <Rbt.Library>
libRbt.so (2013.1, Build901 2013/11/27)

>  <Rbt.Parameter_File>
/export/apps/rDock/src/rDock_2013.1_src/data/scripts/dock_solv.prm

>  <Rbt.Receptor>
prm/pocket_docking_6.prm

>  <SCORE>
-10.1309

>  <SCORE.INTER>
-10.1309

>  <SCORE.INTER.CONST>
1

>  <SCORE.INTER.POLAR>
0

>  <SCORE.INTER.ROT>
0

>  <SCORE.INTER.SOLV>
15.1428

>  <SCORE.INTER.VDW>
-15.4015

>  <SCORE.INTER.norm>
-0.920989

>  <SCORE.INTRA>
0

>  <SCORE.INTRA.DIHEDRAL>
0

>  <SCORE.INTRA.DIHEDRAL.0>
0

>  <SCORE.INTRA.POLAR>
0

>  <SCORE.INTRA.POLAR.0>
0

>  <SCORE.INTRA.REPUL>
0

>  <SCORE.INTRA.REPUL.0>
0

>  <SCORE.INTRA.SOLV>
0

>  <SCORE.INTRA.SOLV.lig_0>
-48.9252

>  <SCORE.INTRA.VDW>
0

>  <SCORE.INTRA.VDW.0>
0

>  <SCORE.INTRA.norm>
0

>  <SCORE.RESTR>
0

>  <SCORE.RESTR.CAVITY>
0

>  <SCORE.RESTR.norm>
0

>  <SCORE.SYSTEM>
0

>  <SCORE.SYSTEM.CONST>
0

>  <SCORE.SYSTEM.DIHEDRAL>
0

>  <SCORE.SYSTEM.SOLV>
0

>  <SCORE.SYSTEM.norm>
0

>  <SCORE.heavy>
11

>  <SCORE.norm>
-0.920989

>  <RMSD>
3.835

$$$$
ligand
 OpenBabel11021811493D
libRbt.so/2013.1/901 2013/11/27
 11 12  0  0  0  0  0  0  0  0999 V2000
   11.8441   10.7899    6.5109 N   0  0  0  0  0  0  0  0  0  0  0  0
   12.5207   10.0799    7.4322 C   0  0  0  0  0  0  0  0  0  0  0  0
   13.0166    8.8284    7.0963 N   0  0  0  0  0  0  0  0  0  0  0  0
   12.7261   10.5543    8.6711 N   0  0  0  0  0  0  0  0  0  0  0  0
   12.2600   11.7565    9.0447 C   0  0  0  0  0  0  0  0  0  0  0  0
   11.5433   12.5446    8.1164 C   0  0  0  0  0  0  0  0  0  0  0  0
   11.3463   12.0102    6.8045 C   0  0  0  0  0  0  0  0  0  0  0  0
   10.6601   12.7225    5.8515 N   0  0  0  0  0  0  0  0  0  0  0  0
   11.1924   13.6985    8.7530 N   0  0  0  0  0  0  0  0  0  0  0  0
   11.6332   13.6636    9.9746 C   0  0  0  0  0  0  0  0  0  0  0  0
   12.3022   12.4883   10.2057 N   0  0  0  0  0  0  0  0  0  0  0  0
  1  7  2  0  0  0  0
  1  2  1  0  0  0  0
  2  3  1  0  0  0  0
  2  4  2  0  0  0  0
  4  5  1  0  0  0  0
  5  6  2  0  0  0  0
  5 11  1  0  0  0  0
  6  7  1  0  0  0  0
  6  9  1  0  0  0  0
  7  8  1  0  0  0  0
  9 10  1  0  0  0  0
 10 11  2  0  0  0  0
M  END
>  <CHROM.1>
11.91682176,11.72092269,8.02579964,1.17283825,1.02567626,-2.18757395

>  <Name>
ligand

>  <RI>
0

>  <Rbt.Current_Directory>
/home/itssahil/PROJECTS/Mol_Feturizer/New_Systems/rnas/4FEO

>  <Rbt.Executable>
rbdock ($Id: //depot/dev/client3/rdock/2013.1/src/exe/rbdock.cxx#4 $)

>  <Rbt.Library>
libRbt.so (2013.1, Build901 2013/11/27)

>  <Rbt.Parameter_File>
/export/apps/rDock/src/rDock_2013.1_src/data/scripts/dock_solv.prm

>  <Rbt.Receptor>
prm/pocket_docking_6.prm

>  <SCORE>
-10.1357

>  <SCORE.INTER>
-10.1357

>  <SCORE.INTER.CONST>
1

>  <SCORE.INTER.POLAR>
0

>  <SCORE.INTER.ROT>
0

>  <SCORE.INTER.SOLV>
15.1693

>  <SCORE.INTER.VDW>
-15.4136

>  <SCORE.INTER.norm>
-0.921431

>  <SCORE.INTRA>
0

>  <SCORE.INTRA.DIHEDRAL>
0

>  <SCORE.INTRA.DIHEDRAL.0>
0

>  <SCORE.INTRA.POLAR>
0

>  <SCORE.INTRA.POLAR.0>
0

>  <SCORE.INTRA.REPUL>
0

>  <SCORE.INTRA.REPUL.0>
0

>  <SCORE.INTRA.SOLV>
0

>  <SCORE.INTRA.SOLV.lig_0>
-48.9252

>  <SCORE.INTRA.VDW>
0

>  <SCORE.INTRA.VDW.0>
0

>  <SCORE.INTRA.norm>
0

>  <SCORE.RESTR>
0

>  <SCORE.RESTR.CAVITY>
0

>  <SCORE.RESTR.norm>
0

>  <SCORE.SYSTEM>
0

>  <SCORE.SYSTEM.CONST>
0

>  <SCORE.SYSTEM.DIHEDRAL>
0

>  <SCORE.SYSTEM.SOLV>
0

>  <SCORE.SYSTEM.norm>
0

>  <SCORE.heavy>
11

>  <SCORE.norm>
-0.921431

>  <RMSD>
3.835

$$$$
ligand
 OpenBabel11021811493D
libRbt.so/2013.1/901 2013/11/27
 11 12  0  0  0  0  0  0  0  0999 V2000
   11.8602   10.7888    6.5153 N   0  0  0  0  0  0  0  0  0  0  0  0
   12.5375   10.0817    7.4383 C   0  0  0  0  0  0  0  0  0  0  0  0
   13.0387    8.8318    7.1041 N   0  0  0  0  0  0  0  0  0  0  0  0
   12.7387   10.5574    8.6774 N   0  0  0  0  0  0  0  0  0  0  0  0
   12.2674   11.7581    9.0495 C   0  0  0  0  0  0  0  0  0  0  0  0
   11.5497   12.5432    8.1193 C   0  0  0  0  0  0  0  0  0  0  0  0
   11.3573   12.0075    6.8073 C   0  0  0  0  0  0  0  0  0  0  0  0
   10.6706   12.7167    5.8525 N   0  0  0  0  0  0  0  0  0  0  0  0
   11.1933   13.6961    8.7546 N   0  0  0  0  0  0  0  0  0  0  0  0
   11.6317   13.6634    9.9771 C   0  0  0  0  0  0  0  0  0  0  0  0
   12.3045   12.4907   10.2102 N   0  0  0  0  0  0  0  0  0  0  0  0
  1  7  2  0  0  0  0
  1  2  1  0  0  0  0
  2  3  1  0  0  0  0
  2  4  2  0  0  0  0
  4  5  1  0  0  0  0
  5  6  2  0  0  0  0
  5 11  1  0  0  0  0
  6  7  1  0  0  0  0
  6  9  1  0  0  0  0
  7  8  1  0  0  0  0
  9 10  1  0  0  0  0
 10 11  2  0  0  0  0
M  END
>  <CHROM.1>
11.92643023,11.72080827,8.02987385,1.16556142,1.02388335,-2.18184477

>  <Name>
ligand

>  <RI>
0

>  <Rbt.Current_Directory>
/home/itssahil/PROJECTS/Mol_Feturizer/New_Systems/rnas/4FEO

>  <Rbt.Executable>
rbdock ($Id: //depot/dev/client3/rdock/2013.1/src/exe/rbdock.cxx#4 $)

>  <Rbt.Library>
libRbt.so (2013.1, Build901 2013/11/27)

>  <Rbt.Parameter_File>
/export/apps/rDock/src/rDock_2013.1_src/data/scripts/dock_solv.prm

>  <Rbt.Receptor>
prm/pocket_docking_6.prm

>  <SCORE>
-10.1332

>  <SCORE.INTER>
-10.1332

>  <SCORE.INTER.CONST>
1

>  <SCORE.INTER.POLAR>
0

>  <SCORE.INTER.ROT>
0

>  <SCORE.INTER.SOLV>
15.1253

>  <SCORE.INTER.VDW>
-15.3972

>  <SCORE.INTER.norm>
-0.921199

>  <SCORE.INTRA>
0

>  <SCORE.INTRA.DIHEDRAL>
0

>  <SCORE.INTRA.DIHEDRAL.0>
0

>  <SCORE.INTRA.POLAR>
0

>  <SCORE.INTRA.POLAR.0>
0

>  <SCORE.INTRA.REPUL>
0

>  <SCORE.INTRA.REPUL.0>
0

>  <SCORE.INTRA.SOLV>
0

>  <SCORE.INTRA.SOLV.lig_0>
-48.9252

>  <SCORE.INTRA.VDW>
0

>  <SCORE.INTRA.VDW.0>
0

>  <SCORE.INTRA.norm>
0

>  <SCORE.RESTR>
0

>  <SCORE.RESTR.CAVITY>
0

>  <SCORE.RESTR.norm>
0

>  <SCORE.SYSTEM>
0

>  <SCORE.SYSTEM.CONST>
0

>  <SCORE.SYSTEM.DIHEDRAL>
0

>  <SCORE.SYSTEM.SOLV>
0

>  <SCORE.SYSTEM.norm>
0

>  <SCORE.heavy>
11

>  <SCORE.norm>
-0.921199

>  <RMSD>
3.835

$$$$
ligand
 OpenBabel11021811493D
libRbt.so/2013.1/901 2013/11/27
 11 12  0  0  0  0  0  0  0  0999 V2000
   11.8464   10.7889    6.5126 N   0  0  0  0  0  0  0  0  0  0  0  0
   12.5246   10.0801    7.4337 C   0  0  0  0  0  0  0  0  0  0  0  0
   13.0224    8.8294    7.0977 N   0  0  0  0  0  0  0  0  0  0  0  0
   12.7299   10.5550    8.6723 N   0  0  0  0  0  0  0  0  0  0  0  0
   12.2620   11.7565    9.0460 C   0  0  0  0  0  0  0  0  0  0  0  0
   11.5435   12.5434    8.1179 C   0  0  0  0  0  0  0  0  0  0  0  0
   11.3468   12.0085    6.8063 C   0  0  0  0  0  0  0  0  0  0  0  0
   10.6590   12.7195    5.8534 N   0  0  0  0  0  0  0  0  0  0  0  0
   11.1911   13.6968    8.7545 N   0  0  0  0  0  0  0  0  0  0  0  0
   11.6326   13.6628    9.9760 C   0  0  0  0  0  0  0  0  0  0  0  0
   12.3035   12.4886   10.2069 N   0  0  0  0  0  0  0  0  0  0  0  0
  1  7  2  0  0  0  0
  1  2  1  0  0  0  0
  2  3  1  0  0  0  0
  2  4  2  0  0  0  0
  4  5  1  0  0  0  0
  5  6  2  0  0  0  0
  5 11  1  0  0  0  0
  6  7  1  0  0  0  0
  6  9  1  0  0  0  0
  7  8  1  0  0  0  0
  9 10  1  0  0  0  0
 10 11  2  0  0  0  0
M  END
>  <CHROM.1>
11.91836510,11.72025165,8.02729844,1.17179516,1.02408008,-2.18682858

>  <Name>
ligand

>  <RI>
0

>  <Rbt.Current_Directory>
/home/itssahil/PROJECTS/Mol_Feturizer/New_Systems/rnas/4FEO

>  <Rbt.Executable>
rbdock ($Id: //depot/dev/client3/rdock/2013.1/src/exe/rbdock.cxx#4 $)

>  <Rbt.Library>
libRbt.so (2013.1, Build901 2013/11/27)

>  <Rbt.Parameter_File>
/export/apps/rDock/src/rDock_2013.1_src/data/scripts/dock_solv.prm

>  <Rbt.Receptor>
prm/pocket_docking_7.prm

>  <SCORE>
-10.1356

>  <SCORE.INTER>
-10.1356

>  <SCORE.INTER.CONST>
1

>  <SCORE.INTER.POLAR>
0

>  <SCORE.INTER.ROT>
0

>  <SCORE.INTER.SOLV>
15.1481

>  <SCORE.INTER.VDW>
-15.4064

>  <SCORE.INTER.norm>
-0.92142

>  <SCORE.INTRA>
0

>  <SCORE.INTRA.DIHEDRAL>
0

>  <SCORE.INTRA.DIHEDRAL.0>
0

>  <SCORE.INTRA.POLAR>
0

>  <SCORE.INTRA.POLAR.0>
0

>  <SCORE.INTRA.REPUL>
0

>  <SCORE.INTRA.REPUL.0>
0

>  <SCORE.INTRA.SOLV>
0

>  <SCORE.INTRA.SOLV.lig_0>
-48.9252

>  <SCORE.INTRA.VDW>
0

>  <SCORE.INTRA.VDW.0>
0

>  <SCORE.INTRA.norm>
0

>  <SCORE.RESTR>
0

>  <SCORE.RESTR.CAVITY>
0

>  <SCORE.RESTR.norm>
0

>  <SCORE.SYSTEM>
0

>  <SCORE.SYSTEM.CONST>
0

>  <SCORE.SYSTEM.DIHEDRAL>
0

>  <SCORE.SYSTEM.SOLV>
0

>  <SCORE.SYSTEM.norm>
0

>  <SCORE.heavy>
11

>  <SCORE.norm>
-0.92142

>  <RMSD>
3.835

$$$$
ligand
 OpenBabel11021811493D
libRbt.so/2013.1/901 2013/11/27
 11 12  0  0  0  0  0  0  0  0999 V2000
   11.8480   10.7793    6.5066 N   0  0  0  0  0  0  0  0  0  0  0  0
   12.5233   10.0700    7.4294 C   0  0  0  0  0  0  0  0  0  0  0  0
   13.0191    8.8179    7.0953 N   0  0  0  0  0  0  0  0  0  0  0  0
   12.7276   10.5455    8.6679 N   0  0  0  0  0  0  0  0  0  0  0  0
   12.2615   11.7483    9.0398 C   0  0  0  0  0  0  0  0  0  0  0  0
   11.5461   12.5357    8.1100 C   0  0  0  0  0  0  0  0  0  0  0  0
   11.3503   12.0001    6.7984 C   0  0  0  0  0  0  0  0  0  0  0  0
   10.6655   12.7117    5.8439 N   0  0  0  0  0  0  0  0  0  0  0  0
   11.1949   13.6904    8.7450 N   0  0  0  0  0  0  0  0  0  0  0  0
   11.6344   13.6566    9.9671 C   0  0  0  0  0  0  0  0  0  0  0  0
   12.3027   12.4813   10.2002 N   0  0  0  0  0  0  0  0  0  0  0  0
  1  7  2  0  0  0  0
  1  2  1  0  0  0  0
  2  3  1  0  0  0  0
  2  4  2  0  0  0  0
  4  5  1  0  0  0  0
  5  6  2  0  0  0  0
  5 11  1  0  0  0  0
  6  7  1  0  0  0  0
  6  9  1  0  0  0  0
  7  8  1  0  0  0  0
  9 10  1  0  0  0  0
 10 11  2  0  0  0  0
M  END
>  <CHROM.1>
11.91941814,11.71182183,8.02061260,1.17155193,1.02661626,-2.18748475

>  <Name>
ligand

>  <RI>
0

>  <Rbt.Current_Directory>
/home/itssahil/PROJECTS/Mol_Feturizer/New_Systems/rnas/4FEO

>  <Rbt.Executable>
rbdock ($Id: //depot/dev/client3/rdock/2013.1/src/exe/rbdock.cxx#4 $)

>  <Rbt.Library>
libRbt.so (2013.1, Build901 2013/11/27)

>  <Rbt.Parameter_File>
/export/apps/rDock/src/rDock_2013.1_src/data/scripts/dock_solv.prm

>  <Rbt.Receptor>
prm/pocket_docking_7.prm

>  <SCORE>
-10.1343

>  <SCORE.INTER>
-10.1343

>  <SCORE.INTER.CONST>
1

>  <SCORE.INTER.POLAR>
0

>  <SCORE.INTER.ROT>
0

>  <SCORE.INTER.SOLV>
15.2069

>  <SCORE.INTER.VDW>
-15.4252

>  <SCORE.INTER.norm>
-0.921302

>  <SCORE.INTRA>
0

>  <SCORE.INTRA.DIHEDRAL>
0

>  <SCORE.INTRA.DIHEDRAL.0>
0

>  <SCORE.INTRA.POLAR>
0

>  <SCORE.INTRA.POLAR.0>
0

>  <SCORE.INTRA.REPUL>
0

>  <SCORE.INTRA.REPUL.0>
0

>  <SCORE.INTRA.SOLV>
0

>  <SCORE.INTRA.SOLV.lig_0>
-48.9252

>  <SCORE.INTRA.VDW>
0

>  <SCORE.INTRA.VDW.0>
0

>  <SCORE.INTRA.norm>
0

>  <SCORE.RESTR>
0

>  <SCORE.RESTR.CAVITY>
0

>  <SCORE.RESTR.norm>
0

>  <SCORE.SYSTEM>
0

>  <SCORE.SYSTEM.CONST>
0

>  <SCORE.SYSTEM.DIHEDRAL>
0

>  <SCORE.SYSTEM.SOLV>
0

>  <SCORE.SYSTEM.norm>
0

>  <SCORE.heavy>
11

>  <SCORE.norm>
-0.921302

>  <RMSD>
3.835

$$$$
ligand
 OpenBabel11021811493D
libRbt.so/2013.1/901 2013/11/27
 11 12  0  0  0  0  0  0  0  0999 V2000
   11.8618   10.7852    6.5188 N   0  0  0  0  0  0  0  0  0  0  0  0
   12.5439   10.0808    7.4403 C   0  0  0  0  0  0  0  0  0  0  0  0
   13.0495    8.8330    7.1048 N   0  0  0  0  0  0  0  0  0  0  0  0
   12.7456   10.5571    8.6790 N   0  0  0  0  0  0  0  0  0  0  0  0
   12.2702   11.7558    9.0522 C   0  0  0  0  0  0  0  0  0  0  0  0
   11.5473   12.5380    8.1236 C   0  0  0  0  0  0  0  0  0  0  0  0
   11.3545   12.0017    6.8120 C   0  0  0  0  0  0  0  0  0  0  0  0
   10.6628   12.7083    5.8587 N   0  0  0  0  0  0  0  0  0  0  0  0
   11.1875   13.6894    8.7599 N   0  0  0  0  0  0  0  0  0  0  0  0
   11.6286   13.6583    9.9815 C   0  0  0  0  0  0  0  0  0  0  0  0
   12.3067   12.4883   10.2130 N   0  0  0  0  0  0  0  0  0  0  0  0
  1  7  2  0  0  0  0
  1  2  1  0  0  0  0
  2  3  1  0  0  0  0
  2  4  2  0  0  0  0
  4  5  1  0  0  0  0
  5  6  2  0  0  0  0
  5 11  1  0  0  0  0
  6  7  1  0  0  0  0
  6  9  1  0  0  0  0
  7  8  1  0  0  0  0
  9 10  1  0  0  0  0
 10 11  2  0  0  0  0
M  END
>  <CHROM.1>
11.92725331,11.71724270,8.03333115,1.16426649,1.01931793,-2.18058095

>  <Name>
ligand

>  <RI>
0

>  <Rbt.Current_Directory>
/home/itssahil/PROJECTS/Mol_Feturizer/New_Systems/rnas/4FEO

>  <Rbt.Executable>
rbdock ($Id: //depot/dev/client3/rdock/2013.1/src/exe/rbdock.cxx#4 $)

>  <Rbt.Library>
libRbt.so (2013.1, Build901 2013/11/27)

>  <Rbt.Parameter_File>
/export/apps/rDock/src/rDock_2013.1_src/data/scripts/dock_solv.prm

>  <Rbt.Receptor>
prm/pocket_docking_7.prm

>  <SCORE>
-10.1311

>  <SCORE.INTER>
-10.1311

>  <SCORE.INTER.CONST>
1

>  <SCORE.INTER.POLAR>
0

>  <SCORE.INTER.ROT>
0

>  <SCORE.INTER.SOLV>
15.0733

>  <SCORE.INTER.VDW>
-15.3785

>  <SCORE.INTER.norm>
-0.921009

>  <SCORE.INTRA>
0

>  <SCORE.INTRA.DIHEDRAL>
0

>  <SCORE.INTRA.DIHEDRAL.0>
0

>  <SCORE.INTRA.POLAR>
0

>  <SCORE.INTRA.POLAR.0>
0

>  <SCORE.INTRA.REPUL>
0

>  <SCORE.INTRA.REPUL.0>
0

>  <SCORE.INTRA.SOLV>
0

>  <SCORE.INTRA.SOLV.lig_0>
-48.9252

>  <SCORE.INTRA.VDW>
0

>  <SCORE.INTRA.VDW.0>
0

>  <SCORE.INTRA.norm>
0

>  <SCORE.RESTR>
0

>  <SCORE.RESTR.CAVITY>
0

>  <SCORE.RESTR.norm>
0

>  <SCORE.SYSTEM>
0

>  <SCORE.SYSTEM.CONST>
0

>  <SCORE.SYSTEM.DIHEDRAL>
0

>  <SCORE.SYSTEM.SOLV>
0

>  <SCORE.SYSTEM.norm>
0

>  <SCORE.heavy>
11

>  <SCORE.norm>
-0.921009

>  <RMSD>
3.835

$$$$
ligand
 OpenBabel11021811493D
libRbt.so/2013.1/901 2013/11/27
 11 12  0  0  0  0  0  0  0  0999 V2000
   11.8486   10.7874    6.5106 N   0  0  0  0  0  0  0  0  0  0  0  0
   12.5242   10.0773    7.4326 C   0  0  0  0  0  0  0  0  0  0  0  0
   13.0207    8.8259    7.0971 N   0  0  0  0  0  0  0  0  0  0  0  0
   12.7280   10.5515    8.6718 N   0  0  0  0  0  0  0  0  0  0  0  0
   12.2611   11.7535    9.0451 C   0  0  0  0  0  0  0  0  0  0  0  0
   11.5454   12.5417    8.1160 C   0  0  0  0  0  0  0  0  0  0  0  0
   11.3501   12.0075    6.8038 C   0  0  0  0  0  0  0  0  0  0  0  0
   10.6650   12.7198    5.8500 N   0  0  0  0  0  0  0  0  0  0  0  0
   11.1935   13.6954    8.7524 N   0  0  0  0  0  0  0  0  0  0  0  0
   11.6328   13.6604    9.9746 C   0  0  0  0  0  0  0  0  0  0  0  0
   12.3017   12.4851   10.2063 N   0  0  0  0  0  0  0  0  0  0  0  0
  1  7  2  0  0  0  0
  1  2  1  0  0  0  0
  2  3  1  0  0  0  0
  2  4  2  0  0  0  0
  4  5  1  0  0  0  0
  5  6  2  0  0  0  0
  5 11  1  0  0  0  0
  6  7  1  0  0  0  0
  6  9  1  0  0  0  0
  7  8  1  0  0  0  0
  9 10  1  0  0  0  0
 10 11  2  0  0  0  0
M  END
>  <CHROM.1>
11.91921419,11.71808246,8.02572445,1.17065620,1.02623149,-2.18551354

>  <Name>
ligand

>  <RI>
0

>  <Rbt.Current_Directory>
/home/itssahil/PROJECTS/Mol_Feturizer/New_Systems/rnas/4FEO

>  <Rbt.Executable>
rbdock ($Id: //depot/dev/client3/rdock/2013.1/src/exe/rbdock.cxx#4 $)

>  <Rbt.Library>
libRbt.so (2013.1, Build901 2013/11/27)

>  <Rbt.Parameter_File>
/export/apps/rDock/src/rDock_2013.1_src/data/scripts/dock_solv.prm

>  <Rbt.Receptor>
prm/pocket_docking_7.prm

>  <SCORE>
-10.1344

>  <SCORE.INTER>
-10.1344

>  <SCORE.INTER.CONST>
1

>  <SCORE.INTER.POLAR>
0

>  <SCORE.INTER.ROT>
0

>  <SCORE.INTER.SOLV>
15.1734

>  <SCORE.INTER.VDW>
-15.4141

>  <SCORE.INTER.norm>
-0.92131

>  <SCORE.INTRA>
0

>  <SCORE.INTRA.DIHEDRAL>
0

>  <SCORE.INTRA.DIHEDRAL.0>
0

>  <SCORE.INTRA.POLAR>
0

>  <SCORE.INTRA.POLAR.0>
0

>  <SCORE.INTRA.REPUL>
0

>  <SCORE.INTRA.REPUL.0>
0

>  <SCORE.INTRA.SOLV>
0

>  <SCORE.INTRA.SOLV.lig_0>
-48.9252

>  <SCORE.INTRA.VDW>
0

>  <SCORE.INTRA.VDW.0>
0

>  <SCORE.INTRA.norm>
0

>  <SCORE.RESTR>
0

>  <SCORE.RESTR.CAVITY>
0

>  <SCORE.RESTR.norm>
0

>  <SCORE.SYSTEM>
0

>  <SCORE.SYSTEM.CONST>
0

>  <SCORE.SYSTEM.DIHEDRAL>
0

>  <SCORE.SYSTEM.SOLV>
0

>  <SCORE.SYSTEM.norm>
0

>  <SCORE.heavy>
11

>  <SCORE.norm>
-0.92131

>  <RMSD>
3.835

$$$$
ligand
 OpenBabel11021811493D
libRbt.so/2013.1/901 2013/11/27
 11 12  0  0  0  0  0  0  0  0999 V2000
   11.8514   10.7947    6.5112 N   0  0  0  0  0  0  0  0  0  0  0  0
   12.5239   10.0832    7.4343 C   0  0  0  0  0  0  0  0  0  0  0  0
   13.0192    8.8312    7.0993 N   0  0  0  0  0  0  0  0  0  0  0  0
   12.7259   10.5565    8.6741 N   0  0  0  0  0  0  0  0  0  0  0  0
   12.2602   11.7591    9.0469 C   0  0  0  0  0  0  0  0  0  0  0  0
   11.5476   12.5488    8.1167 C   0  0  0  0  0  0  0  0  0  0  0  0
   11.3543   12.0156    6.8038 C   0  0  0  0  0  0  0  0  0  0  0  0
   10.6724   12.7294    5.8489 N   0  0  0  0  0  0  0  0  0  0  0  0
   11.1962   13.7029    8.7528 N   0  0  0  0  0  0  0  0  0  0  0  0
   11.6329   13.6666    9.9759 C   0  0  0  0  0  0  0  0  0  0  0  0
   12.2994   12.4902   10.2085 N   0  0  0  0  0  0  0  0  0  0  0  0
  1  7  2  0  0  0  0
  1  2  1  0  0  0  0
  2  3  1  0  0  0  0
  2  4  2  0  0  0  0
  4  5  1  0  0  0  0
  5  6  2  0  0  0  0
  5 11  1  0  0  0  0
  6  7  1  0  0  0  0
  6  9  1  0  0  0  0
  7  8  1  0  0  0  0
  9 10  1  0  0  0  0
 10 11  2  0  0  0  0
M  END
>  <CHROM.1>
11.92034718,11.72468604,8.02683403,1.16908345,1.02876075,-2.18374228

>  <Name>
ligand

>  <RI>
0

>  <Rbt.Current_Directory>
/home/itssahil/PROJECTS/Mol_Feturizer/New_Systems/rnas/4FEO

>  <Rbt.Executable>
rbdock ($Id: //depot/dev/client3/rdock/2013.1/src/exe/rbdock.cxx#4 $)

>  <Rbt.Library>
libRbt.so (2013.1, Build901 2013/11/27)

>  <Rbt.Parameter_File>
/export/apps/rDock/src/rDock_2013.1_src/data/scripts/dock_solv.prm

>  <Rbt.Receptor>
prm/pocket_docking_7.prm

>  <SCORE>
-10.1317

>  <SCORE.INTER>
-10.1317

>  <SCORE.INTER.CONST>
1

>  <SCORE.INTER.POLAR>
0

>  <SCORE.INTER.ROT>
0

>  <SCORE.INTER.SOLV>
15.1847

>  <SCORE.INTER.VDW>
-15.416

>  <SCORE.INTER.norm>
-0.921067

>  <SCORE.INTRA>
0

>  <SCORE.INTRA.DIHEDRAL>
0

>  <SCORE.INTRA.DIHEDRAL.0>
0

>  <SCORE.INTRA.POLAR>
0

>  <SCORE.INTRA.POLAR.0>
0

>  <SCORE.INTRA.REPUL>
0

>  <SCORE.INTRA.REPUL.0>
0

>  <SCORE.INTRA.SOLV>
0

>  <SCORE.INTRA.SOLV.lig_0>
-48.9252

>  <SCORE.INTRA.VDW>
0

>  <SCORE.INTRA.VDW.0>
0

>  <SCORE.INTRA.norm>
0

>  <SCORE.RESTR>
0

>  <SCORE.RESTR.CAVITY>
0

>  <SCORE.RESTR.norm>
0

>  <SCORE.SYSTEM>
0

>  <SCORE.SYSTEM.CONST>
0

>  <SCORE.SYSTEM.DIHEDRAL>
0

>  <SCORE.SYSTEM.SOLV>
0

>  <SCORE.SYSTEM.norm>
0

>  <SCORE.heavy>
11

>  <SCORE.norm>
-0.921067

>  <RMSD>
3.835

$$$$
ligand
 OpenBabel11021811493D
libRbt.so/2013.1/901 2013/11/27
 11 12  0  0  0  0  0  0  0  0999 V2000
   11.8377   10.7917    6.5101 N   0  0  0  0  0  0  0  0  0  0  0  0
   12.5149   10.0811    7.4305 C   0  0  0  0  0  0  0  0  0  0  0  0
   13.0099    8.8294    7.0938 N   0  0  0  0  0  0  0  0  0  0  0  0
   12.7218   10.5551    8.6693 N   0  0  0  0  0  0  0  0  0  0  0  0
   12.2566   11.7574    9.0437 C   0  0  0  0  0  0  0  0  0  0  0  0
   11.5394   12.5461    8.1163 C   0  0  0  0  0  0  0  0  0  0  0  0
   11.3408   12.0122    6.8045 C   0  0  0  0  0  0  0  0  0  0  0  0
   10.6541   12.7250    5.8523 N   0  0  0  0  0  0  0  0  0  0  0  0
   11.1897   13.7001    8.7535 N   0  0  0  0  0  0  0  0  0  0  0  0
   11.6317   13.6647    9.9747 C   0  0  0  0  0  0  0  0  0  0  0  0
   12.3003   12.4889   10.2049 N   0  0  0  0  0  0  0  0  0  0  0  0
  1  7  2  0  0  0  0
  1  2  1  0  0  0  0
  2  3  1  0  0  0  0
  2  4  2  0  0  0  0
  4  5  1  0  0  0  0
  5  6  2  0  0  0  0
  5 11  1  0  0  0  0
  6  7  1  0  0  0  0
  6  9  1  0  0  0  0
  7  8  1  0  0  0  0
  9 10  1  0  0  0  0
 10 11  2  0  0  0  0
M  END
>  <CHROM.1>
11.91241085,11.72229316,8.02510946,1.17494657,1.02550953,-2.18912489

>  <Name>
ligand

>  <RI>
0

>  <Rbt.Current_Directory>
/home/itssahil/PROJECTS/Mol_Feturizer/New_Systems/rnas/4FEO

>  <Rbt.Executable>
rbdock ($Id: //depot/dev/client3/rdock/2013.1/src/exe/rbdock.cxx#4 $)

>  <Rbt.Library>
libRbt.so (2013.1, Build901 2013/11/27)

>  <Rbt.Parameter_File>
/export/apps/rDock/src/rDock_2013.1_src/data/scripts/dock_solv.prm

>  <Rbt.Receptor>
prm/pocket_docking_8.prm

>  <SCORE>
-10.1341

>  <SCORE.INTER>
-10.1341

>  <SCORE.INTER.CONST>
1

>  <SCORE.INTER.POLAR>
0

>  <SCORE.INTER.ROT>
0

>  <SCORE.INTER.SOLV>
15.1752

>  <SCORE.INTER.VDW>
-15.4144

>  <SCORE.INTER.norm>
-0.921278

>  <SCORE.INTRA>
0

>  <SCORE.INTRA.DIHEDRAL>
0

>  <SCORE.INTRA.DIHEDRAL.0>
0

>  <SCORE.INTRA.POLAR>
0

>  <SCORE.INTRA.POLAR.0>
0

>  <SCORE.INTRA.REPUL>
0

>  <SCORE.INTRA.REPUL.0>
0

>  <SCORE.INTRA.SOLV>
0

>  <SCORE.INTRA.SOLV.lig_0>
-48.9252

>  <SCORE.INTRA.VDW>
0

>  <SCORE.INTRA.VDW.0>
0

>  <SCORE.INTRA.norm>
0

>  <SCORE.RESTR>
0

>  <SCORE.RESTR.CAVITY>
0

>  <SCORE.RESTR.norm>
0

>  <SCORE.SYSTEM>
0

>  <SCORE.SYSTEM.CONST>
0

>  <SCORE.SYSTEM.DIHEDRAL>
0

>  <SCORE.SYSTEM.SOLV>
0

>  <SCORE.SYSTEM.norm>
0

>  <SCORE.heavy>
11

>  <SCORE.norm>
-0.921278

>  <RMSD>
3.835

$$$$
ligand
 OpenBabel11021811493D
libRbt.so/2013.1/901 2013/11/27
 11 12  0  0  0  0  0  0  0  0999 V2000
   11.8450   10.7970    6.5106 N   0  0  0  0  0  0  0  0  0  0  0  0
   12.5175   10.0849    7.4332 C   0  0  0  0  0  0  0  0  0  0  0  0
   13.0112    8.8323    7.0980 N   0  0  0  0  0  0  0  0  0  0  0  0
   12.7210   10.5581    8.6728 N   0  0  0  0  0  0  0  0  0  0  0  0
   12.2569   11.7613    9.0459 C   0  0  0  0  0  0  0  0  0  0  0  0
   11.5445   12.5516    8.1161 C   0  0  0  0  0  0  0  0  0  0  0  0
   11.3495   12.0184    6.8035 C   0  0  0  0  0  0  0  0  0  0  0  0
   10.6676   12.7328    5.8491 N   0  0  0  0  0  0  0  0  0  0  0  0
   11.1949   13.7061    8.7524 N   0  0  0  0  0  0  0  0  0  0  0  0
   11.6325   13.6695    9.9751 C   0  0  0  0  0  0  0  0  0  0  0  0
   12.2980   12.4924   10.2074 N   0  0  0  0  0  0  0  0  0  0  0  0
  1  7  2  0  0  0  0
  1  2  1  0  0  0  0
  2  3  1  0  0  0  0
  2  4  2  0  0  0  0
  4  5  1  0  0  0  0
  5  6  2  0  0  0  0
  5 11  1  0  0  0  0
  6  7  1  0  0  0  0
  6  9  1  0  0  0  0
  7  8  1  0  0  0  0
  9 10  1  0  0  0  0
 10 11  2  0  0  0  0
M  END
>  <CHROM.1>
11.91623846,11.72706930,8.02609995,1.17160997,1.02916464,-2.18602914

>  <Name>
ligand

>  <RI>
0

>  <Rbt.Current_Directory>
/home/itssahil/PROJECTS/Mol_Feturizer/New_Systems/rnas/4FEO

>  <Rbt.Executable>
rbdock ($Id: //depot/dev/client3/rdock/2013.1/src/exe/rbdock.cxx#4 $)

>  <Rbt.Library>
libRbt.so (2013.1, Build901 2013/11/27)

>  <Rbt.Parameter_File>
/export/apps/rDock/src/rDock_2013.1_src/data/scripts/dock_solv.prm

>  <Rbt.Receptor>
prm/pocket_docking_8.prm

>  <SCORE>
-10.1321

>  <SCORE.INTER>
-10.1321

>  <SCORE.INTER.CONST>
1

>  <SCORE.INTER.POLAR>
0

>  <SCORE.INTER.ROT>
0

>  <SCORE.INTER.SOLV>
15.1942

>  <SCORE.INTER.VDW>
-15.4195

>  <SCORE.INTER.norm>
-0.921103

>  <SCORE.INTRA>
0

>  <SCORE.INTRA.DIHEDRAL>
0

>  <SCORE.INTRA.DIHEDRAL.0>
0

>  <SCORE.INTRA.POLAR>
0

>  <SCORE.INTRA.POLAR.0>
0

>  <SCORE.INTRA.REPUL>
0

>  <SCORE.INTRA.REPUL.0>
0

>  <SCORE.INTRA.SOLV>
0

>  <SCORE.INTRA.SOLV.lig_0>
-48.9252

>  <SCORE.INTRA.VDW>
0

>  <SCORE.INTRA.VDW.0>
0

>  <SCORE.INTRA.norm>
0

>  <SCORE.RESTR>
0

>  <SCORE.RESTR.CAVITY>
0

>  <SCORE.RESTR.norm>
0

>  <SCORE.SYSTEM>
0

>  <SCORE.SYSTEM.CONST>
0

>  <SCORE.SYSTEM.DIHEDRAL>
0

>  <SCORE.SYSTEM.SOLV>
0

>  <SCORE.SYSTEM.norm>
0

>  <SCORE.heavy>
11

>  <SCORE.norm>
-0.921103

>  <RMSD>
3.835

$$$$
ligand
 OpenBabel11021811493D
libRbt.so/2013.1/901 2013/11/27
 11 12  0  0  0  0  0  0  0  0999 V2000
   11.8422   10.7905    6.5097 N   0  0  0  0  0  0  0  0  0  0  0  0
   12.5191   10.0801    7.4305 C   0  0  0  0  0  0  0  0  0  0  0  0
   13.0148    8.8287    7.0940 N   0  0  0  0  0  0  0  0  0  0  0  0
   12.7251   10.5540    8.6694 N   0  0  0  0  0  0  0  0  0  0  0  0
   12.2592   11.7561    9.0436 C   0  0  0  0  0  0  0  0  0  0  0  0
   11.5422   12.5447    8.1159 C   0  0  0  0  0  0  0  0  0  0  0  0
   11.3446   12.0108    6.8039 C   0  0  0  0  0  0  0  0  0  0  0  0
   10.6581   12.7234    5.8514 N   0  0  0  0  0  0  0  0  0  0  0  0
   11.1916   13.6984    8.7530 N   0  0  0  0  0  0  0  0  0  0  0  0
   11.6330   13.6630    9.9744 C   0  0  0  0  0  0  0  0  0  0  0  0
   12.3019   12.4876   10.2049 N   0  0  0  0  0  0  0  0  0  0  0  0
  1  7  2  0  0  0  0
  1  2  1  0  0  0  0
  2  3  1  0  0  0  0
  2  4  2  0  0  0  0
  4  5  1  0  0  0  0
  5  6  2  0  0  0  0
  5 11  1  0  0  0  0
  6  7  1  0  0  0  0
  6  9  1  0  0  0  0
  7  8  1  0  0  0  0
  9 10  1  0  0  0  0
 10 11  2  0  0  0  0
M  END
>  <CHROM.1>
11.91560455,11.72097765,8.02484299,1.17357245,1.02551263,-2.18786268

>  <Name>
ligand

>  <RI>
0

>  <Rbt.Current_Directory>
/home/itssahil/PROJECTS/Mol_Feturizer/New_Systems/rnas/4FEO

>  <Rbt.Executable>
rbdock ($Id: //depot/dev/client3/rdock/2013.1/src/exe/rbdock.cxx#4 $)

>  <Rbt.Library>
libRbt.so (2013.1, Build901 2013/11/27)

>  <Rbt.Parameter_File>
/export/apps/rDock/src/rDock_2013.1_src/data/scripts/dock_solv.prm

>  <Rbt.Receptor>
prm/pocket_docking_8.prm

>  <SCORE>
-10.1341

>  <SCORE.INTER>
-10.1341

>  <SCORE.INTER.CONST>
1

>  <SCORE.INTER.POLAR>
0

>  <SCORE.INTER.ROT>
0

>  <SCORE.INTER.SOLV>
15.1738

>  <SCORE.INTER.VDW>
-15.414

>  <SCORE.INTER.norm>
-0.921286

>  <SCORE.INTRA>
0

>  <SCORE.INTRA.DIHEDRAL>
0

>  <SCORE.INTRA.DIHEDRAL.0>
0

>  <SCORE.INTRA.POLAR>
0

>  <SCORE.INTRA.POLAR.0>
0

>  <SCORE.INTRA.REPUL>
0

>  <SCORE.INTRA.REPUL.0>
0

>  <SCORE.INTRA.SOLV>
0

>  <SCORE.INTRA.SOLV.lig_0>
-48.9252

>  <SCORE.INTRA.VDW>
0

>  <SCORE.INTRA.VDW.0>
0

>  <SCORE.INTRA.norm>
0

>  <SCORE.RESTR>
0

>  <SCORE.RESTR.CAVITY>
0

>  <SCORE.RESTR.norm>
0

>  <SCORE.SYSTEM>
0

>  <SCORE.SYSTEM.CONST>
0

>  <SCORE.SYSTEM.DIHEDRAL>
0

>  <SCORE.SYSTEM.SOLV>
0

>  <SCORE.SYSTEM.norm>
0

>  <SCORE.heavy>
11

>  <SCORE.norm>
-0.921286

>  <RMSD>
3.835

$$$$
ligand
 OpenBabel11021811493D
libRbt.so/2013.1/901 2013/11/27
 11 12  0  0  0  0  0  0  0  0999 V2000
   11.8393   10.7777    6.5163 N   0  0  0  0  0  0  0  0  0  0  0  0
   12.5301   10.0766    7.4339 C   0  0  0  0  0  0  0  0  0  0  0  0
   13.0341    8.8283    7.0976 N   0  0  0  0  0  0  0  0  0  0  0  0
   12.7422   10.5567    8.6694 N   0  0  0  0  0  0  0  0  0  0  0  0
   12.2688   11.7559    9.0433 C   0  0  0  0  0  0  0  0  0  0  0  0
   11.5371   12.5348    8.1188 C   0  0  0  0  0  0  0  0  0  0  0  0
   11.3334   11.9945    6.8104 C   0  0  0  0  0  0  0  0  0  0  0  0
   10.6328   12.6977    5.8612 N   0  0  0  0  0  0  0  0  0  0  0  0
   11.1817   13.6877    8.7548 N   0  0  0  0  0  0  0  0  0  0  0  0
   11.6335   13.6605    9.9727 C   0  0  0  0  0  0  0  0  0  0  0  0
   12.3147   12.4919   10.2016 N   0  0  0  0  0  0  0  0  0  0  0  0
  1  7  2  0  0  0  0
  1  2  1  0  0  0  0
  2  3  1  0  0  0  0
  2  4  2  0  0  0  0
  4  5  1  0  0  0  0
  5  6  2  0  0  0  0
  5 11  1  0  0  0  0
  6  7  1  0  0  0  0
  6  9  1  0  0  0  0
  7  8  1  0  0  0  0
  9 10  1  0  0  0  0
 10 11  2  0  0  0  0
M  END
>  <CHROM.1>
11.91709328,11.71413541,8.02754879,1.17670512,1.01347983,-2.19404450

>  <Name>
ligand

>  <RI>
0

>  <Rbt.Current_Directory>
/home/itssahil/PROJECTS/Mol_Feturizer/New_Systems/rnas/4FEO

>  <Rbt.Executable>
rbdock ($Id: //depot/dev/client3/rdock/2013.1/src/exe/rbdock.cxx#4 $)

>  <Rbt.Library>
libRbt.so (2013.1, Build901 2013/11/27)

>  <Rbt.Parameter_File>
/export/apps/rDock/src/rDock_2013.1_src/data/scripts/dock_solv.prm

>  <Rbt.Receptor>
prm/pocket_docking_8.prm

>  <SCORE>
-10.0974

>  <SCORE.INTER>
-10.0974

>  <SCORE.INTER.CONST>
1

>  <SCORE.INTER.POLAR>
0

>  <SCORE.INTER.ROT>
0

>  <SCORE.INTER.SOLV>
15.0829

>  <SCORE.INTER.VDW>
-15.3592

>  <SCORE.INTER.norm>
-0.917941

>  <SCORE.INTRA>
0

>  <SCORE.INTRA.DIHEDRAL>
0

>  <SCORE.INTRA.DIHEDRAL.0>
0

>  <SCORE.INTRA.POLAR>
0

>  <SCORE.INTRA.POLAR.0>
0

>  <SCORE.INTRA.REPUL>
0

>  <SCORE.INTRA.REPUL.0>
0

>  <SCORE.INTRA.SOLV>
0

>  <SCORE.INTRA.SOLV.lig_0>
-48.9252

>  <SCORE.INTRA.VDW>
0

>  <SCORE.INTRA.VDW.0>
0

>  <SCORE.INTRA.norm>
0

>  <SCORE.RESTR>
0

>  <SCORE.RESTR.CAVITY>
0

>  <SCORE.RESTR.norm>
0

>  <SCORE.SYSTEM>
0

>  <SCORE.SYSTEM.CONST>
0

>  <SCORE.SYSTEM.DIHEDRAL>
0

>  <SCORE.SYSTEM.SOLV>
0

>  <SCORE.SYSTEM.norm>
0

>  <SCORE.heavy>
11

>  <SCORE.norm>
-0.917941

>  <RMSD>
3.835

$$$$
ligand
 OpenBabel11021811493D
libRbt.so/2013.1/901 2013/11/27
 11 12  0  0  0  0  0  0  0  0999 V2000
   11.8552   10.7896    6.5104 N   0  0  0  0  0  0  0  0  0  0  0  0
   12.5285   10.0795    7.4340 C   0  0  0  0  0  0  0  0  0  0  0  0
   13.0251    8.8277    7.0999 N   0  0  0  0  0  0  0  0  0  0  0  0
   12.7300   10.5539    8.6734 N   0  0  0  0  0  0  0  0  0  0  0  0
   12.2631   11.7563    9.0454 C   0  0  0  0  0  0  0  0  0  0  0  0
   11.5498   12.5446    8.1146 C   0  0  0  0  0  0  0  0  0  0  0  0
   11.3569   12.0101    6.8022 C   0  0  0  0  0  0  0  0  0  0  0  0
   10.6742   12.7225    5.8467 N   0  0  0  0  0  0  0  0  0  0  0  0
   11.1972   13.6988    8.7498 N   0  0  0  0  0  0  0  0  0  0  0  0
   11.6340   13.6639    9.9729 C   0  0  0  0  0  0  0  0  0  0  0  0
   12.3017   12.4883   10.2064 N   0  0  0  0  0  0  0  0  0  0  0  0
  1  7  2  0  0  0  0
  1  2  1  0  0  0  0
  2  3  1  0  0  0  0
  2  4  2  0  0  0  0
  4  5  1  0  0  0  0
  5  6  2  0  0  0  0
  5 11  1  0  0  0  0
  6  7  1  0  0  0  0
  6  9  1  0  0  0  0
  7  8  1  0  0  0  0
  9 10  1  0  0  0  0
 10 11  2  0  0  0  0
M  END
>  <CHROM.1>
11.92330350,11.72077811,8.02533995,1.16803540,1.02789162,-2.18360584

>  <Name>
ligand

>  <RI>
0

>  <Rbt.Current_Directory>
/home/itssahil/PROJECTS/Mol_Feturizer/New_Systems/rnas/4FEO

>  <Rbt.Executable>
rbdock ($Id: //depot/dev/client3/rdock/2013.1/src/exe/rbdock.cxx#4 $)

>  <Rbt.Library>
libRbt.so (2013.1, Build901 2013/11/27)

>  <Rbt.Parameter_File>
/export/apps/rDock/src/rDock_2013.1_src/data/scripts/dock_solv.prm

>  <Rbt.Receptor>
prm/pocket_docking_8.prm

>  <SCORE>
-10.1322

>  <SCORE.INTER>
-10.1322

>  <SCORE.INTER.CONST>
1

>  <SCORE.INTER.POLAR>
0

>  <SCORE.INTER.ROT>
0

>  <SCORE.INTER.SOLV>
15.1856

>  <SCORE.INTER.VDW>
-15.4167

>  <SCORE.INTER.norm>
-0.921111

>  <SCORE.INTRA>
0

>  <SCORE.INTRA.DIHEDRAL>
0

>  <SCORE.INTRA.DIHEDRAL.0>
0

>  <SCORE.INTRA.POLAR>
0

>  <SCORE.INTRA.POLAR.0>
0

>  <SCORE.INTRA.REPUL>
0

>  <SCORE.INTRA.REPUL.0>
0

>  <SCORE.INTRA.SOLV>
0

>  <SCORE.INTRA.SOLV.lig_0>
-48.9252

>  <SCORE.INTRA.VDW>
0

>  <SCORE.INTRA.VDW.0>
0

>  <SCORE.INTRA.norm>
0

>  <SCORE.RESTR>
0

>  <SCORE.RESTR.CAVITY>
0

>  <SCORE.RESTR.norm>
0

>  <SCORE.SYSTEM>
0

>  <SCORE.SYSTEM.CONST>
0

>  <SCORE.SYSTEM.DIHEDRAL>
0

>  <SCORE.SYSTEM.SOLV>
0

>  <SCORE.SYSTEM.norm>
0

>  <SCORE.heavy>
11

>  <SCORE.norm>
-0.921111

>  <RMSD>
3.835

$$$$
ligand
 OpenBabel11021811493D
libRbt.so/2013.1/901 2013/11/27
 11 12  0  0  0  0  0  0  0  0999 V2000
   11.8554   10.7928    6.5099 N   0  0  0  0  0  0  0  0  0  0  0  0
   12.5259   10.0808    7.4341 C   0  0  0  0  0  0  0  0  0  0  0  0
   13.0208    8.8284    7.0998 N   0  0  0  0  0  0  0  0  0  0  0  0
   12.7262   10.5539    8.6742 N   0  0  0  0  0  0  0  0  0  0  0  0
   12.2608   11.7568    9.0463 C   0  0  0  0  0  0  0  0  0  0  0  0
   11.5503   12.5471    8.1150 C   0  0  0  0  0  0  0  0  0  0  0  0
   11.3587   12.0140    6.8018 C   0  0  0  0  0  0  0  0  0  0  0  0
   10.6788   12.7283    5.8458 N   0  0  0  0  0  0  0  0  0  0  0  0
   11.1987   13.7014    8.7506 N   0  0  0  0  0  0  0  0  0  0  0  0
   11.6334   13.6647    9.9744 C   0  0  0  0  0  0  0  0  0  0  0  0
   12.2987   12.4878   10.2080 N   0  0  0  0  0  0  0  0  0  0  0  0
  1  7  2  0  0  0  0
  1  2  1  0  0  0  0
  2  3  1  0  0  0  0
  2  4  2  0  0  0  0
  4  5  1  0  0  0  0
  5  6  2  0  0  0  0
  5 11  1  0  0  0  0
  6  7  1  0  0  0  0
  6  9  1  0  0  0  0
  7  8  1  0  0  0  0
  9 10  1  0  0  0  0
 10 11  2  0  0  0  0
M  END
>  <CHROM.1>
11.92255215,11.72267871,8.02570781,1.16734133,1.03028817,-2.18221485

>  <Name>
ligand

>  <RI>
0

>  <Rbt.Current_Directory>
/home/itssahil/PROJECTS/Mol_Feturizer/New_Systems/rnas/4FEO

>  <Rbt.Executable>
rbdock ($Id: //depot/dev/client3/rdock/2013.1/src/exe/rbdock.cxx#4 $)

>  <Rbt.Library>
libRbt.so (2013.1, Build901 2013/11/27)

>  <Rbt.Parameter_File>
/export/apps/rDock/src/rDock_2013.1_src/data/scripts/dock_solv.prm

>  <Rbt.Receptor>
prm/pocket_docking_8.prm

>  <SCORE>
-10.1305

>  <SCORE.INTER>
-10.1305

>  <SCORE.INTER.CONST>
1

>  <SCORE.INTER.POLAR>
0

>  <SCORE.INTER.ROT>
0

>  <SCORE.INTER.SOLV>
15.2023

>  <SCORE.INTER.VDW>
-15.4211

>  <SCORE.INTER.norm>
-0.920958

>  <SCORE.INTRA>
0

>  <SCORE.INTRA.DIHEDRAL>
0

>  <SCORE.INTRA.DIHEDRAL.0>
0

>  <SCORE.INTRA.POLAR>
0

>  <SCORE.INTRA.POLAR.0>
0

>  <SCORE.INTRA.REPUL>
0

>  <SCORE.INTRA.REPUL.0>
0

>  <SCORE.INTRA.SOLV>
0

>  <SCORE.INTRA.SOLV.lig_0>
-48.9252

>  <SCORE.INTRA.VDW>
0

>  <SCORE.INTRA.VDW.0>
0

>  <SCORE.INTRA.norm>
0

>  <SCORE.RESTR>
0

>  <SCORE.RESTR.CAVITY>
0

>  <SCORE.RESTR.norm>
0

>  <SCORE.SYSTEM>
0

>  <SCORE.SYSTEM.CONST>
0

>  <SCORE.SYSTEM.DIHEDRAL>
0

>  <SCORE.SYSTEM.SOLV>
0

>  <SCORE.SYSTEM.norm>
0

>  <SCORE.heavy>
11

>  <SCORE.norm>
-0.920958

>  <RMSD>
3.835

$$$$
ligand
 OpenBabel11021811493D
libRbt.so/2013.1/901 2013/11/27
 11 12  0  0  0  0  0  0  0  0999 V2000
   11.8557   10.7918    6.5092 N   0  0  0  0  0  0  0  0  0  0  0  0
   12.4961   10.0657    7.4437 C   0  0  0  0  0  0  0  0  0  0  0  0
   12.9858    8.8106    7.1117 N   0  0  0  0  0  0  0  0  0  0  0  0
   12.6713   10.5272    8.6920 N   0  0  0  0  0  0  0  0  0  0  0  0
   12.2097   11.7322    9.0621 C   0  0  0  0  0  0  0  0  0  0  0  0
   11.5304   12.5371    8.1201 C   0  0  0  0  0  0  0  0  0  0  0  0
   11.3650   12.0160    6.7986 C   0  0  0  0  0  0  0  0  0  0  0  0
   10.7160   12.7448    5.8321 N   0  0  0  0  0  0  0  0  0  0  0  0
   11.1757   13.6902    8.7561 N   0  0  0  0  0  0  0  0  0  0  0  0
   11.5802   13.6396    9.9897 C   0  0  0  0  0  0  0  0  0  0  0  0
   12.2272   12.4539   10.2301 N   0  0  0  0  0  0  0  0  0  0  0  0
  1  7  2  0  0  0  0
  1  2  1  0  0  0  0
  2  3  1  0  0  0  0
  2  4  2  0  0  0  0
  4  5  1  0  0  0  0
  5  6  2  0  0  0  0
  5 11  1  0  0  0  0
  6  7  1  0  0  0  0
  6  9  1  0  0  0  0
  7  8  1  0  0  0  0
  9 10  1  0  0  0  0
 10 11  2  0  0  0  0
M  END
>  <CHROM.1>
11.89597188,11.70940664,8.03341669,1.13950831,1.05263585,-2.15048501

>  <Name>
ligand

>  <RI>
0

>  <Rbt.Current_Directory>
/home/itssahil/PROJECTS/Mol_Feturizer/New_Systems/rnas/4FEO

>  <Rbt.Executable>
rbdock ($Id: //depot/dev/client3/rdock/2013.1/src/exe/rbdock.cxx#4 $)

>  <Rbt.Library>
libRbt.so (2013.1, Build901 2013/11/27)

>  <Rbt.Parameter_File>
/export/apps/rDock/src/rDock_2013.1_src/data/scripts/dock_solv.prm

>  <Rbt.Receptor>
prm/blind_docking_100.prm

>  <SCORE>
-10.0619

>  <SCORE.INTER>
-10.0619

>  <SCORE.INTER.CONST>
1

>  <SCORE.INTER.POLAR>
0

>  <SCORE.INTER.ROT>
0

>  <SCORE.INTER.SOLV>
15.3695

>  <SCORE.INTER.VDW>
-15.4311

>  <SCORE.INTER.norm>
-0.914716

>  <SCORE.INTRA>
0

>  <SCORE.INTRA.DIHEDRAL>
0

>  <SCORE.INTRA.DIHEDRAL.0>
0

>  <SCORE.INTRA.POLAR>
0

>  <SCORE.INTRA.POLAR.0>
0

>  <SCORE.INTRA.REPUL>
0

>  <SCORE.INTRA.REPUL.0>
0

>  <SCORE.INTRA.SOLV>
0

>  <SCORE.INTRA.SOLV.lig_0>
-48.9252

>  <SCORE.INTRA.VDW>
0

>  <SCORE.INTRA.VDW.0>
0

>  <SCORE.INTRA.norm>
0

>  <SCORE.RESTR>
0

>  <SCORE.RESTR.CAVITY>
0

>  <SCORE.RESTR.norm>
0

>  <SCORE.SYSTEM>
0

>  <SCORE.SYSTEM.CONST>
0

>  <SCORE.SYSTEM.DIHEDRAL>
0

>  <SCORE.SYSTEM.SOLV>
0

>  <SCORE.SYSTEM.norm>
0

>  <SCORE.heavy>
11

>  <SCORE.norm>
-0.914716

>  <RMSD>
3.836

$$$$
ligand
 OpenBabel11021811493D
libRbt.so/2013.1/901 2013/11/27
 11 12  0  0  0  0  0  0  0  0999 V2000
   11.8750   10.7865    6.5068 N   0  0  0  0  0  0  0  0  0  0  0  0
   12.5386   10.0727    7.4347 C   0  0  0  0  0  0  0  0  0  0  0  0
   13.0348    8.8204    7.1022 N   0  0  0  0  0  0  0  0  0  0  0  0
   12.7306   10.5440    8.6768 N   0  0  0  0  0  0  0  0  0  0  0  0
   12.2635   11.7468    9.0473 C   0  0  0  0  0  0  0  0  0  0  0  0
   11.5602   12.5389    8.1121 C   0  0  0  0  0  0  0  0  0  0  0  0
   11.3773   12.0077    6.7969 C   0  0  0  0  0  0  0  0  0  0  0  0
   10.7046   12.7238    5.8372 N   0  0  0  0  0  0  0  0  0  0  0  0
   11.2051   13.6926    8.7467 N   0  0  0  0  0  0  0  0  0  0  0  0
   11.6312   13.6540    9.9734 C   0  0  0  0  0  0  0  0  0  0  0  0
   12.2940   12.4763   10.2102 N   0  0  0  0  0  0  0  0  0  0  0  0
  1  7  2  0  0  0  0
  1  2  1  0  0  0  0
  2  3  1  0  0  0  0
  2  4  2  0  0  0  0
  4  5  1  0  0  0  0
  5  6  2  0  0  0  0
  5 11  1  0  0  0  0
  6  7  1  0  0  0  0
  6  9  1  0  0  0  0
  7  8  1  0  0  0  0
  9 10  1  0  0  0  0
 10 11  2  0  0  0  0
M  END
>  <CHROM.1>
11.93239797,11.71429797,8.02428614,1.15708104,1.03487142,-2.17208481

>  <Name>
ligand

>  <RI>
0

>  <Rbt.Current_Directory>
/home/itssahil/PROJECTS/Mol_Feturizer/New_Systems/rnas/4FEO

>  <Rbt.Executable>
rbdock ($Id: //depot/dev/client3/rdock/2013.1/src/exe/rbdock.cxx#4 $)

>  <Rbt.Library>
libRbt.so (2013.1, Build901 2013/11/27)

>  <Rbt.Parameter_File>
/export/apps/rDock/src/rDock_2013.1_src/data/scripts/dock_solv.prm

>  <Rbt.Receptor>
prm/blind_docking_60.prm

>  <SCORE>
-10.1192

>  <SCORE.INTER>
-10.1192

>  <SCORE.INTER.CONST>
1

>  <SCORE.INTER.POLAR>
0

>  <SCORE.INTER.ROT>
0

>  <SCORE.INTER.SOLV>
15.2401

>  <SCORE.INTER.VDW>
-15.4261

>  <SCORE.INTER.norm>
-0.919924

>  <SCORE.INTRA>
0

>  <SCORE.INTRA.DIHEDRAL>
0

>  <SCORE.INTRA.DIHEDRAL.0>
0

>  <SCORE.INTRA.POLAR>
0

>  <SCORE.INTRA.POLAR.0>
0

>  <SCORE.INTRA.REPUL>
0

>  <SCORE.INTRA.REPUL.0>
0

>  <SCORE.INTRA.SOLV>
0

>  <SCORE.INTRA.SOLV.lig_0>
-48.9252

>  <SCORE.INTRA.VDW>
0

>  <SCORE.INTRA.VDW.0>
0

>  <SCORE.INTRA.norm>
0

>  <SCORE.RESTR>
0

>  <SCORE.RESTR.CAVITY>
0

>  <SCORE.RESTR.norm>
0

>  <SCORE.SYSTEM>
0

>  <SCORE.SYSTEM.CONST>
0

>  <SCORE.SYSTEM.DIHEDRAL>
0

>  <SCORE.SYSTEM.SOLV>
0

>  <SCORE.SYSTEM.norm>
0

>  <SCORE.heavy>
11

>  <SCORE.norm>
-0.919924

>  <RMSD>
3.836

$$$$
ligand
 OpenBabel11021811493D
libRbt.so/2013.1/901 2013/11/27
 11 12  0  0  0  0  0  0  0  0999 V2000
   11.8349   10.7825    6.5134 N   0  0  0  0  0  0  0  0  0  0  0  0
   12.5206   10.0765    7.4311 C   0  0  0  0  0  0  0  0  0  0  0  0
   13.0209    8.8273    7.0929 N   0  0  0  0  0  0  0  0  0  0  0  0
   12.7311   10.5527    8.6683 N   0  0  0  0  0  0  0  0  0  0  0  0
   12.2611   11.7527    9.0440 C   0  0  0  0  0  0  0  0  0  0  0  0
   11.5348   12.5366    8.1196 C   0  0  0  0  0  0  0  0  0  0  0  0
   11.3326   12.0004    6.8093 C   0  0  0  0  0  0  0  0  0  0  0  0
   10.6371   12.7085    5.8600 N   0  0  0  0  0  0  0  0  0  0  0  0
   11.1818   13.6891    8.7576 N   0  0  0  0  0  0  0  0  0  0  0  0
   11.6302   13.6573    9.9766 C   0  0  0  0  0  0  0  0  0  0  0  0
   12.3066   12.4855   10.2044 N   0  0  0  0  0  0  0  0  0  0  0  0
  1  7  2  0  0  0  0
  1  2  1  0  0  0  0
  2  3  1  0  0  0  0
  2  4  2  0  0  0  0
  4  5  1  0  0  0  0
  5  6  2  0  0  0  0
  5 11  1  0  0  0  0
  6  7  1  0  0  0  0
  6  9  1  0  0  0  0
  7  8  1  0  0  0  0
  9 10  1  0  0  0  0
 10 11  2  0  0  0  0
M  END
>  <CHROM.1>
11.91197495,11.71476540,8.02726589,1.17659296,1.01800462,-2.19140519

>  <Name>
ligand

>  <RI>
0

>  <Rbt.Current_Directory>
/home/itssahil/PROJECTS/Mol_Feturizer/New_Systems/rnas/4FEO

>  <Rbt.Executable>
rbdock ($Id: //depot/dev/client3/rdock/2013.1/src/exe/rbdock.cxx#4 $)

>  <Rbt.Library>
libRbt.so (2013.1, Build901 2013/11/27)

>  <Rbt.Parameter_File>
/export/apps/rDock/src/rDock_2013.1_src/data/scripts/dock_solv.prm

>  <Rbt.Receptor>
prm/pocket_docking_4.prm

>  <SCORE>
-10.131

>  <SCORE.INTER>
-10.131

>  <SCORE.INTER.CONST>
1

>  <SCORE.INTER.POLAR>
0

>  <SCORE.INTER.ROT>
0

>  <SCORE.INTER.SOLV>
15.1188

>  <SCORE.INTER.VDW>
-15.3936

>  <SCORE.INTER.norm>
-0.921005

>  <SCORE.INTRA>
0

>  <SCORE.INTRA.DIHEDRAL>
0

>  <SCORE.INTRA.DIHEDRAL.0>
0

>  <SCORE.INTRA.POLAR>
0

>  <SCORE.INTRA.POLAR.0>
0

>  <SCORE.INTRA.REPUL>
0

>  <SCORE.INTRA.REPUL.0>
0

>  <SCORE.INTRA.SOLV>
0

>  <SCORE.INTRA.SOLV.lig_0>
-48.9252

>  <SCORE.INTRA.VDW>
0

>  <SCORE.INTRA.VDW.0>
0

>  <SCORE.INTRA.norm>
0

>  <SCORE.RESTR>
0

>  <SCORE.RESTR.CAVITY>
0

>  <SCORE.RESTR.norm>
0

>  <SCORE.SYSTEM>
0

>  <SCORE.SYSTEM.CONST>
0

>  <SCORE.SYSTEM.DIHEDRAL>
0

>  <SCORE.SYSTEM.SOLV>
0

>  <SCORE.SYSTEM.norm>
0

>  <SCORE.heavy>
11

>  <SCORE.norm>
-0.921005

>  <RMSD>
3.836

$$$$
ligand
 OpenBabel11021811493D
libRbt.so/2013.1/901 2013/11/27
 11 12  0  0  0  0  0  0  0  0999 V2000
   11.8402   10.7897    6.5058 N   0  0  0  0  0  0  0  0  0  0  0  0
   12.5124   10.0763    7.4277 C   0  0  0  0  0  0  0  0  0  0  0  0
   13.0043    8.8232    7.0917 N   0  0  0  0  0  0  0  0  0  0  0  0
   12.7174   10.5489    8.6674 N   0  0  0  0  0  0  0  0  0  0  0  0
   12.2551   11.7525    9.0412 C   0  0  0  0  0  0  0  0  0  0  0  0
   11.5430   12.5441    8.1122 C   0  0  0  0  0  0  0  0  0  0  0  0
   11.3464   12.0116    6.7996 C   0  0  0  0  0  0  0  0  0  0  0  0
   10.6647   12.7272    5.8459 N   0  0  0  0  0  0  0  0  0  0  0  0
   11.1952   13.6988    8.7491 N   0  0  0  0  0  0  0  0  0  0  0  0
   11.6337   13.6612    9.9715 C   0  0  0  0  0  0  0  0  0  0  0  0
   12.2979   12.4832   10.2029 N   0  0  0  0  0  0  0  0  0  0  0  0
  1  7  2  0  0  0  0
  1  2  1  0  0  0  0
  2  3  1  0  0  0  0
  2  4  2  0  0  0  0
  4  5  1  0  0  0  0
  5  6  2  0  0  0  0
  5 11  1  0  0  0  0
  6  7  1  0  0  0  0
  6  9  1  0  0  0  0
  7  8  1  0  0  0  0
  9 10  1  0  0  0  0
 10 11  2  0  0  0  0
M  END
>  <CHROM.1>
11.91360891,11.71907256,8.02160687,1.17413460,1.02978020,-2.18783441

>  <Name>
ligand

>  <RI>
0

>  <Rbt.Current_Directory>
/home/itssahil/PROJECTS/Mol_Feturizer/New_Systems/rnas/4FEO

>  <Rbt.Executable>
rbdock ($Id: //depot/dev/client3/rdock/2013.1/src/exe/rbdock.cxx#4 $)

>  <Rbt.Library>
libRbt.so (2013.1, Build901 2013/11/27)

>  <Rbt.Parameter_File>
/export/apps/rDock/src/rDock_2013.1_src/data/scripts/dock_solv.prm

>  <Rbt.Receptor>
prm/pocket_docking_6.prm

>  <SCORE>
-10.1289

>  <SCORE.INTER>
-10.1289

>  <SCORE.INTER.CONST>
1

>  <SCORE.INTER.POLAR>
0

>  <SCORE.INTER.ROT>
0

>  <SCORE.INTER.SOLV>
15.2364

>  <SCORE.INTER.VDW>
-15.4314

>  <SCORE.INTER.norm>
-0.92081

>  <SCORE.INTRA>
0

>  <SCORE.INTRA.DIHEDRAL>
0

>  <SCORE.INTRA.DIHEDRAL.0>
0

>  <SCORE.INTRA.POLAR>
0

>  <SCORE.INTRA.POLAR.0>
0

>  <SCORE.INTRA.REPUL>
0

>  <SCORE.INTRA.REPUL.0>
0

>  <SCORE.INTRA.SOLV>
0

>  <SCORE.INTRA.SOLV.lig_0>
-48.9252

>  <SCORE.INTRA.VDW>
0

>  <SCORE.INTRA.VDW.0>
0

>  <SCORE.INTRA.norm>
0

>  <SCORE.RESTR>
0

>  <SCORE.RESTR.CAVITY>
0

>  <SCORE.RESTR.norm>
0

>  <SCORE.SYSTEM>
0

>  <SCORE.SYSTEM.CONST>
0

>  <SCORE.SYSTEM.DIHEDRAL>
0

>  <SCORE.SYSTEM.SOLV>
0

>  <SCORE.SYSTEM.norm>
0

>  <SCORE.heavy>
11

>  <SCORE.norm>
-0.92081

>  <RMSD>
3.836

$$$$
ligand
 OpenBabel11021811493D
libRbt.so/2013.1/901 2013/11/27
 11 12  0  0  0  0  0  0  0  0999 V2000
   11.8454   10.7937    6.5097 N   0  0  0  0  0  0  0  0  0  0  0  0
   12.5180   10.0808    7.4317 C   0  0  0  0  0  0  0  0  0  0  0  0
   13.0119    8.8286    7.0953 N   0  0  0  0  0  0  0  0  0  0  0  0
   12.7213   10.5529    8.6717 N   0  0  0  0  0  0  0  0  0  0  0  0
   12.2570   11.7556    9.0459 C   0  0  0  0  0  0  0  0  0  0  0  0
   11.5444   12.5467    8.1168 C   0  0  0  0  0  0  0  0  0  0  0  0
   11.3496   12.0147    6.8037 C   0  0  0  0  0  0  0  0  0  0  0  0
   10.6676   12.7299    5.8499 N   0  0  0  0  0  0  0  0  0  0  0  0
   11.1945   13.7006    8.7542 N   0  0  0  0  0  0  0  0  0  0  0  0
   11.6321   13.6629    9.9769 C   0  0  0  0  0  0  0  0  0  0  0  0
   12.2978   12.4857   10.2081 N   0  0  0  0  0  0  0  0  0  0  0  0
  1  7  2  0  0  0  0
  1  2  1  0  0  0  0
  2  3  1  0  0  0  0
  2  4  2  0  0  0  0
  4  5  1  0  0  0  0
  5  6  2  0  0  0  0
  5 11  1  0  0  0  0
  6  7  1  0  0  0  0
  6  9  1  0  0  0  0
  7  8  1  0  0  0  0
  9 10  1  0  0  0  0
 10 11  2  0  0  0  0
M  END
>  <CHROM.1>
11.91633731,11.72232552,8.02605371,1.17128819,1.02904680,-2.18481613

>  <Name>
ligand

>  <RI>
0

>  <Rbt.Current_Directory>
/home/itssahil/PROJECTS/Mol_Feturizer/New_Systems/rnas/4FEO

>  <Rbt.Executable>
rbdock ($Id: //depot/dev/client3/rdock/2013.1/src/exe/rbdock.cxx#4 $)

>  <Rbt.Library>
libRbt.so (2013.1, Build901 2013/11/27)

>  <Rbt.Parameter_File>
/export/apps/rDock/src/rDock_2013.1_src/data/scripts/dock_solv.prm

>  <Rbt.Receptor>
prm/pocket_docking_7.prm

>  <SCORE>
-10.1322

>  <SCORE.INTER>
-10.1322

>  <SCORE.INTER.CONST>
1

>  <SCORE.INTER.POLAR>
0

>  <SCORE.INTER.ROT>
0

>  <SCORE.INTER.SOLV>
15.1943

>  <SCORE.INTER.VDW>
-15.4196

>  <SCORE.INTER.norm>
-0.921107

>  <SCORE.INTRA>
0

>  <SCORE.INTRA.DIHEDRAL>
0

>  <SCORE.INTRA.DIHEDRAL.0>
0

>  <SCORE.INTRA.POLAR>
0

>  <SCORE.INTRA.POLAR.0>
0

>  <SCORE.INTRA.REPUL>
0

>  <SCORE.INTRA.REPUL.0>
0

>  <SCORE.INTRA.SOLV>
0

>  <SCORE.INTRA.SOLV.lig_0>
-48.9252

>  <SCORE.INTRA.VDW>
0

>  <SCORE.INTRA.VDW.0>
0

>  <SCORE.INTRA.norm>
0

>  <SCORE.RESTR>
0

>  <SCORE.RESTR.CAVITY>
0

>  <SCORE.RESTR.norm>
0

>  <SCORE.SYSTEM>
0

>  <SCORE.SYSTEM.CONST>
0

>  <SCORE.SYSTEM.DIHEDRAL>
0

>  <SCORE.SYSTEM.SOLV>
0

>  <SCORE.SYSTEM.norm>
0

>  <SCORE.heavy>
11

>  <SCORE.norm>
-0.921107

>  <RMSD>
3.836

$$$$
ligand
 OpenBabel11021811493D
libRbt.so/2013.1/901 2013/11/27
 11 12  0  0  0  0  0  0  0  0999 V2000
   11.8399   10.7973    6.5094 N   0  0  0  0  0  0  0  0  0  0  0  0
   12.5132   10.0826    7.4295 C   0  0  0  0  0  0  0  0  0  0  0  0
   13.0067    8.8310    7.0904 N   0  0  0  0  0  0  0  0  0  0  0  0
   12.7177   10.5525    8.6703 N   0  0  0  0  0  0  0  0  0  0  0  0
   12.2538   11.7546    9.0470 C   0  0  0  0  0  0  0  0  0  0  0  0
   11.5405   12.5474    8.1200 C   0  0  0  0  0  0  0  0  0  0  0  0
   11.3445   12.0178    6.8061 C   0  0  0  0  0  0  0  0  0  0  0  0
   10.6617   12.7348    5.8542 N   0  0  0  0  0  0  0  0  0  0  0  0
   11.1913   13.7001    8.7598 N   0  0  0  0  0  0  0  0  0  0  0  0
   11.6299   13.6602    9.9820 C   0  0  0  0  0  0  0  0  0  0  0  0
   12.2957   12.4825   10.2105 N   0  0  0  0  0  0  0  0  0  0  0  0
  1  7  2  0  0  0  0
  1  2  1  0  0  0  0
  2  3  1  0  0  0  0
  2  4  2  0  0  0  0
  4  5  1  0  0  0  0
  5  6  2  0  0  0  0
  5 11  1  0  0  0  0
  6  7  1  0  0  0  0
  6  9  1  0  0  0  0
  7  8  1  0  0  0  0
  9 10  1  0  0  0  0
 10 11  2  0  0  0  0
M  END
>  <CHROM.1>
11.91223143,11.72315353,8.02739908,1.17278502,1.02861886,-2.18427651

>  <Name>
ligand

>  <RI>
0

>  <Rbt.Current_Directory>
/home/itssahil/PROJECTS/Mol_Feturizer/New_Systems/rnas/4FEO

>  <Rbt.Executable>
rbdock ($Id: //depot/dev/client3/rdock/2013.1/src/exe/rbdock.cxx#4 $)

>  <Rbt.Library>
libRbt.so (2013.1, Build901 2013/11/27)

>  <Rbt.Parameter_File>
/export/apps/rDock/src/rDock_2013.1_src/data/scripts/dock_solv.prm

>  <Rbt.Receptor>
prm/blind_docking_60.prm

>  <SCORE>
-10.1254

>  <SCORE.INTER>
-10.1254

>  <SCORE.INTER.CONST>
1

>  <SCORE.INTER.POLAR>
0

>  <SCORE.INTER.ROT>
0

>  <SCORE.INTER.SOLV>
15.1926

>  <SCORE.INTER.VDW>
-15.4145

>  <SCORE.INTER.norm>
-0.920491

>  <SCORE.INTRA>
0

>  <SCORE.INTRA.DIHEDRAL>
0

>  <SCORE.INTRA.DIHEDRAL.0>
0

>  <SCORE.INTRA.POLAR>
0

>  <SCORE.INTRA.POLAR.0>
0

>  <SCORE.INTRA.REPUL>
0

>  <SCORE.INTRA.REPUL.0>
0

>  <SCORE.INTRA.SOLV>
0

>  <SCORE.INTRA.SOLV.lig_0>
-48.9252

>  <SCORE.INTRA.VDW>
0

>  <SCORE.INTRA.VDW.0>
0

>  <SCORE.INTRA.norm>
0

>  <SCORE.RESTR>
0

>  <SCORE.RESTR.CAVITY>
0

>  <SCORE.RESTR.norm>
0

>  <SCORE.SYSTEM>
0

>  <SCORE.SYSTEM.CONST>
0

>  <SCORE.SYSTEM.DIHEDRAL>
0

>  <SCORE.SYSTEM.SOLV>
0

>  <SCORE.SYSTEM.norm>
0

>  <SCORE.heavy>
11

>  <SCORE.norm>
-0.920491

>  <RMSD>
3.837

$$$$
ligand
 OpenBabel11021811493D
libRbt.so/2013.1/901 2013/11/27
 11 12  0  0  0  0  0  0  0  0999 V2000
   11.8666   10.7860    6.5167 N   0  0  0  0  0  0  0  0  0  0  0  0
   12.5439   10.0782    7.4392 C   0  0  0  0  0  0  0  0  0  0  0  0
   13.0477    8.8298    7.1030 N   0  0  0  0  0  0  0  0  0  0  0  0
   12.7426   10.5517    8.6794 N   0  0  0  0  0  0  0  0  0  0  0  0
   12.2687   11.7507    9.0533 C   0  0  0  0  0  0  0  0  0  0  0  0
   11.5509   12.5365    8.1238 C   0  0  0  0  0  0  0  0  0  0  0  0
   11.3613   12.0032    6.8105 C   0  0  0  0  0  0  0  0  0  0  0  0
   10.6746   12.7132    5.8562 N   0  0  0  0  0  0  0  0  0  0  0  0
   11.1917   13.6875    8.7610 N   0  0  0  0  0  0  0  0  0  0  0  0
   11.6285   13.6530    9.9841 C   0  0  0  0  0  0  0  0  0  0  0  0
   12.3030   12.4810   10.2157 N   0  0  0  0  0  0  0  0  0  0  0  0
  1  7  2  0  0  0  0
  1  2  1  0  0  0  0
  2  3  1  0  0  0  0
  2  4  2  0  0  0  0
  4  5  1  0  0  0  0
  5  6  2  0  0  0  0
  5 11  1  0  0  0  0
  6  7  1  0  0  0  0
  6  9  1  0  0  0  0
  7  8  1  0  0  0  0
  9 10  1  0  0  0  0
 10 11  2  0  0  0  0
M  END
>  <CHROM.1>
11.92919977,11.71496369,8.03322627,1.16152585,1.02324409,-2.17634049

>  <Name>
ligand

>  <RI>
0

>  <Rbt.Current_Directory>
/home/itssahil/PROJECTS/Mol_Feturizer/New_Systems/rnas/4FEO

>  <Rbt.Executable>
rbdock ($Id: //depot/dev/client3/rdock/2013.1/src/exe/rbdock.cxx#4 $)

>  <Rbt.Library>
libRbt.so (2013.1, Build901 2013/11/27)

>  <Rbt.Parameter_File>
/export/apps/rDock/src/rDock_2013.1_src/data/scripts/dock_solv.prm

>  <Rbt.Receptor>
prm/pocket_docking_4.prm

>  <SCORE>
-10.1282

>  <SCORE.INTER>
-10.1282

>  <SCORE.INTER.CONST>
1

>  <SCORE.INTER.POLAR>
0

>  <SCORE.INTER.ROT>
0

>  <SCORE.INTER.SOLV>
15.1001

>  <SCORE.INTER.VDW>
-15.3855

>  <SCORE.INTER.norm>
-0.920748

>  <SCORE.INTRA>
0

>  <SCORE.INTRA.DIHEDRAL>
0

>  <SCORE.INTRA.DIHEDRAL.0>
0

>  <SCORE.INTRA.POLAR>
0

>  <SCORE.INTRA.POLAR.0>
0

>  <SCORE.INTRA.REPUL>
0

>  <SCORE.INTRA.REPUL.0>
0

>  <SCORE.INTRA.SOLV>
0

>  <SCORE.INTRA.SOLV.lig_0>
-48.9252

>  <SCORE.INTRA.VDW>
0

>  <SCORE.INTRA.VDW.0>
0

>  <SCORE.INTRA.norm>
0

>  <SCORE.RESTR>
0

>  <SCORE.RESTR.CAVITY>
0

>  <SCORE.RESTR.norm>
0

>  <SCORE.SYSTEM>
0

>  <SCORE.SYSTEM.CONST>
0

>  <SCORE.SYSTEM.DIHEDRAL>
0

>  <SCORE.SYSTEM.SOLV>
0

>  <SCORE.SYSTEM.norm>
0

>  <SCORE.heavy>
11

>  <SCORE.norm>
-0.920748

>  <RMSD>
3.837

$$$$
ligand
 OpenBabel11021811493D
libRbt.so/2013.1/901 2013/11/27
 11 12  0  0  0  0  0  0  0  0999 V2000
   11.8853   10.7200    6.5177 N   0  0  0  0  0  0  0  0  0  0  0  0
   12.5898   10.0346    7.4367 C   0  0  0  0  0  0  0  0  0  0  0  0
   13.1185    8.7960    7.1030 N   0  0  0  0  0  0  0  0  0  0  0  0
   12.7922   10.5214    8.6712 N   0  0  0  0  0  0  0  0  0  0  0  0
   12.2951   11.7117    9.0427 C   0  0  0  0  0  0  0  0  0  0  0  0
   11.5482   12.4740    8.1166 C   0  0  0  0  0  0  0  0  0  0  0  0
   11.3553   11.9272    6.8093 C   0  0  0  0  0  0  0  0  0  0  0  0
   10.6410   12.6144    5.8586 N   0  0  0  0  0  0  0  0  0  0  0  0
   11.1699   13.6209    8.7502 N   0  0  0  0  0  0  0  0  0  0  0  0
   11.6219   13.6052    9.9681 C   0  0  0  0  0  0  0  0  0  0  0  0
   12.3262   12.4508   10.1995 N   0  0  0  0  0  0  0  0  0  0  0  0
  1  7  2  0  0  0  0
  1  2  1  0  0  0  0
  2  3  1  0  0  0  0
  2  4  2  0  0  0  0
  4  5  1  0  0  0  0
  5  6  2  0  0  0  0
  5 11  1  0  0  0  0
  6  7  1  0  0  0  0
  6  9  1  0  0  0  0
  7  8  1  0  0  0  0
  9 10  1  0  0  0  0
 10 11  2  0  0  0  0
M  END
>  <CHROM.1>
11.94434902,11.66088919,8.02700184,1.15519287,0.99730859,-2.17791041

>  <Name>
ligand

>  <RI>
0

>  <Rbt.Current_Directory>
/home/itssahil/PROJECTS/Mol_Feturizer/New_Systems/rnas/4FEO

>  <Rbt.Executable>
rbdock ($Id: //depot/dev/client3/rdock/2013.1/src/exe/rbdock.cxx#4 $)

>  <Rbt.Library>
libRbt.so (2013.1, Build901 2013/11/27)

>  <Rbt.Parameter_File>
/export/apps/rDock/src/rDock_2013.1_src/data/scripts/dock_solv.prm

>  <Rbt.Receptor>
prm/pocket_docking_8.prm

>  <SCORE>
-10.0241

>  <SCORE.INTER>
-10.0241

>  <SCORE.INTER.CONST>
1

>  <SCORE.INTER.POLAR>
0

>  <SCORE.INTER.ROT>
0

>  <SCORE.INTER.SOLV>
14.9423

>  <SCORE.INTER.VDW>
-15.2635

>  <SCORE.INTER.norm>
-0.911279

>  <SCORE.INTRA>
0

>  <SCORE.INTRA.DIHEDRAL>
0

>  <SCORE.INTRA.DIHEDRAL.0>
0

>  <SCORE.INTRA.POLAR>
0

>  <SCORE.INTRA.POLAR.0>
0

>  <SCORE.INTRA.REPUL>
0

>  <SCORE.INTRA.REPUL.0>
0

>  <SCORE.INTRA.SOLV>
0

>  <SCORE.INTRA.SOLV.lig_0>
-48.9252

>  <SCORE.INTRA.VDW>
0

>  <SCORE.INTRA.VDW.0>
0

>  <SCORE.INTRA.norm>
0

>  <SCORE.RESTR>
0

>  <SCORE.RESTR.CAVITY>
0

>  <SCORE.RESTR.norm>
0

>  <SCORE.SYSTEM>
0

>  <SCORE.SYSTEM.CONST>
0

>  <SCORE.SYSTEM.DIHEDRAL>
0

>  <SCORE.SYSTEM.SOLV>
0

>  <SCORE.SYSTEM.norm>
0

>  <SCORE.heavy>
11

>  <SCORE.norm>
-0.911279

>  <RMSD>
3.837

$$$$
ligand
 OpenBabel11021811493D
libRbt.so/2013.1/901 2013/11/27
 11 12  0  0  0  0  0  0  0  0999 V2000
   12.5457    8.1315    7.5207 N   0  0  0  0  0  0  0  0  0  0  0  0
   12.9523    7.1404    6.7064 C   0  0  0  0  0  0  0  0  0  0  0  0
   12.1691    6.0024    6.5770 N   0  0  0  0  0  0  0  0  0  0  0  0
   14.1005    7.2264    6.0164 N   0  0  0  0  0  0  0  0  0  0  0  0
   14.8948    8.3042    6.1139 C   0  0  0  0  0  0  0  0  0  0  0  0
   14.5154    9.3750    6.9543 C   0  0  0  0  0  0  0  0  0  0  0  0
   13.2843    9.2518    7.6715 C   0  0  0  0  0  0  0  0  0  0  0  0
   12.8532   10.2547    8.5049 N   0  0  0  0  0  0  0  0  0  0  0  0
   15.4914   10.3234    6.8648 N   0  0  0  0  0  0  0  0  0  0  0  0
   16.4156    9.9099    6.0507 C   0  0  0  0  0  0  0  0  0  0  0  0
   16.0951    8.6707    5.5568 N   0  0  0  0  0  0  0  0  0  0  0  0
  1  7  2  0  0  0  0
  1  2  1  0  0  0  0
  2  3  1  0  0  0  0
  2  4  2  0  0  0  0
  4  5  1  0  0  0  0
  5  6  2  0  0  0  0
  5 11  1  0  0  0  0
  6  7  1  0  0  0  0
  6  9  1  0  0  0  0
  7  8  1  0  0  0  0
  9 10  1  0  0  0  0
 10 11  2  0  0  0  0
M  END
>  <CHROM.1>
14.09948289,8.58548521,6.78144954,2.64576121,-0.50791924,-2.63292327

>  <Name>
ligand

>  <RI>
0

>  <Rbt.Current_Directory>
/home/itssahil/PROJECTS/Mol_Feturizer/New_Systems/rnas/4FEO

>  <Rbt.Executable>
rbdock ($Id: //depot/dev/client3/rdock/2013.1/src/exe/rbdock.cxx#4 $)

>  <Rbt.Library>
libRbt.so (2013.1, Build901 2013/11/27)

>  <Rbt.Parameter_File>
/export/apps/rDock/src/rDock_2013.1_src/data/scripts/dock_solv.prm

>  <Rbt.Receptor>
prm/blind_docking_60.prm

>  <SCORE>
-5.82527

>  <SCORE.INTER>
-5.82527

>  <SCORE.INTER.CONST>
1

>  <SCORE.INTER.POLAR>
0

>  <SCORE.INTER.ROT>
0

>  <SCORE.INTER.SOLV>
15.7497

>  <SCORE.INTER.VDW>
-12.7334

>  <SCORE.INTER.norm>
-0.52957

>  <SCORE.INTRA>
0

>  <SCORE.INTRA.DIHEDRAL>
0

>  <SCORE.INTRA.DIHEDRAL.0>
0

>  <SCORE.INTRA.POLAR>
0

>  <SCORE.INTRA.POLAR.0>
0

>  <SCORE.INTRA.REPUL>
0

>  <SCORE.INTRA.REPUL.0>
0

>  <SCORE.INTRA.SOLV>
0

>  <SCORE.INTRA.SOLV.lig_0>
-48.9252

>  <SCORE.INTRA.VDW>
0

>  <SCORE.INTRA.VDW.0>
0

>  <SCORE.INTRA.norm>
0

>  <SCORE.RESTR>
0

>  <SCORE.RESTR.CAVITY>
0

>  <SCORE.RESTR.norm>
0

>  <SCORE.SYSTEM>
0

>  <SCORE.SYSTEM.CONST>
0

>  <SCORE.SYSTEM.DIHEDRAL>
0

>  <SCORE.SYSTEM.SOLV>
0

>  <SCORE.SYSTEM.norm>
0

>  <SCORE.heavy>
11

>  <SCORE.norm>
-0.52957

>  <RMSD>
5.593

$$$$
ligand
 OpenBabel11021811493D
libRbt.so/2013.1/901 2013/11/27
 11 12  0  0  0  0  0  0  0  0999 V2000
   12.5473    8.1306    7.4983 N   0  0  0  0  0  0  0  0  0  0  0  0
   12.9540    7.1492    6.6723 C   0  0  0  0  0  0  0  0  0  0  0  0
   12.1681    6.0154    6.5250 N   0  0  0  0  0  0  0  0  0  0  0  0
   14.1050    7.2411    5.9876 N   0  0  0  0  0  0  0  0  0  0  0  0
   14.9020    8.3152    6.1024 C   0  0  0  0  0  0  0  0  0  0  0  0
   14.5226    9.3758    6.9555 C   0  0  0  0  0  0  0  0  0  0  0  0
   13.2885    9.2466    7.6666 C   0  0  0  0  0  0  0  0  0  0  0  0
   12.8573   10.2397    8.5118 N   0  0  0  0  0  0  0  0  0  0  0  0
   15.5016   10.3224    6.8822 N   0  0  0  0  0  0  0  0  0  0  0  0
   16.4276    9.9171    6.0661 C   0  0  0  0  0  0  0  0  0  0  0  0
   16.1053    8.6856    5.5545 N   0  0  0  0  0  0  0  0  0  0  0  0
  1  7  2  0  0  0  0
  1  2  1  0  0  0  0
  2  3  1  0  0  0  0
  2  4  2  0  0  0  0
  4  5  1  0  0  0  0
  5  6  2  0  0  0  0
  5 11  1  0  0  0  0
  6  7  1  0  0  0  0
  6  9  1  0  0  0  0
  7  8  1  0  0  0  0
  9 10  1  0  0  0  0
 10 11  2  0  0  0  0
M  END
>  <CHROM.1>
14.10505849,8.58986400,6.77072208,2.64658642,-0.50334097,-2.61922455

>  <Name>
ligand

>  <RI>
0

>  <Rbt.Current_Directory>
/home/itssahil/PROJECTS/Mol_Feturizer/New_Systems/rnas/4FEO

>  <Rbt.Executable>
rbdock ($Id: //depot/dev/client3/rdock/2013.1/src/exe/rbdock.cxx#4 $)

>  <Rbt.Library>
libRbt.so (2013.1, Build901 2013/11/27)

>  <Rbt.Parameter_File>
/export/apps/rDock/src/rDock_2013.1_src/data/scripts/dock_solv.prm

>  <Rbt.Receptor>
prm/blind_docking_40.prm

>  <SCORE>
-5.85983

>  <SCORE.INTER>
-5.85983

>  <SCORE.INTER.CONST>
1

>  <SCORE.INTER.POLAR>
0

>  <SCORE.INTER.ROT>
0

>  <SCORE.INTER.SOLV>
16.03

>  <SCORE.INTER.VDW>
-12.8499

>  <SCORE.INTER.norm>
-0.532711

>  <SCORE.INTRA>
0

>  <SCORE.INTRA.DIHEDRAL>
0

>  <SCORE.INTRA.DIHEDRAL.0>
0

>  <SCORE.INTRA.POLAR>
0

>  <SCORE.INTRA.POLAR.0>
0

>  <SCORE.INTRA.REPUL>
0

>  <SCORE.INTRA.REPUL.0>
0

>  <SCORE.INTRA.SOLV>
0

>  <SCORE.INTRA.SOLV.lig_0>
-48.9252

>  <SCORE.INTRA.VDW>
0

>  <SCORE.INTRA.VDW.0>
0

>  <SCORE.INTRA.norm>
0

>  <SCORE.RESTR>
0

>  <SCORE.RESTR.CAVITY>
0

>  <SCORE.RESTR.norm>
0

>  <SCORE.SYSTEM>
0

>  <SCORE.SYSTEM.CONST>
0

>  <SCORE.SYSTEM.DIHEDRAL>
0

>  <SCORE.SYSTEM.SOLV>
0

>  <SCORE.SYSTEM.norm>
0

>  <SCORE.heavy>
11

>  <SCORE.norm>
-0.532711

>  <RMSD>
5.598

$$$$
ligand
 OpenBabel11021811493D
libRbt.so/2013.1/901 2013/11/27
 11 12  0  0  0  0  0  0  0  0999 V2000
   15.7807    7.5201    6.5078 N   0  0  0  0  0  0  0  0  0  0  0  0
   15.0397    6.6836    7.2573 C   0  0  0  0  0  0  0  0  0  0  0  0
   15.5033    5.3991    7.5026 N   0  0  0  0  0  0  0  0  0  0  0  0
   13.8598    7.0630    7.7730 N   0  0  0  0  0  0  0  0  0  0  0  0
   13.3667    8.2929    7.5577 C   0  0  0  0  0  0  0  0  0  0  0  0
   14.1043    9.2122    6.7783 C   0  0  0  0  0  0  0  0  0  0  0  0
   15.3588    8.7762    6.2479 C   0  0  0  0  0  0  0  0  0  0  0  0
   16.1289    9.6177    5.4829 N   0  0  0  0  0  0  0  0  0  0  0  0
   13.3795   10.3661    6.7221 N   0  0  0  0  0  0  0  0  0  0  0  0
   12.2785   10.2123    7.3945 C   0  0  0  0  0  0  0  0  0  0  0  0
   12.2222    8.9519    7.9335 N   0  0  0  0  0  0  0  0  0  0  0  0
  1  7  2  0  0  0  0
  1  2  1  0  0  0  0
  2  3  1  0  0  0  0
  2  4  2  0  0  0  0
  4  5  1  0  0  0  0
  5  6  2  0  0  0  0
  5 11  1  0  0  0  0
  6  7  1  0  0  0  0
  6  9  1  0  0  0  0
  7  8  1  0  0  0  0
  9 10  1  0  0  0  0
 10 11  2  0  0  0  0
M  END
>  <CHROM.1>
14.29175605,8.35407929,7.01204781,-0.81256597,0.47974210,-0.37819423

>  <Name>
ligand

>  <RI>
0

>  <Rbt.Current_Directory>
/home/itssahil/PROJECTS/Mol_Feturizer/New_Systems/rnas/4FEO

>  <Rbt.Executable>
rbdock ($Id: //depot/dev/client3/rdock/2013.1/src/exe/rbdock.cxx#4 $)

>  <Rbt.Library>
libRbt.so (2013.1, Build901 2013/11/27)

>  <Rbt.Parameter_File>
/export/apps/rDock/src/rDock_2013.1_src/data/scripts/dock_solv.prm

>  <Rbt.Receptor>
prm/blind_docking_20.prm

>  <SCORE>
-4.50865

>  <SCORE.INTER>
-4.65327

>  <SCORE.INTER.CONST>
1

>  <SCORE.INTER.POLAR>
0

>  <SCORE.INTER.ROT>
0

>  <SCORE.INTER.SOLV>
15.0497

>  <SCORE.INTER.VDW>
-11.7188

>  <SCORE.INTER.norm>
-0.423024

>  <SCORE.INTRA>
0

>  <SCORE.INTRA.DIHEDRAL>
0

>  <SCORE.INTRA.DIHEDRAL.0>
0

>  <SCORE.INTRA.POLAR>
0

>  <SCORE.INTRA.POLAR.0>
0

>  <SCORE.INTRA.REPUL>
0

>  <SCORE.INTRA.REPUL.0>
0

>  <SCORE.INTRA.SOLV>
0

>  <SCORE.INTRA.SOLV.lig_0>
-48.9252

>  <SCORE.INTRA.VDW>
0

>  <SCORE.INTRA.VDW.0>
0

>  <SCORE.INTRA.norm>
0

>  <SCORE.RESTR>
0.144617

>  <SCORE.RESTR.CAVITY>
0.144617

>  <SCORE.RESTR.norm>
0.013147

>  <SCORE.SYSTEM>
0

>  <SCORE.SYSTEM.CONST>
0

>  <SCORE.SYSTEM.DIHEDRAL>
0

>  <SCORE.SYSTEM.SOLV>
0

>  <SCORE.SYSTEM.norm>
0

>  <SCORE.heavy>
11

>  <SCORE.norm>
-0.409877

>  <RMSD>
5.640

$$$$
ligand
 OpenBabel11021811493D
libRbt.so/2013.1/901 2013/11/27
 11 12  0  0  0  0  0  0  0  0999 V2000
   14.8575    4.4713    7.1099 N   0  0  0  0  0  0  0  0  0  0  0  0
   16.1395    4.7681    6.8290 C   0  0  0  0  0  0  0  0  0  0  0  0
   17.0924    3.7600    6.8566 N   0  0  0  0  0  0  0  0  0  0  0  0
   16.5189    6.0190    6.5235 N   0  0  0  0  0  0  0  0  0  0  0  0
   15.6347    7.0286    6.4906 C   0  0  0  0  0  0  0  0  0  0  0  0
   14.2748    6.7727    6.7766 C   0  0  0  0  0  0  0  0  0  0  0  0
   13.9049    5.4282    7.0940 C   0  0  0  0  0  0  0  0  0  0  0  0
   12.6006    5.1074    7.3810 N   0  0  0  0  0  0  0  0  0  0  0  0
   13.6106    7.9593    6.6729 N   0  0  0  0  0  0  0  0  0  0  0  0
   14.4542    8.8948    6.3550 C   0  0  0  0  0  0  0  0  0  0  0  0
   15.7168    8.3736    6.2269 N   0  0  0  0  0  0  0  0  0  0  0  0
  1  7  2  0  0  0  0
  1  2  1  0  0  0  0
  2  3  1  0  0  0  0
  2  4  2  0  0  0  0
  4  5  1  0  0  0  0
  5  6  2  0  0  0  0
  5 11  1  0  0  0  0
  6  7  1  0  0  0  0
  6  9  1  0  0  0  0
  7  8  1  0  0  0  0
  9 10  1  0  0  0  0
 10 11  2  0  0  0  0
M  END
>  <CHROM.1>
14.98924387,6.21102008,6.75924990,1.17081739,-0.16959747,2.95634813

>  <Name>
ligand

>  <RI>
0

>  <Rbt.Current_Directory>
/home/itssahil/PROJECTS/Mol_Feturizer/New_Systems/rnas/4FEO

>  <Rbt.Executable>
rbdock ($Id: //depot/dev/client3/rdock/2013.1/src/exe/rbdock.cxx#4 $)

>  <Rbt.Library>
libRbt.so (2013.1, Build901 2013/11/27)

>  <Rbt.Parameter_File>
/export/apps/rDock/src/rDock_2013.1_src/data/scripts/dock_solv.prm

>  <Rbt.Receptor>
prm/pocket_docking_8.prm

>  <SCORE>
-6.15192

>  <SCORE.INTER>
-6.15239

>  <SCORE.INTER.CONST>
1

>  <SCORE.INTER.POLAR>
0

>  <SCORE.INTER.ROT>
0

>  <SCORE.INTER.SOLV>
2.70453

>  <SCORE.INTER.VDW>
-8.6031

>  <SCORE.INTER.norm>
-0.559308

>  <SCORE.INTRA>
0

>  <SCORE.INTRA.DIHEDRAL>
0

>  <SCORE.INTRA.DIHEDRAL.0>
0

>  <SCORE.INTRA.POLAR>
0

>  <SCORE.INTRA.POLAR.0>
0

>  <SCORE.INTRA.REPUL>
0

>  <SCORE.INTRA.REPUL.0>
0

>  <SCORE.INTRA.SOLV>
0

>  <SCORE.INTRA.SOLV.lig_0>
-48.9252

>  <SCORE.INTRA.VDW>
0

>  <SCORE.INTRA.VDW.0>
0

>  <SCORE.INTRA.norm>
0

>  <SCORE.RESTR>
0.000467267

>  <SCORE.RESTR.CAVITY>
0.000467267

>  <SCORE.RESTR.norm>
4.24788e-05

>  <SCORE.SYSTEM>
0

>  <SCORE.SYSTEM.CONST>
0

>  <SCORE.SYSTEM.DIHEDRAL>
0

>  <SCORE.SYSTEM.SOLV>
0

>  <SCORE.SYSTEM.norm>
0

>  <SCORE.heavy>
11

>  <SCORE.norm>
-0.559266

>  <RMSD>
7.492

$$$$
ligand
 OpenBabel11021811493D
libRbt.so/2013.1/901 2013/11/27
 11 12  0  0  0  0  0  0  0  0999 V2000
   21.4796   18.4952    6.4255 N   0  0  0  0  0  0  0  0  0  0  0  0
   20.3029   18.8448    5.8743 C   0  0  0  0  0  0  0  0  0  0  0  0
   19.9507   20.1856    5.8170 N   0  0  0  0  0  0  0  0  0  0  0  0
   19.4597   17.9250    5.3793 N   0  0  0  0  0  0  0  0  0  0  0  0
   19.7535   16.6157    5.4181 C   0  0  0  0  0  0  0  0  0  0  0  0
   20.9768   16.1930    5.9852 C   0  0  0  0  0  0  0  0  0  0  0  0
   21.8529   17.1997    6.4994 C   0  0  0  0  0  0  0  0  0  0  0  0
   23.0586   16.8607    7.0630 N   0  0  0  0  0  0  0  0  0  0  0  0
   21.0146   14.8328    5.8949 N   0  0  0  0  0  0  0  0  0  0  0  0
   19.9236   14.4116    5.3292 C   0  0  0  0  0  0  0  0  0  0  0  0
   19.1122   15.4715    5.0119 N   0  0  0  0  0  0  0  0  0  0  0  0
  1  7  2  0  0  0  0
  1  2  1  0  0  0  0
  2  3  1  0  0  0  0
  2  4  2  0  0  0  0
  4  5  1  0  0  0  0
  5  6  2  0  0  0  0
  5 11  1  0  0  0  0
  6  7  1  0  0  0  0
  6  9  1  0  0  0  0
  7  8  1  0  0  0  0
  9 10  1  0  0  0  0
 10 11  2  0  0  0  0
M  END
>  <CHROM.1>
20.63034877,17.02748194,5.88579530,-1.48544533,0.45509611,-3.05943436

>  <Name>
ligand

>  <RI>
0

>  <Rbt.Current_Directory>
/home/itssahil/PROJECTS/Mol_Feturizer/New_Systems/rnas/4FEO

>  <Rbt.Executable>
rbdock ($Id: //depot/dev/client3/rdock/2013.1/src/exe/rbdock.cxx#4 $)

>  <Rbt.Library>
libRbt.so (2013.1, Build901 2013/11/27)

>  <Rbt.Parameter_File>
/export/apps/rDock/src/rDock_2013.1_src/data/scripts/dock_solv.prm

>  <Rbt.Receptor>
prm/blind_docking_40.prm

>  <SCORE>
-7.43206

>  <SCORE.INTER>
-7.43299

>  <SCORE.INTER.CONST>
1

>  <SCORE.INTER.POLAR>
0

>  <SCORE.INTER.ROT>
0

>  <SCORE.INTER.SOLV>
13.1379

>  <SCORE.INTER.VDW>
-12.9346

>  <SCORE.INTER.norm>
-0.675726

>  <SCORE.INTRA>
0

>  <SCORE.INTRA.DIHEDRAL>
0

>  <SCORE.INTRA.DIHEDRAL.0>
0

>  <SCORE.INTRA.POLAR>
0

>  <SCORE.INTRA.POLAR.0>
0

>  <SCORE.INTRA.REPUL>
0

>  <SCORE.INTRA.REPUL.0>
0

>  <SCORE.INTRA.SOLV>
0

>  <SCORE.INTRA.SOLV.lig_0>
-48.9252

>  <SCORE.INTRA.VDW>
0

>  <SCORE.INTRA.VDW.0>
0

>  <SCORE.INTRA.norm>
0

>  <SCORE.RESTR>
0.000933169

>  <SCORE.RESTR.CAVITY>
0.000933169

>  <SCORE.RESTR.norm>
8.48335e-05

>  <SCORE.SYSTEM>
0

>  <SCORE.SYSTEM.CONST>
0

>  <SCORE.SYSTEM.DIHEDRAL>
0

>  <SCORE.SYSTEM.SOLV>
0

>  <SCORE.SYSTEM.norm>
0

>  <SCORE.heavy>
11

>  <SCORE.norm>
-0.675641

>  <RMSD>
10.674

$$$$
ligand
 OpenBabel11021811493D
libRbt.so/2013.1/901 2013/11/27
 11 12  0  0  0  0  0  0  0  0999 V2000
   18.2468    5.3240    8.4699 N   0  0  0  0  0  0  0  0  0  0  0  0
   17.0763    5.7548    8.9747 C   0  0  0  0  0  0  0  0  0  0  0  0
   16.1789    6.4117    8.1451 N   0  0  0  0  0  0  0  0  0  0  0  0
   16.7566    5.5649   10.2646 N   0  0  0  0  0  0  0  0  0  0  0  0
   17.5949    4.9408   11.1071 C   0  0  0  0  0  0  0  0  0  0  0  0
   18.8375    4.4671   10.6294 C   0  0  0  0  0  0  0  0  0  0  0  0
   19.1439    4.6829    9.2493 C   0  0  0  0  0  0  0  0  0  0  0  0
   20.3329    4.2476    8.7171 N   0  0  0  0  0  0  0  0  0  0  0  0
   19.4787    3.8839   11.6823 N   0  0  0  0  0  0  0  0  0  0  0  0
   18.7302    3.9723   12.7406 C   0  0  0  0  0  0  0  0  0  0  0  0
   17.5548    4.6130   12.4399 N   0  0  0  0  0  0  0  0  0  0  0  0
  1  7  2  0  0  0  0
  1  2  1  0  0  0  0
  2  3  1  0  0  0  0
  2  4  2  0  0  0  0
  4  5  1  0  0  0  0
  5  6  2  0  0  0  0
  5 11  1  0  0  0  0
  6  7  1  0  0  0  0
  6  9  1  0  0  0  0
  7  8  1  0  0  0  0
  9 10  1  0  0  0  0
 10 11  2  0  0  0  0
M  END
>  <CHROM.1>
18.16860361,4.90586236,10.19782655,-1.99800645,-0.43721490,1.82775400

>  <Name>
ligand

>  <RI>
0

>  <Rbt.Current_Directory>
/home/itssahil/PROJECTS/Mol_Feturizer/New_Systems/rnas/4FEO

>  <Rbt.Executable>
rbdock ($Id: //depot/dev/client3/rdock/2013.1/src/exe/rbdock.cxx#4 $)

>  <Rbt.Library>
libRbt.so (2013.1, Build901 2013/11/27)

>  <Rbt.Parameter_File>
/export/apps/rDock/src/rDock_2013.1_src/data/scripts/dock_solv.prm

>  <Rbt.Receptor>
prm/blind_docking_80.prm

>  <SCORE>
-7.63025

>  <SCORE.INTER>
-7.63025

>  <SCORE.INTER.CONST>
1

>  <SCORE.INTER.POLAR>
0

>  <SCORE.INTER.ROT>
0

>  <SCORE.INTER.SOLV>
7.10577

>  <SCORE.INTER.VDW>
-11.0554

>  <SCORE.INTER.norm>
-0.693659

>  <SCORE.INTRA>
0

>  <SCORE.INTRA.DIHEDRAL>
0

>  <SCORE.INTRA.DIHEDRAL.0>
0

>  <SCORE.INTRA.POLAR>
0

>  <SCORE.INTRA.POLAR.0>
0

>  <SCORE.INTRA.REPUL>
0

>  <SCORE.INTRA.REPUL.0>
0

>  <SCORE.INTRA.SOLV>
0

>  <SCORE.INTRA.SOLV.lig_0>
-48.9252

>  <SCORE.INTRA.VDW>
0

>  <SCORE.INTRA.VDW.0>
0

>  <SCORE.INTRA.norm>
0

>  <SCORE.RESTR>
0

>  <SCORE.RESTR.CAVITY>
0

>  <SCORE.RESTR.norm>
0

>  <SCORE.SYSTEM>
0

>  <SCORE.SYSTEM.CONST>
0

>  <SCORE.SYSTEM.DIHEDRAL>
0

>  <SCORE.SYSTEM.SOLV>
0

>  <SCORE.SYSTEM.norm>
0

>  <SCORE.heavy>
11

>  <SCORE.norm>
-0.693659

>  <RMSD>
10.697

$$$$
ligand
 OpenBabel11021811493D
libRbt.so/2013.1/901 2013/11/27
 11 12  0  0  0  0  0  0  0  0999 V2000
   21.4783   18.5987    6.4366 N   0  0  0  0  0  0  0  0  0  0  0  0
   20.2817   18.9388    5.9236 C   0  0  0  0  0  0  0  0  0  0  0  0
   19.9056   20.2742    5.9031 N   0  0  0  0  0  0  0  0  0  0  0  0
   19.4414   18.0147    5.4317 N   0  0  0  0  0  0  0  0  0  0  0  0
   19.7581   16.7102    5.4358 C   0  0  0  0  0  0  0  0  0  0  0  0
   21.0029   16.2975    5.9621 C   0  0  0  0  0  0  0  0  0  0  0  0
   21.8751   17.3087    6.4740 C   0  0  0  0  0  0  0  0  0  0  0  0
   23.1008   16.9794    6.9990 N   0  0  0  0  0  0  0  0  0  0  0  0
   21.0613   14.9402    5.8428 N   0  0  0  0  0  0  0  0  0  0  0  0
   19.9629   14.5116    5.2970 C   0  0  0  0  0  0  0  0  0  0  0  0
   19.1258   15.5635    5.0229 N   0  0  0  0  0  0  0  0  0  0  0  0
  1  7  2  0  0  0  0
  1  2  1  0  0  0  0
  2  3  1  0  0  0  0
  2  4  2  0  0  0  0
  4  5  1  0  0  0  0
  5  6  2  0  0  0  0
  5 11  1  0  0  0  0
  6  7  1  0  0  0  0
  6  9  1  0  0  0  0
  7  8  1  0  0  0  0
  9 10  1  0  0  0  0
 10 11  2  0  0  0  0
M  END
>  <CHROM.1>
20.63994905,17.12766172,5.88898325,-1.50152648,0.42741600,-3.03212856

>  <Name>
ligand

>  <RI>
0

>  <Rbt.Current_Directory>
/home/itssahil/PROJECTS/Mol_Feturizer/New_Systems/rnas/4FEO

>  <Rbt.Executable>
rbdock ($Id: //depot/dev/client3/rdock/2013.1/src/exe/rbdock.cxx#4 $)

>  <Rbt.Library>
libRbt.so (2013.1, Build901 2013/11/27)

>  <Rbt.Parameter_File>
/export/apps/rDock/src/rDock_2013.1_src/data/scripts/dock_solv.prm

>  <Rbt.Receptor>
prm/blind_docking_100.prm

>  <SCORE>
-7.46388

>  <SCORE.INTER>
-7.4647

>  <SCORE.INTER.CONST>
1

>  <SCORE.INTER.POLAR>
0

>  <SCORE.INTER.ROT>
0

>  <SCORE.INTER.SOLV>
12.2565

>  <SCORE.INTER.VDW>
-12.662

>  <SCORE.INTER.norm>
-0.678609

>  <SCORE.INTRA>
0

>  <SCORE.INTRA.DIHEDRAL>
0

>  <SCORE.INTRA.DIHEDRAL.0>
0

>  <SCORE.INTRA.POLAR>
0

>  <SCORE.INTRA.POLAR.0>
0

>  <SCORE.INTRA.REPUL>
0

>  <SCORE.INTRA.REPUL.0>
0

>  <SCORE.INTRA.SOLV>
0

>  <SCORE.INTRA.SOLV.lig_0>
-48.9252

>  <SCORE.INTRA.VDW>
0

>  <SCORE.INTRA.VDW.0>
0

>  <SCORE.INTRA.norm>
0

>  <SCORE.RESTR>
0.000824439

>  <SCORE.RESTR.CAVITY>
0.000824439

>  <SCORE.RESTR.norm>
7.4949e-05

>  <SCORE.SYSTEM>
0

>  <SCORE.SYSTEM.CONST>
0

>  <SCORE.SYSTEM.DIHEDRAL>
0

>  <SCORE.SYSTEM.SOLV>
0

>  <SCORE.SYSTEM.norm>
0

>  <SCORE.heavy>
11

>  <SCORE.norm>
-0.678534

>  <RMSD>
10.724

$$$$
ligand
 OpenBabel11021811493D
libRbt.so/2013.1/901 2013/11/27
 11 12  0  0  0  0  0  0  0  0999 V2000
    1.6043   10.9405    4.3102 N   0  0  0  0  0  0  0  0  0  0  0  0
    1.5432   12.2763    4.1603 C   0  0  0  0  0  0  0  0  0  0  0  0
    1.1377   13.0625    5.2292 N   0  0  0  0  0  0  0  0  0  0  0  0
    1.8644   12.8669    2.9984 N   0  0  0  0  0  0  0  0  0  0  0  0
    2.2557   12.1480    1.9344 C   0  0  0  0  0  0  0  0  0  0  0  0
    2.3385   10.7411    2.0369 C   0  0  0  0  0  0  0  0  0  0  0  0
    1.9928   10.1455    3.2903 C   0  0  0  0  0  0  0  0  0  0  0  0
    2.0519    8.7840    3.4613 N   0  0  0  0  0  0  0  0  0  0  0  0
    2.7546   10.2722    0.8258 N   0  0  0  0  0  0  0  0  0  0  0  0
    2.9223   11.2731    0.0147 C   0  0  0  0  0  0  0  0  0  0  0  0
    2.6313   12.4540    0.6496 N   0  0  0  0  0  0  0  0  0  0  0  0
  1  7  2  0  0  0  0
  1  2  1  0  0  0  0
  2  3  1  0  0  0  0
  2  4  2  0  0  0  0
  4  5  1  0  0  0  0
  5  6  2  0  0  0  0
  5 11  1  0  0  0  0
  6  7  1  0  0  0  0
  6  9  1  0  0  0  0
  7  8  1  0  0  0  0
  9 10  1  0  0  0  0
 10 11  2  0  0  0  0
M  END
>  <CHROM.1>
2.09203770,11.36340125,2.65189698,-3.13141804,1.25677747,-0.25693198

>  <Name>
ligand

>  <RI>
0

>  <Rbt.Current_Directory>
/home/itssahil/PROJECTS/Mol_Feturizer/New_Systems/rnas/4FEO

>  <Rbt.Executable>
rbdock ($Id: //depot/dev/client3/rdock/2013.1/src/exe/rbdock.cxx#4 $)

>  <Rbt.Library>
libRbt.so (2013.1, Build901 2013/11/27)

>  <Rbt.Parameter_File>
/export/apps/rDock/src/rDock_2013.1_src/data/scripts/dock_solv.prm

>  <Rbt.Receptor>
prm/blind_docking_20.prm

>  <SCORE>
-4.54116

>  <SCORE.INTER>
-4.54152

>  <SCORE.INTER.CONST>
1

>  <SCORE.INTER.POLAR>
0

>  <SCORE.INTER.ROT>
0

>  <SCORE.INTER.SOLV>
12.7416

>  <SCORE.INTER.VDW>
-10.8749

>  <SCORE.INTER.norm>
-0.412865

>  <SCORE.INTRA>
0

>  <SCORE.INTRA.DIHEDRAL>
0

>  <SCORE.INTRA.DIHEDRAL.0>
0

>  <SCORE.INTRA.POLAR>
0

>  <SCORE.INTRA.POLAR.0>
0

>  <SCORE.INTRA.REPUL>
0

>  <SCORE.INTRA.REPUL.0>
0

>  <SCORE.INTRA.SOLV>
0

>  <SCORE.INTRA.SOLV.lig_0>
-48.9252

>  <SCORE.INTRA.VDW>
0

>  <SCORE.INTRA.VDW.0>
0

>  <SCORE.INTRA.norm>
0

>  <SCORE.RESTR>
0.000358389

>  <SCORE.RESTR.CAVITY>
0.000358389

>  <SCORE.RESTR.norm>
3.25808e-05

>  <SCORE.SYSTEM>
0

>  <SCORE.SYSTEM.CONST>
0

>  <SCORE.SYSTEM.DIHEDRAL>
0

>  <SCORE.SYSTEM.SOLV>
0

>  <SCORE.SYSTEM.norm>
0

>  <SCORE.heavy>
11

>  <SCORE.norm>
-0.412832

>  <RMSD>
10.846

$$$$
ligand
 OpenBabel11021811493D
libRbt.so/2013.1/901 2013/11/27
 11 12  0  0  0  0  0  0  0  0999 V2000
    1.5724   10.9318    4.2966 N   0  0  0  0  0  0  0  0  0  0  0  0
    1.5259   12.2691    4.1549 C   0  0  0  0  0  0  0  0  0  0  0  0
    1.1180   13.0524    5.2250 N   0  0  0  0  0  0  0  0  0  0  0  0
    1.8640   12.8640    3.0000 N   0  0  0  0  0  0  0  0  0  0  0  0
    2.2584   12.1482    1.9350 C   0  0  0  0  0  0  0  0  0  0  0  0
    2.3263   10.7399    2.0291 C   0  0  0  0  0  0  0  0  0  0  0  0
    1.9629   10.1396    3.2752 C   0  0  0  0  0  0  0  0  0  0  0  0
    2.0069    8.7765    3.4378 N   0  0  0  0  0  0  0  0  0  0  0  0
    2.7494   10.2747    0.8189 N   0  0  0  0  0  0  0  0  0  0  0  0
    2.9347   11.2792    0.0161 C   0  0  0  0  0  0  0  0  0  0  0  0
    2.6493   12.4588    0.6559 N   0  0  0  0  0  0  0  0  0  0  0  0
  1  7  2  0  0  0  0
  1  2  1  0  0  0  0
  2  3  1  0  0  0  0
  2  4  2  0  0  0  0
  4  5  1  0  0  0  0
  5  6  2  0  0  0  0
  5 11  1  0  0  0  0
  6  7  1  0  0  0  0
  6  9  1  0  0  0  0
  7  8  1  0  0  0  0
  9 10  1  0  0  0  0
 10 11  2  0  0  0  0
M  END
>  <CHROM.1>
2.08015539,11.36060801,2.64579543,3.11383462,1.24980526,-0.21436490

>  <Name>
ligand

>  <RI>
0

>  <Rbt.Current_Directory>
/home/itssahil/PROJECTS/Mol_Feturizer/New_Systems/rnas/4FEO

>  <Rbt.Executable>
rbdock ($Id: //depot/dev/client3/rdock/2013.1/src/exe/rbdock.cxx#4 $)

>  <Rbt.Library>
libRbt.so (2013.1, Build901 2013/11/27)

>  <Rbt.Parameter_File>
/export/apps/rDock/src/rDock_2013.1_src/data/scripts/dock_solv.prm

>  <Rbt.Receptor>
prm/blind_docking_20.prm

>  <SCORE>
-4.5166

>  <SCORE.INTER>
-4.5166

>  <SCORE.INTER.CONST>
1

>  <SCORE.INTER.POLAR>
0

>  <SCORE.INTER.ROT>
0

>  <SCORE.INTER.SOLV>
12.4989

>  <SCORE.INTER.VDW>
-10.7774

>  <SCORE.INTER.norm>
-0.4106

>  <SCORE.INTRA>
0

>  <SCORE.INTRA.DIHEDRAL>
0

>  <SCORE.INTRA.DIHEDRAL.0>
0

>  <SCORE.INTRA.POLAR>
0

>  <SCORE.INTRA.POLAR.0>
0

>  <SCORE.INTRA.REPUL>
0

>  <SCORE.INTRA.REPUL.0>
0

>  <SCORE.INTRA.SOLV>
0

>  <SCORE.INTRA.SOLV.lig_0>
-48.9252

>  <SCORE.INTRA.VDW>
0

>  <SCORE.INTRA.VDW.0>
0

>  <SCORE.INTRA.norm>
0

>  <SCORE.RESTR>
0

>  <SCORE.RESTR.CAVITY>
0

>  <SCORE.RESTR.norm>
0

>  <SCORE.SYSTEM>
0

>  <SCORE.SYSTEM.CONST>
0

>  <SCORE.SYSTEM.DIHEDRAL>
0

>  <SCORE.SYSTEM.SOLV>
0

>  <SCORE.SYSTEM.norm>
0

>  <SCORE.heavy>
11

>  <SCORE.norm>
-0.4106

>  <RMSD>
10.861

$$$$
ligand
 OpenBabel11021811493D
libRbt.so/2013.1/901 2013/11/27
 11 12  0  0  0  0  0  0  0  0999 V2000
    0.9706   12.8730    5.0411 N   0  0  0  0  0  0  0  0  0  0  0  0
    0.7387   14.1682    4.7594 C   0  0  0  0  0  0  0  0  0  0  0  0
    0.1743   14.9843    5.7292 N   0  0  0  0  0  0  0  0  0  0  0  0
    1.0397   14.6896    3.5596 N   0  0  0  0  0  0  0  0  0  0  0  0
    1.5808   13.9383    2.5876 C   0  0  0  0  0  0  0  0  0  0  0  0
    1.8462   12.5717    2.8300 C   0  0  0  0  0  0  0  0  0  0  0  0
    1.5168   12.0503    4.1202 C   0  0  0  0  0  0  0  0  0  0  0  0
    1.7490   10.7314    4.4254 N   0  0  0  0  0  0  0  0  0  0  0  0
    2.3862   12.0570    1.6883 N   0  0  0  0  0  0  0  0  0  0  0  0
    2.4613   12.9936    0.7911 C   0  0  0  0  0  0  0  0  0  0  0  0
    1.9805   14.1754    1.2955 N   0  0  0  0  0  0  0  0  0  0  0  0
  1  7  2  0  0  0  0
  1  2  1  0  0  0  0
  2  3  1  0  0  0  0
  2  4  2  0  0  0  0
  4  5  1  0  0  0  0
  5  6  2  0  0  0  0
  5 11  1  0  0  0  0
  6  7  1  0  0  0  0
  6  9  1  0  0  0  0
  7  8  1  0  0  0  0
  9 10  1  0  0  0  0
 10 11  2  0  0  0  0
M  END
>  <CHROM.1>
1.48564891,13.20704128,3.37081315,-2.84001030,1.15413949,-0.62450184

>  <Name>
ligand

>  <RI>
0

>  <Rbt.Current_Directory>
/home/itssahil/PROJECTS/Mol_Feturizer/New_Systems/rnas/4FEO

>  <Rbt.Executable>
rbdock ($Id: //depot/dev/client3/rdock/2013.1/src/exe/rbdock.cxx#4 $)

>  <Rbt.Library>
libRbt.so (2013.1, Build901 2013/11/27)

>  <Rbt.Parameter_File>
/export/apps/rDock/src/rDock_2013.1_src/data/scripts/dock_solv.prm

>  <Rbt.Receptor>
prm/blind_docking_40.prm

>  <SCORE>
-7.06896

>  <SCORE.INTER>
-7.06896

>  <SCORE.INTER.CONST>
1

>  <SCORE.INTER.POLAR>
0

>  <SCORE.INTER.ROT>
0

>  <SCORE.INTER.SOLV>
9.70738

>  <SCORE.INTER.VDW>
-11.5484

>  <SCORE.INTER.norm>
-0.642632

>  <SCORE.INTRA>
0

>  <SCORE.INTRA.DIHEDRAL>
0

>  <SCORE.INTRA.DIHEDRAL.0>
0

>  <SCORE.INTRA.POLAR>
0

>  <SCORE.INTRA.POLAR.0>
0

>  <SCORE.INTRA.REPUL>
0

>  <SCORE.INTRA.REPUL.0>
0

>  <SCORE.INTRA.SOLV>
0

>  <SCORE.INTRA.SOLV.lig_0>
-48.9252

>  <SCORE.INTRA.VDW>
0

>  <SCORE.INTRA.VDW.0>
0

>  <SCORE.INTRA.norm>
0

>  <SCORE.RESTR>
0

>  <SCORE.RESTR.CAVITY>
0

>  <SCORE.RESTR.norm>
0

>  <SCORE.SYSTEM>
0

>  <SCORE.SYSTEM.CONST>
0

>  <SCORE.SYSTEM.DIHEDRAL>
0

>  <SCORE.SYSTEM.SOLV>
0

>  <SCORE.SYSTEM.norm>
0

>  <SCORE.heavy>
11

>  <SCORE.norm>
-0.642632

>  <RMSD>
11.106

$$$$
ligand
 OpenBabel11021811493D
libRbt.so/2013.1/901 2013/11/27
 11 12  0  0  0  0  0  0  0  0999 V2000
   21.9706   19.0213    7.5545 N   0  0  0  0  0  0  0  0  0  0  0  0
   20.9114   19.8471    7.4732 C   0  0  0  0  0  0  0  0  0  0  0  0
   20.9244   21.0410    8.1799 N   0  0  0  0  0  0  0  0  0  0  0  0
   19.8400   19.5416    6.7243 N   0  0  0  0  0  0  0  0  0  0  0  0
   19.7784   18.3954    6.0282 C   0  0  0  0  0  0  0  0  0  0  0  0
   20.8638   17.4919    6.0772 C   0  0  0  0  0  0  0  0  0  0  0  0
   21.9904   17.8508    6.8816 C   0  0  0  0  0  0  0  0  0  0  0  0
   23.0808   17.0208    6.9740 N   0  0  0  0  0  0  0  0  0  0  0  0
   20.5380   16.4270    5.2899 N   0  0  0  0  0  0  0  0  0  0  0  0
   19.3572   16.6163    4.7823 C   0  0  0  0  0  0  0  0  0  0  0  0
   18.8452   17.8176    5.2033 N   0  0  0  0  0  0  0  0  0  0  0  0
  1  7  2  0  0  0  0
  1  2  1  0  0  0  0
  2  3  1  0  0  0  0
  2  4  2  0  0  0  0
  4  5  1  0  0  0  0
  5  6  2  0  0  0  0
  5 11  1  0  0  0  0
  6  7  1  0  0  0  0
  6  9  1  0  0  0  0
  7  8  1  0  0  0  0
  9 10  1  0  0  0  0
 10 11  2  0  0  0  0
M  END
>  <CHROM.1>
20.74720015,18.29569931,6.48517395,-1.18882061,0.42799639,-2.61508550

>  <Name>
ligand

>  <RI>
0

>  <Rbt.Current_Directory>
/home/itssahil/PROJECTS/Mol_Feturizer/New_Systems/rnas/4FEO

>  <Rbt.Executable>
rbdock ($Id: //depot/dev/client3/rdock/2013.1/src/exe/rbdock.cxx#4 $)

>  <Rbt.Library>
libRbt.so (2013.1, Build901 2013/11/27)

>  <Rbt.Parameter_File>
/export/apps/rDock/src/rDock_2013.1_src/data/scripts/dock_solv.prm

>  <Rbt.Receptor>
prm/blind_docking_40.prm

>  <SCORE>
-7.68595

>  <SCORE.INTER>
-7.68595

>  <SCORE.INTER.CONST>
1

>  <SCORE.INTER.POLAR>
0

>  <SCORE.INTER.ROT>
0

>  <SCORE.INTER.SOLV>
6.69397

>  <SCORE.INTER.VDW>
-10.9553

>  <SCORE.INTER.norm>
-0.698722

>  <SCORE.INTRA>
0

>  <SCORE.INTRA.DIHEDRAL>
0

>  <SCORE.INTRA.DIHEDRAL.0>
0

>  <SCORE.INTRA.POLAR>
0

>  <SCORE.INTRA.POLAR.0>
0

>  <SCORE.INTRA.REPUL>
0

>  <SCORE.INTRA.REPUL.0>
0

>  <SCORE.INTRA.SOLV>
0

>  <SCORE.INTRA.SOLV.lig_0>
-48.9252

>  <SCORE.INTRA.VDW>
0

>  <SCORE.INTRA.VDW.0>
0

>  <SCORE.INTRA.norm>
0

>  <SCORE.RESTR>
0

>  <SCORE.RESTR.CAVITY>
0

>  <SCORE.RESTR.norm>
0

>  <SCORE.SYSTEM>
0

>  <SCORE.SYSTEM.CONST>
0

>  <SCORE.SYSTEM.DIHEDRAL>
0

>  <SCORE.SYSTEM.SOLV>
0

>  <SCORE.SYSTEM.norm>
0

>  <SCORE.heavy>
11

>  <SCORE.norm>
-0.698722

>  <RMSD>
11.151

$$$$
ligand
 OpenBabel11021811493D
libRbt.so/2013.1/901 2013/11/27
 11 12  0  0  0  0  0  0  0  0999 V2000
   21.9799   19.0229    7.5542 N   0  0  0  0  0  0  0  0  0  0  0  0
   20.9215   19.8487    7.4618 C   0  0  0  0  0  0  0  0  0  0  0  0
   20.9357   21.0518    8.1529 N   0  0  0  0  0  0  0  0  0  0  0  0
   19.8500   19.5347    6.7167 N   0  0  0  0  0  0  0  0  0  0  0  0
   19.7874   18.3796    6.0356 C   0  0  0  0  0  0  0  0  0  0  0  0
   20.8717   17.4756    6.0965 C   0  0  0  0  0  0  0  0  0  0  0  0
   21.9986   17.8438    6.8965 C   0  0  0  0  0  0  0  0  0  0  0  0
   23.0880   17.0139    6.9999 N   0  0  0  0  0  0  0  0  0  0  0  0
   20.5449   16.4009    5.3231 N   0  0  0  0  0  0  0  0  0  0  0  0
   19.3644   16.5850    4.8128 C   0  0  0  0  0  0  0  0  0  0  0  0
   18.8537   17.7921    5.2180 N   0  0  0  0  0  0  0  0  0  0  0  0
  1  7  2  0  0  0  0
  1  2  1  0  0  0  0
  2  3  1  0  0  0  0
  2  4  2  0  0  0  0
  4  5  1  0  0  0  0
  5  6  2  0  0  0  0
  5 11  1  0  0  0  0
  6  7  1  0  0  0  0
  6  9  1  0  0  0  0
  7  8  1  0  0  0  0
  9 10  1  0  0  0  0
 10 11  2  0  0  0  0
M  END
>  <CHROM.1>
20.75590444,18.28481789,6.49403416,-1.18791876,0.42874494,-2.62845726

>  <Name>
ligand

>  <RI>
0

>  <Rbt.Current_Directory>
/home/itssahil/PROJECTS/Mol_Feturizer/New_Systems/rnas/4FEO

>  <Rbt.Executable>
rbdock ($Id: //depot/dev/client3/rdock/2013.1/src/exe/rbdock.cxx#4 $)

>  <Rbt.Library>
libRbt.so (2013.1, Build901 2013/11/27)

>  <Rbt.Parameter_File>
/export/apps/rDock/src/rDock_2013.1_src/data/scripts/dock_solv.prm

>  <Rbt.Receptor>
prm/blind_docking_40.prm

>  <SCORE>
-7.70098

>  <SCORE.INTER>
-7.70143

>  <SCORE.INTER.CONST>
1

>  <SCORE.INTER.POLAR>
0

>  <SCORE.INTER.ROT>
0

>  <SCORE.INTER.SOLV>
6.63478

>  <SCORE.INTER.VDW>
-10.9459

>  <SCORE.INTER.norm>
-0.70013

>  <SCORE.INTRA>
0

>  <SCORE.INTRA.DIHEDRAL>
0

>  <SCORE.INTRA.DIHEDRAL.0>
0

>  <SCORE.INTRA.POLAR>
0

>  <SCORE.INTRA.POLAR.0>
0

>  <SCORE.INTRA.REPUL>
0

>  <SCORE.INTRA.REPUL.0>
0

>  <SCORE.INTRA.SOLV>
0

>  <SCORE.INTRA.SOLV.lig_0>
-48.9252

>  <SCORE.INTRA.VDW>
0

>  <SCORE.INTRA.VDW.0>
0

>  <SCORE.INTRA.norm>
0

>  <SCORE.RESTR>
0.000449593

>  <SCORE.RESTR.CAVITY>
0.000449593

>  <SCORE.RESTR.norm>
4.08721e-05

>  <SCORE.SYSTEM>
0

>  <SCORE.SYSTEM.CONST>
0

>  <SCORE.SYSTEM.DIHEDRAL>
0

>  <SCORE.SYSTEM.SOLV>
0

>  <SCORE.SYSTEM.norm>
0

>  <SCORE.heavy>
11

>  <SCORE.norm>
-0.700089

>  <RMSD>
11.153

$$$$
ligand
 OpenBabel11021811493D
libRbt.so/2013.1/901 2013/11/27
 11 12  0  0  0  0  0  0  0  0999 V2000
   20.6127   20.3090    7.9291 N   0  0  0  0  0  0  0  0  0  0  0  0
   19.2890   20.4384    7.7249 C   0  0  0  0  0  0  0  0  0  0  0  0
   18.5853   21.4097    8.4224 N   0  0  0  0  0  0  0  0  0  0  0  0
   18.6320   19.6474    6.8619 N   0  0  0  0  0  0  0  0  0  0  0  0
   19.2683   18.6896    6.1693 C   0  0  0  0  0  0  0  0  0  0  0  0
   20.6590   18.5108    6.3445 C   0  0  0  0  0  0  0  0  0  0  0  0
   21.3278   19.3733    7.2686 C   0  0  0  0  0  0  0  0  0  0  0  0
   22.6787   19.2565    7.4872 N   0  0  0  0  0  0  0  0  0  0  0  0
   21.0394   17.4843    5.5311 N   0  0  0  0  0  0  0  0  0  0  0  0
   19.9998   17.0370    4.8930 C   0  0  0  0  0  0  0  0  0  0  0  0
   18.8814   17.7482    5.2476 N   0  0  0  0  0  0  0  0  0  0  0  0
  1  7  2  0  0  0  0
  1  2  1  0  0  0  0
  2  3  1  0  0  0  0
  2  4  2  0  0  0  0
  4  5  1  0  0  0  0
  5  6  2  0  0  0  0
  5 11  1  0  0  0  0
  6  7  1  0  0  0  0
  6  9  1  0  0  0  0
  7  8  1  0  0  0  0
  9 10  1  0  0  0  0
 10 11  2  0  0  0  0
M  END
>  <CHROM.1>
20.08709922,19.10105612,6.73270345,-1.74120490,0.17691969,-2.41731342

>  <Name>
ligand

>  <RI>
0

>  <Rbt.Current_Directory>
/home/itssahil/PROJECTS/Mol_Feturizer/New_Systems/rnas/4FEO

>  <Rbt.Executable>
rbdock ($Id: //depot/dev/client3/rdock/2013.1/src/exe/rbdock.cxx#4 $)

>  <Rbt.Library>
libRbt.so (2013.1, Build901 2013/11/27)

>  <Rbt.Parameter_File>
/export/apps/rDock/src/rDock_2013.1_src/data/scripts/dock_solv.prm

>  <Rbt.Receptor>
prm/blind_docking_40.prm

>  <SCORE>
-8.61298

>  <SCORE.INTER>
-8.69171

>  <SCORE.INTER.CONST>
1

>  <SCORE.INTER.POLAR>
0

>  <SCORE.INTER.ROT>
0

>  <SCORE.INTER.SOLV>
8.92232

>  <SCORE.INTER.VDW>
-12.3686

>  <SCORE.INTER.norm>
-0.790155

>  <SCORE.INTRA>
0

>  <SCORE.INTRA.DIHEDRAL>
0

>  <SCORE.INTRA.DIHEDRAL.0>
0

>  <SCORE.INTRA.POLAR>
0

>  <SCORE.INTRA.POLAR.0>
0

>  <SCORE.INTRA.REPUL>
0

>  <SCORE.INTRA.REPUL.0>
0

>  <SCORE.INTRA.SOLV>
0

>  <SCORE.INTRA.SOLV.lig_0>
-48.9252

>  <SCORE.INTRA.VDW>
0

>  <SCORE.INTRA.VDW.0>
0

>  <SCORE.INTRA.norm>
0

>  <SCORE.RESTR>
0.0787336

>  <SCORE.RESTR.CAVITY>
0.0787336

>  <SCORE.RESTR.norm>
0.0071576

>  <SCORE.SYSTEM>
0

>  <SCORE.SYSTEM.CONST>
0

>  <SCORE.SYSTEM.DIHEDRAL>
0

>  <SCORE.SYSTEM.SOLV>
0

>  <SCORE.SYSTEM.norm>
0

>  <SCORE.heavy>
11

>  <SCORE.norm>
-0.782998

>  <RMSD>
11.153

$$$$
ligand
 OpenBabel11021811493D
libRbt.so/2013.1/901 2013/11/27
 11 12  0  0  0  0  0  0  0  0999 V2000
   20.5080   20.4355    7.8611 N   0  0  0  0  0  0  0  0  0  0  0  0
   19.1849   20.4951    7.6235 C   0  0  0  0  0  0  0  0  0  0  0  0
   18.4199   21.4529    8.2734 N   0  0  0  0  0  0  0  0  0  0  0  0
   18.5866   19.6471    6.7720 N   0  0  0  0  0  0  0  0  0  0  0  0
   19.2835   18.6996    6.1250 C   0  0  0  0  0  0  0  0  0  0  0  0
   20.6765   18.5930    6.3369 C   0  0  0  0  0  0  0  0  0  0  0  0
   21.2818   19.5149    7.2473 C   0  0  0  0  0  0  0  0  0  0  0  0
   22.6312   19.4696    7.4997 N   0  0  0  0  0  0  0  0  0  0  0  0
   21.1240   17.5610    5.5657 N   0  0  0  0  0  0  0  0  0  0  0  0
   20.1221   17.0449    4.9193 C   0  0  0  0  0  0  0  0  0  0  0  0
   18.9634   17.7126    5.2257 N   0  0  0  0  0  0  0  0  0  0  0  0
  1  7  2  0  0  0  0
  1  2  1  0  0  0  0
  2  3  1  0  0  0  0
  2  4  2  0  0  0  0
  4  5  1  0  0  0  0
  5  6  2  0  0  0  0
  5 11  1  0  0  0  0
  6  7  1  0  0  0  0
  6  9  1  0  0  0  0
  7  8  1  0  0  0  0
  9 10  1  0  0  0  0
 10 11  2  0  0  0  0
M  END
>  <CHROM.1>
20.06840455,19.16713123,6.69294021,-1.79291621,0.16335364,-2.44029716

>  <Name>
ligand

>  <RI>
0

>  <Rbt.Current_Directory>
/home/itssahil/PROJECTS/Mol_Feturizer/New_Systems/rnas/4FEO

>  <Rbt.Executable>
rbdock ($Id: //depot/dev/client3/rdock/2013.1/src/exe/rbdock.cxx#4 $)

>  <Rbt.Library>
libRbt.so (2013.1, Build901 2013/11/27)

>  <Rbt.Parameter_File>
/export/apps/rDock/src/rDock_2013.1_src/data/scripts/dock_solv.prm

>  <Rbt.Receptor>
prm/blind_docking_40.prm

>  <SCORE>
-8.46718

>  <SCORE.INTER>
-8.49834

>  <SCORE.INTER.CONST>
1

>  <SCORE.INTER.POLAR>
0

>  <SCORE.INTER.ROT>
0

>  <SCORE.INTER.SOLV>
9.18831

>  <SCORE.INTER.VDW>
-12.3283

>  <SCORE.INTER.norm>
-0.772577

>  <SCORE.INTRA>
0

>  <SCORE.INTRA.DIHEDRAL>
0

>  <SCORE.INTRA.DIHEDRAL.0>
0

>  <SCORE.INTRA.POLAR>
0

>  <SCORE.INTRA.POLAR.0>
0

>  <SCORE.INTRA.REPUL>
0

>  <SCORE.INTRA.REPUL.0>
0

>  <SCORE.INTRA.SOLV>
0

>  <SCORE.INTRA.SOLV.lig_0>
-48.9252

>  <SCORE.INTRA.VDW>
0

>  <SCORE.INTRA.VDW.0>
0

>  <SCORE.INTRA.norm>
0

>  <SCORE.RESTR>
0.0311611

>  <SCORE.RESTR.CAVITY>
0.0311611

>  <SCORE.RESTR.norm>
0.00283282

>  <SCORE.SYSTEM>
0

>  <SCORE.SYSTEM.CONST>
0

>  <SCORE.SYSTEM.DIHEDRAL>
0

>  <SCORE.SYSTEM.SOLV>
0

>  <SCORE.SYSTEM.norm>
0

>  <SCORE.heavy>
11

>  <SCORE.norm>
-0.769744

>  <RMSD>
11.200

$$$$
ligand
 OpenBabel11021811493D
libRbt.so/2013.1/901 2013/11/27
 11 12  0  0  0  0  0  0  0  0999 V2000
   20.4567   20.5641    7.8431 N   0  0  0  0  0  0  0  0  0  0  0  0
   19.1316   20.5666    7.6093 C   0  0  0  0  0  0  0  0  0  0  0  0
   18.3319   21.5093    8.2394 N   0  0  0  0  0  0  0  0  0  0  0  0
   18.5641   19.6761    6.7805 N   0  0  0  0  0  0  0  0  0  0  0  0
   19.2953   18.7411    6.1534 C   0  0  0  0  0  0  0  0  0  0  0  0
   20.6920   18.6936    6.3623 C   0  0  0  0  0  0  0  0  0  0  0  0
   21.2639   19.6597    7.2483 C   0  0  0  0  0  0  0  0  0  0  0  0
   22.6147   19.6728    7.4963 N   0  0  0  0  0  0  0  0  0  0  0  0
   21.1769   17.6617    5.6140 N   0  0  0  0  0  0  0  0  0  0  0  0
   20.1939   17.0919    4.9840 C   0  0  0  0  0  0  0  0  0  0  0  0
   19.0110   17.7213    5.2791 N   0  0  0  0  0  0  0  0  0  0  0  0
  1  7  2  0  0  0  0
  1  2  1  0  0  0  0
  2  3  1  0  0  0  0
  2  4  2  0  0  0  0
  4  5  1  0  0  0  0
  5  6  2  0  0  0  0
  5 11  1  0  0  0  0
  6  7  1  0  0  0  0
  6  9  1  0  0  0  0
  7  8  1  0  0  0  0
  9 10  1  0  0  0  0
 10 11  2  0  0  0  0
M  END
>  <CHROM.1>
20.06318572,19.25209161,6.70705975,-1.82089258,0.13591596,-2.45989167

>  <Name>
ligand

>  <RI>
0

>  <Rbt.Current_Directory>
/home/itssahil/PROJECTS/Mol_Feturizer/New_Systems/rnas/4FEO

>  <Rbt.Executable>
rbdock ($Id: //depot/dev/client3/rdock/2013.1/src/exe/rbdock.cxx#4 $)

>  <Rbt.Library>
libRbt.so (2013.1, Build901 2013/11/27)

>  <Rbt.Parameter_File>
/export/apps/rDock/src/rDock_2013.1_src/data/scripts/dock_solv.prm

>  <Rbt.Receptor>
prm/blind_docking_40.prm

>  <SCORE>
-8.32817

>  <SCORE.INTER>
-8.34287

>  <SCORE.INTER.CONST>
1

>  <SCORE.INTER.POLAR>
0

>  <SCORE.INTER.ROT>
0

>  <SCORE.INTER.SOLV>
8.85182

>  <SCORE.INTER.VDW>
-12.1125

>  <SCORE.INTER.norm>
-0.758442

>  <SCORE.INTRA>
0

>  <SCORE.INTRA.DIHEDRAL>
0

>  <SCORE.INTRA.DIHEDRAL.0>
0

>  <SCORE.INTRA.POLAR>
0

>  <SCORE.INTRA.POLAR.0>
0

>  <SCORE.INTRA.REPUL>
0

>  <SCORE.INTRA.REPUL.0>
0

>  <SCORE.INTRA.SOLV>
0

>  <SCORE.INTRA.SOLV.lig_0>
-48.9252

>  <SCORE.INTRA.VDW>
0

>  <SCORE.INTRA.VDW.0>
0

>  <SCORE.INTRA.norm>
0

>  <SCORE.RESTR>
0.0146936

>  <SCORE.RESTR.CAVITY>
0.0146936

>  <SCORE.RESTR.norm>
0.00133578

>  <SCORE.SYSTEM>
0

>  <SCORE.SYSTEM.CONST>
0

>  <SCORE.SYSTEM.DIHEDRAL>
0

>  <SCORE.SYSTEM.SOLV>
0

>  <SCORE.SYSTEM.norm>
0

>  <SCORE.heavy>
11

>  <SCORE.norm>
-0.757106

>  <RMSD>
11.259

$$$$
ligand
 OpenBabel11021811493D
libRbt.so/2013.1/901 2013/11/27
 11 12  0  0  0  0  0  0  0  0999 V2000
    0.6605   13.6361    2.9772 N   0  0  0  0  0  0  0  0  0  0  0  0
    0.6517   14.1028    4.2393 C   0  0  0  0  0  0  0  0  0  0  0  0
    0.1272   15.3616    4.4950 N   0  0  0  0  0  0  0  0  0  0  0  0
    1.1406   13.3783    5.2582 N   0  0  0  0  0  0  0  0  0  0  0  0
    1.6642   12.1583    5.0594 C   0  0  0  0  0  0  0  0  0  0  0  0
    1.6979   11.6193    3.7537 C   0  0  0  0  0  0  0  0  0  0  0  0
    1.1649   12.4164    2.6926 C   0  0  0  0  0  0  0  0  0  0  0  0
    1.1639   11.9546    1.3992 N   0  0  0  0  0  0  0  0  0  0  0  0
    2.2746   10.3865    3.8409 N   0  0  0  0  0  0  0  0  0  0  0  0
    2.5885   10.1483    5.0789 C   0  0  0  0  0  0  0  0  0  0  0  0
    2.2304   11.2082    5.8731 N   0  0  0  0  0  0  0  0  0  0  0  0
  1  7  2  0  0  0  0
  1  2  1  0  0  0  0
  2  3  1  0  0  0  0
  2  4  2  0  0  0  0
  4  5  1  0  0  0  0
  5  6  2  0  0  0  0
  5 11  1  0  0  0  0
  6  7  1  0  0  0  0
  6  9  1  0  0  0  0
  7  8  1  0  0  0  0
  9 10  1  0  0  0  0
 10 11  2  0  0  0  0
M  END
>  <CHROM.1>
1.38591451,12.41866918,4.05346969,3.01182516,-1.12171011,1.22692469

>  <Name>
ligand

>  <RI>
0

>  <Rbt.Current_Directory>
/home/itssahil/PROJECTS/Mol_Feturizer/New_Systems/rnas/4FEO

>  <Rbt.Executable>
rbdock ($Id: //depot/dev/client3/rdock/2013.1/src/exe/rbdock.cxx#4 $)

>  <Rbt.Library>
libRbt.so (2013.1, Build901 2013/11/27)

>  <Rbt.Parameter_File>
/export/apps/rDock/src/rDock_2013.1_src/data/scripts/dock_solv.prm

>  <Rbt.Receptor>
prm/blind_docking_40.prm

>  <SCORE>
-8.72651

>  <SCORE.INTER>
-8.72686

>  <SCORE.INTER.CONST>
1

>  <SCORE.INTER.POLAR>
0

>  <SCORE.INTER.ROT>
0

>  <SCORE.INTER.SOLV>
3.29458

>  <SCORE.INTER.VDW>
-10.5161

>  <SCORE.INTER.norm>
-0.793351

>  <SCORE.INTRA>
0

>  <SCORE.INTRA.DIHEDRAL>
0

>  <SCORE.INTRA.DIHEDRAL.0>
0

>  <SCORE.INTRA.POLAR>
0

>  <SCORE.INTRA.POLAR.0>
0

>  <SCORE.INTRA.REPUL>
0

>  <SCORE.INTRA.REPUL.0>
0

>  <SCORE.INTRA.SOLV>
0

>  <SCORE.INTRA.SOLV.lig_0>
-48.9252

>  <SCORE.INTRA.VDW>
0

>  <SCORE.INTRA.VDW.0>
0

>  <SCORE.INTRA.norm>
0

>  <SCORE.RESTR>
0.000352389

>  <SCORE.RESTR.CAVITY>
0.000352389

>  <SCORE.RESTR.norm>
3.20353e-05

>  <SCORE.SYSTEM>
0

>  <SCORE.SYSTEM.CONST>
0

>  <SCORE.SYSTEM.DIHEDRAL>
0

>  <SCORE.SYSTEM.SOLV>
0

>  <SCORE.SYSTEM.norm>
0

>  <SCORE.heavy>
11

>  <SCORE.norm>
-0.793319

>  <RMSD>
11.259

$$$$
ligand
 OpenBabel11021811493D
libRbt.so/2013.1/901 2013/11/27
 11 12  0  0  0  0  0  0  0  0999 V2000
   20.7185   20.3683    7.5845 N   0  0  0  0  0  0  0  0  0  0  0  0
   19.3796   20.3927    7.4521 C   0  0  0  0  0  0  0  0  0  0  0  0
   18.6468   21.3554    8.1311 N   0  0  0  0  0  0  0  0  0  0  0  0
   18.7353   19.5050    6.6782 N   0  0  0  0  0  0  0  0  0  0  0  0
   19.4003   18.5512    6.0073 C   0  0  0  0  0  0  0  0  0  0  0  0
   20.8079   18.4804    6.1099 C   0  0  0  0  0  0  0  0  0  0  0  0
   21.4622   19.4441    6.9396 C   0  0  0  0  0  0  0  0  0  0  0  0
   22.8280   19.4350    7.0842 N   0  0  0  0  0  0  0  0  0  0  0  0
   21.2164   17.4330    5.3379 N   0  0  0  0  0  0  0  0  0  0  0  0
   20.1785   16.8753    4.7904 C   0  0  0  0  0  0  0  0  0  0  0  0
   19.0327   17.5286    5.1679 N   0  0  0  0  0  0  0  0  0  0  0  0
  1  7  2  0  0  0  0
  1  2  1  0  0  0  0
  2  3  1  0  0  0  0
  2  4  2  0  0  0  0
  4  5  1  0  0  0  0
  5  6  2  0  0  0  0
  5 11  1  0  0  0  0
  6  7  1  0  0  0  0
  6  9  1  0  0  0  0
  7  8  1  0  0  0  0
  9 10  1  0  0  0  0
 10 11  2  0  0  0  0
M  END
>  <CHROM.1>
20.21687640,19.05326429,6.49555257,-1.75916922,0.08743957,-2.47668033

>  <Name>
ligand

>  <RI>
0

>  <Rbt.Current_Directory>
/home/itssahil/PROJECTS/Mol_Feturizer/New_Systems/rnas/4FEO

>  <Rbt.Executable>
rbdock ($Id: //depot/dev/client3/rdock/2013.1/src/exe/rbdock.cxx#4 $)

>  <Rbt.Library>
libRbt.so (2013.1, Build901 2013/11/27)

>  <Rbt.Parameter_File>
/export/apps/rDock/src/rDock_2013.1_src/data/scripts/dock_solv.prm

>  <Rbt.Receptor>
prm/blind_docking_80.prm

>  <SCORE>
-8.92766

>  <SCORE.INTER>
-8.92766

>  <SCORE.INTER.CONST>
1

>  <SCORE.INTER.POLAR>
0

>  <SCORE.INTER.ROT>
0

>  <SCORE.INTER.SOLV>
7.16434

>  <SCORE.INTER.VDW>
-11.9399

>  <SCORE.INTER.norm>
-0.811606

>  <SCORE.INTRA>
0

>  <SCORE.INTRA.DIHEDRAL>
0

>  <SCORE.INTRA.DIHEDRAL.0>
0

>  <SCORE.INTRA.POLAR>
0

>  <SCORE.INTRA.POLAR.0>
0

>  <SCORE.INTRA.REPUL>
0

>  <SCORE.INTRA.REPUL.0>
0

>  <SCORE.INTRA.SOLV>
0

>  <SCORE.INTRA.SOLV.lig_0>
-48.9252

>  <SCORE.INTRA.VDW>
0

>  <SCORE.INTRA.VDW.0>
0

>  <SCORE.INTRA.norm>
0

>  <SCORE.RESTR>
0

>  <SCORE.RESTR.CAVITY>
0

>  <SCORE.RESTR.norm>
0

>  <SCORE.SYSTEM>
0

>  <SCORE.SYSTEM.CONST>
0

>  <SCORE.SYSTEM.DIHEDRAL>
0

>  <SCORE.SYSTEM.SOLV>
0

>  <SCORE.SYSTEM.norm>
0

>  <SCORE.heavy>
11

>  <SCORE.norm>
-0.811606

>  <RMSD>
11.265

$$$$
ligand
 OpenBabel11021811493D
libRbt.so/2013.1/901 2013/11/27
 11 12  0  0  0  0  0  0  0  0999 V2000
   20.4524   20.6156    7.8780 N   0  0  0  0  0  0  0  0  0  0  0  0
   19.1234   20.6246    7.6669 C   0  0  0  0  0  0  0  0  0  0  0  0
   18.3384   21.5668    8.3157 N   0  0  0  0  0  0  0  0  0  0  0  0
   18.5384   19.7408    6.8431 N   0  0  0  0  0  0  0  0  0  0  0  0
   19.2550   18.8065    6.1985 C   0  0  0  0  0  0  0  0  0  0  0  0
   20.6549   18.7525    6.3832 C   0  0  0  0  0  0  0  0  0  0  0  0
   21.2456   19.7114    7.2645 C   0  0  0  0  0  0  0  0  0  0  0  0
   22.6005   19.7179    7.4894 N   0  0  0  0  0  0  0  0  0  0  0  0
   21.1229   17.7228    5.6211 N   0  0  0  0  0  0  0  0  0  0  0  0
   20.1270   17.1603    5.0049 C   0  0  0  0  0  0  0  0  0  0  0  0
   18.9518   17.7926    5.3237 N   0  0  0  0  0  0  0  0  0  0  0  0
  1  7  2  0  0  0  0
  1  2  1  0  0  0  0
  2  3  1  0  0  0  0
  2  4  2  0  0  0  0
  4  5  1  0  0  0  0
  5  6  2  0  0  0  0
  5 11  1  0  0  0  0
  6  7  1  0  0  0  0
  6  9  1  0  0  0  0
  7  8  1  0  0  0  0
  9 10  1  0  0  0  0
 10 11  2  0  0  0  0
M  END
>  <CHROM.1>
20.03427307,19.31144195,6.74168795,-1.80693339,0.12513056,-2.45623989

>  <Name>
ligand

>  <RI>
0

>  <Rbt.Current_Directory>
/home/itssahil/PROJECTS/Mol_Feturizer/New_Systems/rnas/4FEO

>  <Rbt.Executable>
rbdock ($Id: //depot/dev/client3/rdock/2013.1/src/exe/rbdock.cxx#4 $)

>  <Rbt.Library>
libRbt.so (2013.1, Build901 2013/11/27)

>  <Rbt.Parameter_File>
/export/apps/rDock/src/rDock_2013.1_src/data/scripts/dock_solv.prm

>  <Rbt.Receptor>
prm/blind_docking_40.prm

>  <SCORE>
-8.29341

>  <SCORE.INTER>
-8.29395

>  <SCORE.INTER.CONST>
1

>  <SCORE.INTER.POLAR>
0

>  <SCORE.INTER.ROT>
0

>  <SCORE.INTER.SOLV>
8.48983

>  <SCORE.INTER.VDW>
-11.9592

>  <SCORE.INTER.norm>
-0.753996

>  <SCORE.INTRA>
0

>  <SCORE.INTRA.DIHEDRAL>
0

>  <SCORE.INTRA.DIHEDRAL.0>
0

>  <SCORE.INTRA.POLAR>
0

>  <SCORE.INTRA.POLAR.0>
0

>  <SCORE.INTRA.REPUL>
0

>  <SCORE.INTRA.REPUL.0>
0

>  <SCORE.INTRA.SOLV>
0

>  <SCORE.INTRA.SOLV.lig_0>
-48.9252

>  <SCORE.INTRA.VDW>
0

>  <SCORE.INTRA.VDW.0>
0

>  <SCORE.INTRA.norm>
0

>  <SCORE.RESTR>
0.000545855

>  <SCORE.RESTR.CAVITY>
0.000545855

>  <SCORE.RESTR.norm>
4.96232e-05

>  <SCORE.SYSTEM>
0

>  <SCORE.SYSTEM.CONST>
0

>  <SCORE.SYSTEM.DIHEDRAL>
0

>  <SCORE.SYSTEM.SOLV>
0

>  <SCORE.SYSTEM.norm>
0

>  <SCORE.heavy>
11

>  <SCORE.norm>
-0.753946

>  <RMSD>
11.268

$$$$
ligand
 OpenBabel11021811493D
libRbt.so/2013.1/901 2013/11/27
 11 12  0  0  0  0  0  0  0  0999 V2000
   20.7632   20.3164    7.6049 N   0  0  0  0  0  0  0  0  0  0  0  0
   19.4220   20.3219    7.4966 C   0  0  0  0  0  0  0  0  0  0  0  0
   18.6869   21.2646    8.2010 N   0  0  0  0  0  0  0  0  0  0  0  0
   18.7774   19.4344    6.7228 N   0  0  0  0  0  0  0  0  0  0  0  0
   19.4446   18.4995    6.0278 C   0  0  0  0  0  0  0  0  0  0  0  0
   20.8546   18.4490    6.1045 C   0  0  0  0  0  0  0  0  0  0  0  0
   21.5091   19.4119    6.9350 C   0  0  0  0  0  0  0  0  0  0  0  0
   22.8772   19.4220    7.0551 N   0  0  0  0  0  0  0  0  0  0  0  0
   21.2650   17.4179    5.3119 N   0  0  0  0  0  0  0  0  0  0  0  0
   20.2260   16.8514    4.7757 C   0  0  0  0  0  0  0  0  0  0  0  0
   19.0774   17.4822    5.1819 N   0  0  0  0  0  0  0  0  0  0  0  0
  1  7  2  0  0  0  0
  1  2  1  0  0  0  0
  2  3  1  0  0  0  0
  2  4  2  0  0  0  0
  4  5  1  0  0  0  0
  5  6  2  0  0  0  0
  5 11  1  0  0  0  0
  6  7  1  0  0  0  0
  6  9  1  0  0  0  0
  7  8  1  0  0  0  0
  9 10  1  0  0  0  0
 10 11  2  0  0  0  0
M  END
>  <CHROM.1>
20.26205134,19.00779784,6.50801909,-1.75998668,0.06400404,-2.46374871

>  <Name>
ligand

>  <RI>
0

>  <Rbt.Current_Directory>
/home/itssahil/PROJECTS/Mol_Feturizer/New_Systems/rnas/4FEO

>  <Rbt.Executable>
rbdock ($Id: //depot/dev/client3/rdock/2013.1/src/exe/rbdock.cxx#4 $)

>  <Rbt.Library>
libRbt.so (2013.1, Build901 2013/11/27)

>  <Rbt.Parameter_File>
/export/apps/rDock/src/rDock_2013.1_src/data/scripts/dock_solv.prm

>  <Rbt.Receptor>
prm/blind_docking_60.prm

>  <SCORE>
-8.93793

>  <SCORE.INTER>
-8.93793

>  <SCORE.INTER.CONST>
1

>  <SCORE.INTER.POLAR>
0

>  <SCORE.INTER.ROT>
0

>  <SCORE.INTER.SOLV>
7.0929

>  <SCORE.INTER.VDW>
-11.9229

>  <SCORE.INTER.norm>
-0.812539

>  <SCORE.INTRA>
0

>  <SCORE.INTRA.DIHEDRAL>
0

>  <SCORE.INTRA.DIHEDRAL.0>
0

>  <SCORE.INTRA.POLAR>
0

>  <SCORE.INTRA.POLAR.0>
0

>  <SCORE.INTRA.REPUL>
0

>  <SCORE.INTRA.REPUL.0>
0

>  <SCORE.INTRA.SOLV>
0

>  <SCORE.INTRA.SOLV.lig_0>
-48.9252

>  <SCORE.INTRA.VDW>
0

>  <SCORE.INTRA.VDW.0>
0

>  <SCORE.INTRA.norm>
0

>  <SCORE.RESTR>
0

>  <SCORE.RESTR.CAVITY>
0

>  <SCORE.RESTR.norm>
0

>  <SCORE.SYSTEM>
0

>  <SCORE.SYSTEM.CONST>
0

>  <SCORE.SYSTEM.DIHEDRAL>
0

>  <SCORE.SYSTEM.SOLV>
0

>  <SCORE.SYSTEM.norm>
0

>  <SCORE.heavy>
11

>  <SCORE.norm>
-0.812539

>  <RMSD>
11.270

$$$$
ligand
 OpenBabel11021811493D
libRbt.so/2013.1/901 2013/11/27
 11 12  0  0  0  0  0  0  0  0999 V2000
   20.7557   20.3665    7.6035 N   0  0  0  0  0  0  0  0  0  0  0  0
   19.4154   20.3893    7.4856 C   0  0  0  0  0  0  0  0  0  0  0  0
   18.6886   21.3492    8.1751 N   0  0  0  0  0  0  0  0  0  0  0  0
   18.7640   19.5026    6.7165 N   0  0  0  0  0  0  0  0  0  0  0  0
   19.4231   18.5516    6.0359 C   0  0  0  0  0  0  0  0  0  0  0  0
   20.8318   18.4826    6.1231 C   0  0  0  0  0  0  0  0  0  0  0  0
   21.4937   19.4451    6.9482 C   0  0  0  0  0  0  0  0  0  0  0  0
   22.8610   19.4377    7.0779 N   0  0  0  0  0  0  0  0  0  0  0  0
   21.2335   17.4378    5.3439 N   0  0  0  0  0  0  0  0  0  0  0  0
   20.1905   16.8800    4.8063 C   0  0  0  0  0  0  0  0  0  0  0  0
   19.0479   17.5307    5.1979 N   0  0  0  0  0  0  0  0  0  0  0  0
  1  7  2  0  0  0  0
  1  2  1  0  0  0  0
  2  3  1  0  0  0  0
  2  4  2  0  0  0  0
  4  5  1  0  0  0  0
  5  6  2  0  0  0  0
  5 11  1  0  0  0  0
  6  7  1  0  0  0  0
  6  9  1  0  0  0  0
  7  8  1  0  0  0  0
  9 10  1  0  0  0  0
 10 11  2  0  0  0  0
M  END
>  <CHROM.1>
20.24418252,19.05359831,6.51660920,-1.75360254,0.07800864,-2.47452414

>  <Name>
ligand

>  <RI>
0

>  <Rbt.Current_Directory>
/home/itssahil/PROJECTS/Mol_Feturizer/New_Systems/rnas/4FEO

>  <Rbt.Executable>
rbdock ($Id: //depot/dev/client3/rdock/2013.1/src/exe/rbdock.cxx#4 $)

>  <Rbt.Library>
libRbt.so (2013.1, Build901 2013/11/27)

>  <Rbt.Parameter_File>
/export/apps/rDock/src/rDock_2013.1_src/data/scripts/dock_solv.prm

>  <Rbt.Receptor>
prm/blind_docking_60.prm

>  <SCORE>
-8.95614

>  <SCORE.INTER>
-8.95614

>  <SCORE.INTER.CONST>
1

>  <SCORE.INTER.POLAR>
0

>  <SCORE.INTER.ROT>
0

>  <SCORE.INTER.SOLV>
6.88661

>  <SCORE.INTER.VDW>
-11.8663

>  <SCORE.INTER.norm>
-0.814195

>  <SCORE.INTRA>
0

>  <SCORE.INTRA.DIHEDRAL>
0

>  <SCORE.INTRA.DIHEDRAL.0>
0

>  <SCORE.INTRA.POLAR>
0

>  <SCORE.INTRA.POLAR.0>
0

>  <SCORE.INTRA.REPUL>
0

>  <SCORE.INTRA.REPUL.0>
0

>  <SCORE.INTRA.SOLV>
0

>  <SCORE.INTRA.SOLV.lig_0>
-48.9252

>  <SCORE.INTRA.VDW>
0

>  <SCORE.INTRA.VDW.0>
0

>  <SCORE.INTRA.norm>
0

>  <SCORE.RESTR>
0

>  <SCORE.RESTR.CAVITY>
0

>  <SCORE.RESTR.norm>
0

>  <SCORE.SYSTEM>
0

>  <SCORE.SYSTEM.CONST>
0

>  <SCORE.SYSTEM.DIHEDRAL>
0

>  <SCORE.SYSTEM.SOLV>
0

>  <SCORE.SYSTEM.norm>
0

>  <SCORE.heavy>
11

>  <SCORE.norm>
-0.814195

>  <RMSD>
11.283

$$$$
ligand
 OpenBabel11021811493D
libRbt.so/2013.1/901 2013/11/27
 11 12  0  0  0  0  0  0  0  0999 V2000
    0.5458   13.5973    3.0074 N   0  0  0  0  0  0  0  0  0  0  0  0
    0.5757   14.0744    4.2652 C   0  0  0  0  0  0  0  0  0  0  0  0
    0.0504   15.3314    4.5281 N   0  0  0  0  0  0  0  0  0  0  0  0
    1.1042   13.3622    5.2729 N   0  0  0  0  0  0  0  0  0  0  0  0
    1.6303   12.1445    5.0666 C   0  0  0  0  0  0  0  0  0  0  0  0
    1.6243   11.5948    3.7648 C   0  0  0  0  0  0  0  0  0  0  0  0
    1.0499   12.3790    2.7159 C   0  0  0  0  0  0  0  0  0  0  0  0
    1.0089   11.9063    1.4270 N   0  0  0  0  0  0  0  0  0  0  0  0
    2.2131   10.3672    3.8427 N   0  0  0  0  0  0  0  0  0  0  0  0
    2.5703   10.1417    5.0713 C   0  0  0  0  0  0  0  0  0  0  0  0
    2.2309   11.2055    5.8684 N   0  0  0  0  0  0  0  0  0  0  0  0
  1  7  2  0  0  0  0
  1  2  1  0  0  0  0
  2  3  1  0  0  0  0
  2  4  2  0  0  0  0
  4  5  1  0  0  0  0
  5  6  2  0  0  0  0
  5 11  1  0  0  0  0
  6  7  1  0  0  0  0
  6  9  1  0  0  0  0
  7  8  1  0  0  0  0
  9 10  1  0  0  0  0
 10 11  2  0  0  0  0
M  END
>  <CHROM.1>
1.31636968,12.39433469,4.06845626,2.94757222,-1.10223006,1.16104429

>  <Name>
ligand

>  <RI>
0

>  <Rbt.Current_Directory>
/home/itssahil/PROJECTS/Mol_Feturizer/New_Systems/rnas/4FEO

>  <Rbt.Executable>
rbdock ($Id: //depot/dev/client3/rdock/2013.1/src/exe/rbdock.cxx#4 $)

>  <Rbt.Library>
libRbt.so (2013.1, Build901 2013/11/27)

>  <Rbt.Parameter_File>
/export/apps/rDock/src/rDock_2013.1_src/data/scripts/dock_solv.prm

>  <Rbt.Receptor>
prm/blind_docking_40.prm

>  <SCORE>
-8.76424

>  <SCORE.INTER>
-8.76444

>  <SCORE.INTER.CONST>
1

>  <SCORE.INTER.POLAR>
0

>  <SCORE.INTER.ROT>
0

>  <SCORE.INTER.SOLV>
2.6825

>  <SCORE.INTER.VDW>
-10.3371

>  <SCORE.INTER.norm>
-0.796767

>  <SCORE.INTRA>
0

>  <SCORE.INTRA.DIHEDRAL>
0

>  <SCORE.INTRA.DIHEDRAL.0>
0

>  <SCORE.INTRA.POLAR>
0

>  <SCORE.INTRA.POLAR.0>
0

>  <SCORE.INTRA.REPUL>
0

>  <SCORE.INTRA.REPUL.0>
0

>  <SCORE.INTRA.SOLV>
0

>  <SCORE.INTRA.SOLV.lig_0>
-48.9252

>  <SCORE.INTRA.VDW>
0

>  <SCORE.INTRA.VDW.0>
0

>  <SCORE.INTRA.norm>
0

>  <SCORE.RESTR>
0.000202814

>  <SCORE.RESTR.CAVITY>
0.000202814

>  <SCORE.RESTR.norm>
1.84377e-05

>  <SCORE.SYSTEM>
0

>  <SCORE.SYSTEM.CONST>
0

>  <SCORE.SYSTEM.DIHEDRAL>
0

>  <SCORE.SYSTEM.SOLV>
0

>  <SCORE.SYSTEM.norm>
0

>  <SCORE.heavy>
11

>  <SCORE.norm>
-0.796749

>  <RMSD>
11.316

$$$$
ligand
 OpenBabel11021811493D
libRbt.so/2013.1/901 2013/11/27
 11 12  0  0  0  0  0  0  0  0999 V2000
    2.1808    9.7746    1.5628 N   0  0  0  0  0  0  0  0  0  0  0  0
    1.9637   11.0145    1.0873 C   0  0  0  0  0  0  0  0  0  0  0  0
    1.9281   11.2200   -0.2844 N   0  0  0  0  0  0  0  0  0  0  0  0
    1.7818   12.0593    1.9104 N   0  0  0  0  0  0  0  0  0  0  0  0
    1.8141   11.9113    3.2442 C   0  0  0  0  0  0  0  0  0  0  0  0
    2.0377   10.6305    3.7975 C   0  0  0  0  0  0  0  0  0  0  0  0
    2.2235    9.5395    2.8918 C   0  0  0  0  0  0  0  0  0  0  0  0
    2.4438    8.2672    3.3601 N   0  0  0  0  0  0  0  0  0  0  0  0
    2.0216   10.7687    5.1542 N   0  0  0  0  0  0  0  0  0  0  0  0
    1.8122   12.0154    5.4542 C   0  0  0  0  0  0  0  0  0  0  0  0
    1.6738   12.7629    4.3121 N   0  0  0  0  0  0  0  0  0  0  0  0
  1  7  2  0  0  0  0
  1  2  1  0  0  0  0
  2  3  1  0  0  0  0
  2  4  2  0  0  0  0
  4  5  1  0  0  0  0
  5  6  2  0  0  0  0
  5 11  1  0  0  0  0
  6  7  1  0  0  0  0
  6  9  1  0  0  0  0
  7  8  1  0  0  0  0
  9 10  1  0  0  0  0
 10 11  2  0  0  0  0
M  END
>  <CHROM.1>
1.99050359,10.89775816,2.93001104,-1.37152124,-1.40020039,1.55044256

>  <Name>
ligand

>  <RI>
0

>  <Rbt.Current_Directory>
/home/itssahil/PROJECTS/Mol_Feturizer/New_Systems/rnas/4FEO

>  <Rbt.Executable>
rbdock ($Id: //depot/dev/client3/rdock/2013.1/src/exe/rbdock.cxx#4 $)

>  <Rbt.Library>
libRbt.so (2013.1, Build901 2013/11/27)

>  <Rbt.Parameter_File>
/export/apps/rDock/src/rDock_2013.1_src/data/scripts/dock_solv.prm

>  <Rbt.Receptor>
prm/blind_docking_20.prm

>  <SCORE>
-4.51345

>  <SCORE.INTER>
-4.51345

>  <SCORE.INTER.CONST>
1

>  <SCORE.INTER.POLAR>
0

>  <SCORE.INTER.ROT>
0

>  <SCORE.INTER.SOLV>
11.1664

>  <SCORE.INTER.VDW>
-10.3311

>  <SCORE.INTER.norm>
-0.410314

>  <SCORE.INTRA>
0

>  <SCORE.INTRA.DIHEDRAL>
0

>  <SCORE.INTRA.DIHEDRAL.0>
0

>  <SCORE.INTRA.POLAR>
0

>  <SCORE.INTRA.POLAR.0>
0

>  <SCORE.INTRA.REPUL>
0

>  <SCORE.INTRA.REPUL.0>
0

>  <SCORE.INTRA.SOLV>
0

>  <SCORE.INTRA.SOLV.lig_0>
-48.9252

>  <SCORE.INTRA.VDW>
0

>  <SCORE.INTRA.VDW.0>
0

>  <SCORE.INTRA.norm>
0

>  <SCORE.RESTR>
0

>  <SCORE.RESTR.CAVITY>
0

>  <SCORE.RESTR.norm>
0

>  <SCORE.SYSTEM>
0

>  <SCORE.SYSTEM.CONST>
0

>  <SCORE.SYSTEM.DIHEDRAL>
0

>  <SCORE.SYSTEM.SOLV>
0

>  <SCORE.SYSTEM.norm>
0

>  <SCORE.heavy>
11

>  <SCORE.norm>
-0.410314

>  <RMSD>
11.317

$$$$
ligand
 OpenBabel11021811493D
libRbt.so/2013.1/901 2013/11/27
 11 12  0  0  0  0  0  0  0  0999 V2000
    2.1745    9.7769    1.5703 N   0  0  0  0  0  0  0  0  0  0  0  0
    1.9796   11.0200    1.0935 C   0  0  0  0  0  0  0  0  0  0  0  0
    1.9599   11.2267   -0.2783 N   0  0  0  0  0  0  0  0  0  0  0  0
    1.8049   12.0668    1.9155 N   0  0  0  0  0  0  0  0  0  0  0  0
    1.8225   11.9177    3.2495 C   0  0  0  0  0  0  0  0  0  0  0  0
    2.0226   10.6335    3.8040 C   0  0  0  0  0  0  0  0  0  0  0  0
    2.2013    9.5404    2.8994 C   0  0  0  0  0  0  0  0  0  0  0  0
    2.3990    8.2649    3.3689 N   0  0  0  0  0  0  0  0  0  0  0  0
    1.9956   10.7713    5.1606 N   0  0  0  0  0  0  0  0  0  0  0  0
    1.8012   12.0206    5.4595 C   0  0  0  0  0  0  0  0  0  0  0  0
    1.6843   12.7707    4.3166 N   0  0  0  0  0  0  0  0  0  0  0  0
  1  7  2  0  0  0  0
  1  2  1  0  0  0  0
  2  3  1  0  0  0  0
  2  4  2  0  0  0  0
  4  5  1  0  0  0  0
  5  6  2  0  0  0  0
  5 11  1  0  0  0  0
  6  7  1  0  0  0  0
  6  9  1  0  0  0  0
  7  8  1  0  0  0  0
  9 10  1  0  0  0  0
 10 11  2  0  0  0  0
M  END
>  <CHROM.1>
1.98737864,10.90189573,2.93631247,-1.31280826,-1.41440547,1.60896658

>  <Name>
ligand

>  <RI>
0

>  <Rbt.Current_Directory>
/home/itssahil/PROJECTS/Mol_Feturizer/New_Systems/rnas/4FEO

>  <Rbt.Executable>
rbdock ($Id: //depot/dev/client3/rdock/2013.1/src/exe/rbdock.cxx#4 $)

>  <Rbt.Library>
libRbt.so (2013.1, Build901 2013/11/27)

>  <Rbt.Parameter_File>
/export/apps/rDock/src/rDock_2013.1_src/data/scripts/dock_solv.prm

>  <Rbt.Receptor>
prm/blind_docking_20.prm

>  <SCORE>
-4.50372

>  <SCORE.INTER>
-4.50372

>  <SCORE.INTER.CONST>
1

>  <SCORE.INTER.POLAR>
0

>  <SCORE.INTER.ROT>
0

>  <SCORE.INTER.SOLV>
11.1316

>  <SCORE.INTER.VDW>
-10.313

>  <SCORE.INTER.norm>
-0.409429

>  <SCORE.INTRA>
0

>  <SCORE.INTRA.DIHEDRAL>
0

>  <SCORE.INTRA.DIHEDRAL.0>
0

>  <SCORE.INTRA.POLAR>
0

>  <SCORE.INTRA.POLAR.0>
0

>  <SCORE.INTRA.REPUL>
0

>  <SCORE.INTRA.REPUL.0>
0

>  <SCORE.INTRA.SOLV>
0

>  <SCORE.INTRA.SOLV.lig_0>
-48.9252

>  <SCORE.INTRA.VDW>
0

>  <SCORE.INTRA.VDW.0>
0

>  <SCORE.INTRA.norm>
0

>  <SCORE.RESTR>
0

>  <SCORE.RESTR.CAVITY>
0

>  <SCORE.RESTR.norm>
0

>  <SCORE.SYSTEM>
0

>  <SCORE.SYSTEM.CONST>
0

>  <SCORE.SYSTEM.DIHEDRAL>
0

>  <SCORE.SYSTEM.SOLV>
0

>  <SCORE.SYSTEM.norm>
0

>  <SCORE.heavy>
11

>  <SCORE.norm>
-0.409429

>  <RMSD>
11.317

$$$$
ligand
 OpenBabel11021811493D
libRbt.so/2013.1/901 2013/11/27
 11 12  0  0  0  0  0  0  0  0999 V2000
   20.8068   20.3958    7.6953 N   0  0  0  0  0  0  0  0  0  0  0  0
   19.4648   20.4116    7.5981 C   0  0  0  0  0  0  0  0  0  0  0  0
   18.7419   21.3500    8.3206 N   0  0  0  0  0  0  0  0  0  0  0  0
   18.8079   19.5385    6.8183 N   0  0  0  0  0  0  0  0  0  0  0  0
   19.4630   18.6083    6.1058 C   0  0  0  0  0  0  0  0  0  0  0  0
   20.8733   18.5473    6.1702 C   0  0  0  0  0  0  0  0  0  0  0  0
   21.5410   19.4951    7.0076 C   0  0  0  0  0  0  0  0  0  0  0  0
   22.9101   19.4945    7.1165 N   0  0  0  0  0  0  0  0  0  0  0  0
   21.2702   17.5239    5.3610 N   0  0  0  0  0  0  0  0  0  0  0  0
   20.2230   16.9713    4.8262 C   0  0  0  0  0  0  0  0  0  0  0  0
   19.0821   17.6044    5.2499 N   0  0  0  0  0  0  0  0  0  0  0  0
  1  7  2  0  0  0  0
  1  2  1  0  0  0  0
  2  3  1  0  0  0  0
  2  4  2  0  0  0  0
  4  5  1  0  0  0  0
  5  6  2  0  0  0  0
  5 11  1  0  0  0  0
  6  7  1  0  0  0  0
  6  9  1  0  0  0  0
  7  8  1  0  0  0  0
  9 10  1  0  0  0  0
 10 11  2  0  0  0  0
M  END
>  <CHROM.1>
20.28782768,19.10481519,6.58576657,-1.74956849,0.06188535,-2.45149683

>  <Name>
ligand

>  <RI>
0

>  <Rbt.Current_Directory>
/home/itssahil/PROJECTS/Mol_Feturizer/New_Systems/rnas/4FEO

>  <Rbt.Executable>
rbdock ($Id: //depot/dev/client3/rdock/2013.1/src/exe/rbdock.cxx#4 $)

>  <Rbt.Library>
libRbt.so (2013.1, Build901 2013/11/27)

>  <Rbt.Parameter_File>
/export/apps/rDock/src/rDock_2013.1_src/data/scripts/dock_solv.prm

>  <Rbt.Receptor>
prm/blind_docking_60.prm

>  <SCORE>
-8.9071

>  <SCORE.INTER>
-8.9071

>  <SCORE.INTER.CONST>
1

>  <SCORE.INTER.POLAR>
0

>  <SCORE.INTER.ROT>
0

>  <SCORE.INTER.SOLV>
6.51162

>  <SCORE.INTER.VDW>
-11.7086

>  <SCORE.INTER.norm>
-0.809736

>  <SCORE.INTRA>
0

>  <SCORE.INTRA.DIHEDRAL>
0

>  <SCORE.INTRA.DIHEDRAL.0>
0

>  <SCORE.INTRA.POLAR>
0

>  <SCORE.INTRA.POLAR.0>
0

>  <SCORE.INTRA.REPUL>
0

>  <SCORE.INTRA.REPUL.0>
0

>  <SCORE.INTRA.SOLV>
0

>  <SCORE.INTRA.SOLV.lig_0>
-48.9252

>  <SCORE.INTRA.VDW>
0

>  <SCORE.INTRA.VDW.0>
0

>  <SCORE.INTRA.norm>
0

>  <SCORE.RESTR>
0

>  <SCORE.RESTR.CAVITY>
0

>  <SCORE.RESTR.norm>
0

>  <SCORE.SYSTEM>
0

>  <SCORE.SYSTEM.CONST>
0

>  <SCORE.SYSTEM.DIHEDRAL>
0

>  <SCORE.SYSTEM.SOLV>
0

>  <SCORE.SYSTEM.norm>
0

>  <SCORE.heavy>
11

>  <SCORE.norm>
-0.809736

>  <RMSD>
11.336

$$$$
ligand
 OpenBabel11021811493D
libRbt.so/2013.1/901 2013/11/27
 11 12  0  0  0  0  0  0  0  0999 V2000
   20.8548   20.3820    7.6242 N   0  0  0  0  0  0  0  0  0  0  0  0
   19.5127   20.4050    7.5292 C   0  0  0  0  0  0  0  0  0  0  0  0
   18.7981   21.3665    8.2290 N   0  0  0  0  0  0  0  0  0  0  0  0
   18.8480   19.5170    6.7732 N   0  0  0  0  0  0  0  0  0  0  0  0
   19.4951   18.5643    6.0834 C   0  0  0  0  0  0  0  0  0  0  0  0
   20.9050   18.4950    6.1466 C   0  0  0  0  0  0  0  0  0  0  0  0
   21.5812   19.4589    6.9583 C   0  0  0  0  0  0  0  0  0  0  0  0
   22.9505   19.4513    7.0645 N   0  0  0  0  0  0  0  0  0  0  0  0
   21.2929   17.4484    5.3628 N   0  0  0  0  0  0  0  0  0  0  0  0
   20.2407   16.8899    4.8443 C   0  0  0  0  0  0  0  0  0  0  0  0
   19.1052   17.5418    5.2540 N   0  0  0  0  0  0  0  0  0  0  0  0
  1  7  2  0  0  0  0
  1  2  1  0  0  0  0
  2  3  1  0  0  0  0
  2  4  2  0  0  0  0
  4  5  1  0  0  0  0
  5  6  2  0  0  0  0
  5 11  1  0  0  0  0
  6  7  1  0  0  0  0
  6  9  1  0  0  0  0
  7  8  1  0  0  0  0
  9 10  1  0  0  0  0
 10 11  2  0  0  0  0
M  END
>  <CHROM.1>
20.32437632,19.06699543,6.54891901,-1.74273787,0.06475988,-2.47736422

>  <Name>
ligand

>  <RI>
0

>  <Rbt.Current_Directory>
/home/itssahil/PROJECTS/Mol_Feturizer/New_Systems/rnas/4FEO

>  <Rbt.Executable>
rbdock ($Id: //depot/dev/client3/rdock/2013.1/src/exe/rbdock.cxx#4 $)

>  <Rbt.Library>
libRbt.so (2013.1, Build901 2013/11/27)

>  <Rbt.Parameter_File>
/export/apps/rDock/src/rDock_2013.1_src/data/scripts/dock_solv.prm

>  <Rbt.Receptor>
prm/blind_docking_80.prm

>  <SCORE>
-8.97172

>  <SCORE.INTER>
-8.97172

>  <SCORE.INTER.CONST>
1

>  <SCORE.INTER.POLAR>
0

>  <SCORE.INTER.ROT>
0

>  <SCORE.INTER.SOLV>
6.18125

>  <SCORE.INTER.VDW>
-11.6416

>  <SCORE.INTER.norm>
-0.815611

>  <SCORE.INTRA>
0

>  <SCORE.INTRA.DIHEDRAL>
0

>  <SCORE.INTRA.DIHEDRAL.0>
0

>  <SCORE.INTRA.POLAR>
0

>  <SCORE.INTRA.POLAR.0>
0

>  <SCORE.INTRA.REPUL>
0

>  <SCORE.INTRA.REPUL.0>
0

>  <SCORE.INTRA.SOLV>
0

>  <SCORE.INTRA.SOLV.lig_0>
-48.9252

>  <SCORE.INTRA.VDW>
0

>  <SCORE.INTRA.VDW.0>
0

>  <SCORE.INTRA.norm>
0

>  <SCORE.RESTR>
0

>  <SCORE.RESTR.CAVITY>
0

>  <SCORE.RESTR.norm>
0

>  <SCORE.SYSTEM>
0

>  <SCORE.SYSTEM.CONST>
0

>  <SCORE.SYSTEM.DIHEDRAL>
0

>  <SCORE.SYSTEM.SOLV>
0

>  <SCORE.SYSTEM.norm>
0

>  <SCORE.heavy>
11

>  <SCORE.norm>
-0.815611

>  <RMSD>
11.348

$$$$
ligand
 OpenBabel11021811493D
libRbt.so/2013.1/901 2013/11/27
 11 12  0  0  0  0  0  0  0  0999 V2000
   20.8507   20.3931    7.6056 N   0  0  0  0  0  0  0  0  0  0  0  0
   19.5092   20.4231    7.5050 C   0  0  0  0  0  0  0  0  0  0  0  0
   18.7974   21.3944    8.1943 N   0  0  0  0  0  0  0  0  0  0  0  0
   18.8423   19.5330    6.7534 N   0  0  0  0  0  0  0  0  0  0  0  0
   19.4866   18.5712    6.0738 C   0  0  0  0  0  0  0  0  0  0  0  0
   20.8958   18.4942    6.1432 C   0  0  0  0  0  0  0  0  0  0  0  0
   21.5744   19.4606    6.9499 C   0  0  0  0  0  0  0  0  0  0  0  0
   22.9432   19.4459    7.0618 N   0  0  0  0  0  0  0  0  0  0  0  0
   21.2807   17.4392    5.3694 N   0  0  0  0  0  0  0  0  0  0  0  0
   20.2274   16.8827    4.8510 C   0  0  0  0  0  0  0  0  0  0  0  0
   19.0940   17.5444    5.2510 N   0  0  0  0  0  0  0  0  0  0  0  0
  1  7  2  0  0  0  0
  1  2  1  0  0  0  0
  2  3  1  0  0  0  0
  2  4  2  0  0  0  0
  4  5  1  0  0  0  0
  5  6  2  0  0  0  0
  5 11  1  0  0  0  0
  6  7  1  0  0  0  0
  6  9  1  0  0  0  0
  7  8  1  0  0  0  0
  9 10  1  0  0  0  0
 10 11  2  0  0  0  0
M  END
>  <CHROM.1>
20.31693864,19.07273132,6.53865597,-1.74060037,0.07150139,-2.48546186

>  <Name>
ligand

>  <RI>
0

>  <Rbt.Current_Directory>
/home/itssahil/PROJECTS/Mol_Feturizer/New_Systems/rnas/4FEO

>  <Rbt.Executable>
rbdock ($Id: //depot/dev/client3/rdock/2013.1/src/exe/rbdock.cxx#4 $)

>  <Rbt.Library>
libRbt.so (2013.1, Build901 2013/11/27)

>  <Rbt.Parameter_File>
/export/apps/rDock/src/rDock_2013.1_src/data/scripts/dock_solv.prm

>  <Rbt.Receptor>
prm/blind_docking_80.prm

>  <SCORE>
-8.95657

>  <SCORE.INTER>
-8.95661

>  <SCORE.INTER.CONST>
1

>  <SCORE.INTER.POLAR>
0

>  <SCORE.INTER.ROT>
0

>  <SCORE.INTER.SOLV>
6.1181

>  <SCORE.INTER.VDW>
-11.6104

>  <SCORE.INTER.norm>
-0.814237

>  <SCORE.INTRA>
0

>  <SCORE.INTRA.DIHEDRAL>
0

>  <SCORE.INTRA.DIHEDRAL.0>
0

>  <SCORE.INTRA.POLAR>
0

>  <SCORE.INTRA.POLAR.0>
0

>  <SCORE.INTRA.REPUL>
0

>  <SCORE.INTRA.REPUL.0>
0

>  <SCORE.INTRA.SOLV>
0

>  <SCORE.INTRA.SOLV.lig_0>
-48.9252

>  <SCORE.INTRA.VDW>
0

>  <SCORE.INTRA.VDW.0>
0

>  <SCORE.INTRA.norm>
0

>  <SCORE.RESTR>
4.47376e-05

>  <SCORE.RESTR.CAVITY>
4.47376e-05

>  <SCORE.RESTR.norm>
4.06706e-06

>  <SCORE.SYSTEM>
0

>  <SCORE.SYSTEM.CONST>
0

>  <SCORE.SYSTEM.DIHEDRAL>
0

>  <SCORE.SYSTEM.SOLV>
0

>  <SCORE.SYSTEM.norm>
0

>  <SCORE.heavy>
11

>  <SCORE.norm>
-0.814233

>  <RMSD>
11.348

$$$$
ligand
 OpenBabel11021811493D
libRbt.so/2013.1/901 2013/11/27
 11 12  0  0  0  0  0  0  0  0999 V2000
   20.8385   20.4614    7.6304 N   0  0  0  0  0  0  0  0  0  0  0  0
   19.4979   20.5001    7.5214 C   0  0  0  0  0  0  0  0  0  0  0  0
   18.7884   21.4782    8.2032 N   0  0  0  0  0  0  0  0  0  0  0  0
   18.8297   19.6121    6.7684 N   0  0  0  0  0  0  0  0  0  0  0  0
   19.4717   18.6438    6.0958 C   0  0  0  0  0  0  0  0  0  0  0  0
   20.8799   18.5576    6.1742 C   0  0  0  0  0  0  0  0  0  0  0  0
   21.5599   19.5220    6.9822 C   0  0  0  0  0  0  0  0  0  0  0  0
   22.9279   19.4984    7.1026 N   0  0  0  0  0  0  0  0  0  0  0  0
   21.2626   17.4977    5.4061 N   0  0  0  0  0  0  0  0  0  0  0  0
   20.2087   16.9466    4.8829 C   0  0  0  0  0  0  0  0  0  0  0  0
   19.0774   17.6171    5.2738 N   0  0  0  0  0  0  0  0  0  0  0  0
  1  7  2  0  0  0  0
  1  2  1  0  0  0  0
  2  3  1  0  0  0  0
  2  4  2  0  0  0  0
  4  5  1  0  0  0  0
  5  6  2  0  0  0  0
  5 11  1  0  0  0  0
  6  7  1  0  0  0  0
  6  9  1  0  0  0  0
  7  8  1  0  0  0  0
  9 10  1  0  0  0  0
 10 11  2  0  0  0  0
M  END
>  <CHROM.1>
20.30250856,19.14126242,6.56426129,-1.73905407,0.08051212,-2.48869370

>  <Name>
ligand

>  <RI>
0

>  <Rbt.Current_Directory>
/home/itssahil/PROJECTS/Mol_Feturizer/New_Systems/rnas/4FEO

>  <Rbt.Executable>
rbdock ($Id: //depot/dev/client3/rdock/2013.1/src/exe/rbdock.cxx#4 $)

>  <Rbt.Library>
libRbt.so (2013.1, Build901 2013/11/27)

>  <Rbt.Parameter_File>
/export/apps/rDock/src/rDock_2013.1_src/data/scripts/dock_solv.prm

>  <Rbt.Receptor>
prm/blind_docking_80.prm

>  <SCORE>
-8.84007

>  <SCORE.INTER>
-8.84007

>  <SCORE.INTER.CONST>
1

>  <SCORE.INTER.POLAR>
0

>  <SCORE.INTER.ROT>
0

>  <SCORE.INTER.SOLV>
5.96932

>  <SCORE.INTER.VDW>
-11.4832

>  <SCORE.INTER.norm>
-0.803643

>  <SCORE.INTRA>
0

>  <SCORE.INTRA.DIHEDRAL>
0

>  <SCORE.INTRA.DIHEDRAL.0>
0

>  <SCORE.INTRA.POLAR>
0

>  <SCORE.INTRA.POLAR.0>
0

>  <SCORE.INTRA.REPUL>
0

>  <SCORE.INTRA.REPUL.0>
0

>  <SCORE.INTRA.SOLV>
0

>  <SCORE.INTRA.SOLV.lig_0>
-48.9252

>  <SCORE.INTRA.VDW>
0

>  <SCORE.INTRA.VDW.0>
0

>  <SCORE.INTRA.norm>
0

>  <SCORE.RESTR>
0

>  <SCORE.RESTR.CAVITY>
0

>  <SCORE.RESTR.norm>
0

>  <SCORE.SYSTEM>
0

>  <SCORE.SYSTEM.CONST>
0

>  <SCORE.SYSTEM.DIHEDRAL>
0

>  <SCORE.SYSTEM.SOLV>
0

>  <SCORE.SYSTEM.norm>
0

>  <SCORE.heavy>
11

>  <SCORE.norm>
-0.803643

>  <RMSD>
11.376

$$$$
ligand
 OpenBabel11021811493D
libRbt.so/2013.1/901 2013/11/27
 11 12  0  0  0  0  0  0  0  0999 V2000
   20.6756   20.6530    7.8775 N   0  0  0  0  0  0  0  0  0  0  0  0
   19.3361   20.6046    7.7593 C   0  0  0  0  0  0  0  0  0  0  0  0
   18.5583   21.5124    8.4636 N   0  0  0  0  0  0  0  0  0  0  0  0
   18.7337   19.6963    6.9757 N   0  0  0  0  0  0  0  0  0  0  0  0
   19.4433   18.7935    6.2804 C   0  0  0  0  0  0  0  0  0  0  0  0
   20.8537   18.7999    6.3672 C   0  0  0  0  0  0  0  0  0  0  0  0
   21.4625   19.7836    7.2080 C   0  0  0  0  0  0  0  0  0  0  0  0
   22.8282   19.8486    7.3382 N   0  0  0  0  0  0  0  0  0  0  0  0
   21.3114   17.7911    5.5717 N   0  0  0  0  0  0  0  0  0  0  0  0
   20.3001   17.1860    5.0247 C   0  0  0  0  0  0  0  0  0  0  0  0
   19.1239   17.7672    5.4260 N   0  0  0  0  0  0  0  0  0  0  0  0
  1  7  2  0  0  0  0
  1  2  1  0  0  0  0
  2  3  1  0  0  0  0
  2  4  2  0  0  0  0
  4  5  1  0  0  0  0
  5  6  2  0  0  0  0
  5 11  1  0  0  0  0
  6  7  1  0  0  0  0
  6  9  1  0  0  0  0
  7  8  1  0  0  0  0
  9 10  1  0  0  0  0
 10 11  2  0  0  0  0
M  END
>  <CHROM.1>
20.23599504,19.33169136,6.76949776,-1.79620831,0.04400913,-2.45595374

>  <Name>
ligand

>  <RI>
0

>  <Rbt.Current_Directory>
/home/itssahil/PROJECTS/Mol_Feturizer/New_Systems/rnas/4FEO

>  <Rbt.Executable>
rbdock ($Id: //depot/dev/client3/rdock/2013.1/src/exe/rbdock.cxx#4 $)

>  <Rbt.Library>
libRbt.so (2013.1, Build901 2013/11/27)

>  <Rbt.Parameter_File>
/export/apps/rDock/src/rDock_2013.1_src/data/scripts/dock_solv.prm

>  <Rbt.Receptor>
prm/blind_docking_100.prm

>  <SCORE>
-8.6762

>  <SCORE.INTER>
-8.6762

>  <SCORE.INTER.CONST>
1

>  <SCORE.INTER.POLAR>
0

>  <SCORE.INTER.ROT>
0

>  <SCORE.INTER.SOLV>
6.42485

>  <SCORE.INTER.VDW>
-11.5258

>  <SCORE.INTER.norm>
-0.788745

>  <SCORE.INTRA>
0

>  <SCORE.INTRA.DIHEDRAL>
0

>  <SCORE.INTRA.DIHEDRAL.0>
0

>  <SCORE.INTRA.POLAR>
0

>  <SCORE.INTRA.POLAR.0>
0

>  <SCORE.INTRA.REPUL>
0

>  <SCORE.INTRA.REPUL.0>
0

>  <SCORE.INTRA.SOLV>
0

>  <SCORE.INTRA.SOLV.lig_0>
-48.9252

>  <SCORE.INTRA.VDW>
0

>  <SCORE.INTRA.VDW.0>
0

>  <SCORE.INTRA.norm>
0

>  <SCORE.RESTR>
0

>  <SCORE.RESTR.CAVITY>
0

>  <SCORE.RESTR.norm>
0

>  <SCORE.SYSTEM>
0

>  <SCORE.SYSTEM.CONST>
0

>  <SCORE.SYSTEM.DIHEDRAL>
0

>  <SCORE.SYSTEM.SOLV>
0

>  <SCORE.SYSTEM.norm>
0

>  <SCORE.heavy>
11

>  <SCORE.norm>
-0.788745

>  <RMSD>
11.431

$$$$
ligand
 OpenBabel11021811493D
libRbt.so/2013.1/901 2013/11/27
 11 12  0  0  0  0  0  0  0  0999 V2000
   20.6780   20.6569    7.8759 N   0  0  0  0  0  0  0  0  0  0  0  0
   19.3385   20.6105    7.7563 C   0  0  0  0  0  0  0  0  0  0  0  0
   18.5615   21.5207    8.4583 N   0  0  0  0  0  0  0  0  0  0  0  0
   18.7354   19.7019    6.9737 N   0  0  0  0  0  0  0  0  0  0  0  0
   19.4443   18.7968    6.2805 C   0  0  0  0  0  0  0  0  0  0  0  0
   20.8546   18.8010    6.3688 C   0  0  0  0  0  0  0  0  0  0  0  0
   21.4641   19.7851    7.2086 C   0  0  0  0  0  0  0  0  0  0  0  0
   22.8298   19.8481    7.3402 N   0  0  0  0  0  0  0  0  0  0  0  0
   21.3114   17.7902    5.5754 N   0  0  0  0  0  0  0  0  0  0  0  0
   20.2998   17.1859    5.0283 C   0  0  0  0  0  0  0  0  0  0  0  0
   19.1241   17.7696    5.4274 N   0  0  0  0  0  0  0  0  0  0  0  0
  1  7  2  0  0  0  0
  1  2  1  0  0  0  0
  2  3  1  0  0  0  0
  2  4  2  0  0  0  0
  4  5  1  0  0  0  0
  5  6  2  0  0  0  0
  5 11  1  0  0  0  0
  6  7  1  0  0  0  0
  6  9  1  0  0  0  0
  7  8  1  0  0  0  0
  9 10  1  0  0  0  0
 10 11  2  0  0  0  0
M  END
>  <CHROM.1>
20.23735888,19.33450017,6.76956828,-1.79560101,0.04585688,-2.45760597

>  <Name>
ligand

>  <RI>
0

>  <Rbt.Current_Directory>
/home/itssahil/PROJECTS/Mol_Feturizer/New_Systems/rnas/4FEO

>  <Rbt.Executable>
rbdock ($Id: //depot/dev/client3/rdock/2013.1/src/exe/rbdock.cxx#4 $)

>  <Rbt.Library>
libRbt.so (2013.1, Build901 2013/11/27)

>  <Rbt.Parameter_File>
/export/apps/rDock/src/rDock_2013.1_src/data/scripts/dock_solv.prm

>  <Rbt.Receptor>
prm/blind_docking_100.prm

>  <SCORE>
-8.68154

>  <SCORE.INTER>
-8.68176

>  <SCORE.INTER.CONST>
1

>  <SCORE.INTER.POLAR>
0

>  <SCORE.INTER.ROT>
0

>  <SCORE.INTER.SOLV>
6.39665

>  <SCORE.INTER.VDW>
-11.5201

>  <SCORE.INTER.norm>
-0.789251

>  <SCORE.INTRA>
0

>  <SCORE.INTRA.DIHEDRAL>
0

>  <SCORE.INTRA.DIHEDRAL.0>
0

>  <SCORE.INTRA.POLAR>
0

>  <SCORE.INTRA.POLAR.0>
0

>  <SCORE.INTRA.REPUL>
0

>  <SCORE.INTRA.REPUL.0>
0

>  <SCORE.INTRA.SOLV>
0

>  <SCORE.INTRA.SOLV.lig_0>
-48.9252

>  <SCORE.INTRA.VDW>
0

>  <SCORE.INTRA.VDW.0>
0

>  <SCORE.INTRA.norm>
0

>  <SCORE.RESTR>
0.00021406

>  <SCORE.RESTR.CAVITY>
0.00021406

>  <SCORE.RESTR.norm>
1.946e-05

>  <SCORE.SYSTEM>
0

>  <SCORE.SYSTEM.CONST>
0

>  <SCORE.SYSTEM.DIHEDRAL>
0

>  <SCORE.SYSTEM.SOLV>
0

>  <SCORE.SYSTEM.norm>
0

>  <SCORE.heavy>
11

>  <SCORE.norm>
-0.789231

>  <RMSD>
11.434

$$$$
ligand
 OpenBabel11021811493D
libRbt.so/2013.1/901 2013/11/27
 11 12  0  0  0  0  0  0  0  0999 V2000
   20.6802   20.6584    7.8796 N   0  0  0  0  0  0  0  0  0  0  0  0
   19.3404   20.6151    7.7614 C   0  0  0  0  0  0  0  0  0  0  0  0
   18.5658   21.5224    8.4698 N   0  0  0  0  0  0  0  0  0  0  0  0
   18.7348   19.7121    6.9742 N   0  0  0  0  0  0  0  0  0  0  0  0
   19.4413   18.8099    6.2748 C   0  0  0  0  0  0  0  0  0  0  0  0
   20.8517   18.8112    6.3613 C   0  0  0  0  0  0  0  0  0  0  0  0
   21.4639   19.7893    7.2061 C   0  0  0  0  0  0  0  0  0  0  0  0
   22.8299   19.8491    7.3364 N   0  0  0  0  0  0  0  0  0  0  0  0
   21.3058   17.8043    5.5614 N   0  0  0  0  0  0  0  0  0  0  0  0
   20.2924   17.2050    5.0120 C   0  0  0  0  0  0  0  0  0  0  0  0
   19.1182   17.7883    5.4161 N   0  0  0  0  0  0  0  0  0  0  0  0
  1  7  2  0  0  0  0
  1  2  1  0  0  0  0
  2  3  1  0  0  0  0
  2  4  2  0  0  0  0
  4  5  1  0  0  0  0
  5  6  2  0  0  0  0
  5 11  1  0  0  0  0
  6  7  1  0  0  0  0
  6  9  1  0  0  0  0
  7  8  1  0  0  0  0
  9 10  1  0  0  0  0
 10 11  2  0  0  0  0
M  END
>  <CHROM.1>
20.23585113,19.34335269,6.76602437,-1.79347236,0.04597496,-2.45179049

>  <Name>
ligand

>  <RI>
0

>  <Rbt.Current_Directory>
/home/itssahil/PROJECTS/Mol_Feturizer/New_Systems/rnas/4FEO

>  <Rbt.Executable>
rbdock ($Id: //depot/dev/client3/rdock/2013.1/src/exe/rbdock.cxx#4 $)

>  <Rbt.Library>
libRbt.so (2013.1, Build901 2013/11/27)

>  <Rbt.Parameter_File>
/export/apps/rDock/src/rDock_2013.1_src/data/scripts/dock_solv.prm

>  <Rbt.Receptor>
prm/blind_docking_100.prm

>  <SCORE>
-8.66862

>  <SCORE.INTER>
-8.66862

>  <SCORE.INTER.CONST>
1

>  <SCORE.INTER.POLAR>
0

>  <SCORE.INTER.ROT>
0

>  <SCORE.INTER.SOLV>
6.37528

>  <SCORE.INTER.VDW>
-11.5042

>  <SCORE.INTER.norm>
-0.788056

>  <SCORE.INTRA>
0

>  <SCORE.INTRA.DIHEDRAL>
0

>  <SCORE.INTRA.DIHEDRAL.0>
0

>  <SCORE.INTRA.POLAR>
0

>  <SCORE.INTRA.POLAR.0>
0

>  <SCORE.INTRA.REPUL>
0

>  <SCORE.INTRA.REPUL.0>
0

>  <SCORE.INTRA.SOLV>
0

>  <SCORE.INTRA.SOLV.lig_0>
-48.9252

>  <SCORE.INTRA.VDW>
0

>  <SCORE.INTRA.VDW.0>
0

>  <SCORE.INTRA.norm>
0

>  <SCORE.RESTR>
0

>  <SCORE.RESTR.CAVITY>
0

>  <SCORE.RESTR.norm>
0

>  <SCORE.SYSTEM>
0

>  <SCORE.SYSTEM.CONST>
0

>  <SCORE.SYSTEM.DIHEDRAL>
0

>  <SCORE.SYSTEM.SOLV>
0

>  <SCORE.SYSTEM.norm>
0

>  <SCORE.heavy>
11

>  <SCORE.norm>
-0.788056

>  <RMSD>
11.437

$$$$
ligand
 OpenBabel11021811493D
libRbt.so/2013.1/901 2013/11/27
 11 12  0  0  0  0  0  0  0  0999 V2000
   20.6623   20.8129    8.3484 N   0  0  0  0  0  0  0  0  0  0  0  0
   19.3277   20.7972    8.1773 C   0  0  0  0  0  0  0  0  0  0  0  0
   18.5388   21.6777    8.9035 N   0  0  0  0  0  0  0  0  0  0  0  0
   18.7406   19.9471    7.3201 N   0  0  0  0  0  0  0  0  0  0  0  0
   19.4612   19.0725    6.6004 C   0  0  0  0  0  0  0  0  0  0  0  0
   20.8670   19.0468    6.7404 C   0  0  0  0  0  0  0  0  0  0  0  0
   21.4595   19.9686    7.6593 C   0  0  0  0  0  0  0  0  0  0  0  0
   22.8201   19.9998    7.8444 N   0  0  0  0  0  0  0  0  0  0  0  0
   21.3379   18.0769    5.9053 N   0  0  0  0  0  0  0  0  0  0  0  0
   20.3384   17.5238    5.2863 C   0  0  0  0  0  0  0  0  0  0  0  0
   19.1576   18.1034    5.6763 N   0  0  0  0  0  0  0  0  0  0  0  0
  1  7  2  0  0  0  0
  1  2  1  0  0  0  0
  2  3  1  0  0  0  0
  2  4  2  0  0  0  0
  4  5  1  0  0  0  0
  5  6  2  0  0  0  0
  5 11  1  0  0  0  0
  6  7  1  0  0  0  0
  6  9  1  0  0  0  0
  7  8  1  0  0  0  0
  9 10  1  0  0  0  0
 10 11  2  0  0  0  0
M  END
>  <CHROM.1>
20.24339640,19.56630915,7.14950490,-1.80756637,0.08465772,-2.39723143

>  <Name>
ligand

>  <RI>
0

>  <Rbt.Current_Directory>
/home/itssahil/PROJECTS/Mol_Feturizer/New_Systems/rnas/4FEO

>  <Rbt.Executable>
rbdock ($Id: //depot/dev/client3/rdock/2013.1/src/exe/rbdock.cxx#4 $)

>  <Rbt.Library>
libRbt.so (2013.1, Build901 2013/11/27)

>  <Rbt.Parameter_File>
/export/apps/rDock/src/rDock_2013.1_src/data/scripts/dock_solv.prm

>  <Rbt.Receptor>
prm/blind_docking_40.prm

>  <SCORE>
-7.92622

>  <SCORE.INTER>
-7.92622

>  <SCORE.INTER.CONST>
1

>  <SCORE.INTER.POLAR>
0

>  <SCORE.INTER.ROT>
0

>  <SCORE.INTER.SOLV>
7.40276

>  <SCORE.INTER.VDW>
-11.3517

>  <SCORE.INTER.norm>
-0.720566

>  <SCORE.INTRA>
0

>  <SCORE.INTRA.DIHEDRAL>
0

>  <SCORE.INTRA.DIHEDRAL.0>
0

>  <SCORE.INTRA.POLAR>
0

>  <SCORE.INTRA.POLAR.0>
0

>  <SCORE.INTRA.REPUL>
0

>  <SCORE.INTRA.REPUL.0>
0

>  <SCORE.INTRA.SOLV>
0

>  <SCORE.INTRA.SOLV.lig_0>
-48.9252

>  <SCORE.INTRA.VDW>
0

>  <SCORE.INTRA.VDW.0>
0

>  <SCORE.INTRA.norm>
0

>  <SCORE.RESTR>
0

>  <SCORE.RESTR.CAVITY>
0

>  <SCORE.RESTR.norm>
0

>  <SCORE.SYSTEM>
0

>  <SCORE.SYSTEM.CONST>
0

>  <SCORE.SYSTEM.DIHEDRAL>
0

>  <SCORE.SYSTEM.SOLV>
0

>  <SCORE.SYSTEM.norm>
0

>  <SCORE.heavy>
11

>  <SCORE.norm>
-0.720566

>  <RMSD>
11.550

$$$$
ligand
 OpenBabel11021811493D
libRbt.so/2013.1/901 2013/11/27
 11 12  0  0  0  0  0  0  0  0999 V2000
   21.0959   20.9387    8.8709 N   0  0  0  0  0  0  0  0  0  0  0  0
   19.7564   21.0610    8.9092 C   0  0  0  0  0  0  0  0  0  0  0  0
   19.1781   21.9171    9.8353 N   0  0  0  0  0  0  0  0  0  0  0  0
   18.9652   20.3718    8.0719 N   0  0  0  0  0  0  0  0  0  0  0  0
   19.4778   19.5267    7.1636 C   0  0  0  0  0  0  0  0  0  0  0  0
   20.8785   19.3607    7.0794 C   0  0  0  0  0  0  0  0  0  0  0  0
   21.6916   20.1133    7.9838 C   0  0  0  0  0  0  0  0  0  0  0  0
   23.0603   20.0023    7.9568 N   0  0  0  0  0  0  0  0  0  0  0  0
   21.1188   18.4569    6.0868 N   0  0  0  0  0  0  0  0  0  0  0  0
   19.9876   18.0702    5.5781 C   0  0  0  0  0  0  0  0  0  0  0  0
   18.9433   18.7025    6.2043 N   0  0  0  0  0  0  0  0  0  0  0  0
  1  7  2  0  0  0  0
  1  2  1  0  0  0  0
  2  3  1  0  0  0  0
  2  4  2  0  0  0  0
  4  5  1  0  0  0  0
  5  6  2  0  0  0  0
  5 11  1  0  0  0  0
  6  7  1  0  0  0  0
  6  9  1  0  0  0  0
  7  8  1  0  0  0  0
  9 10  1  0  0  0  0
 10 11  2  0  0  0  0
M  END
>  <CHROM.1>
20.37890443,19.88214119,7.63143689,-1.63090134,0.04769041,-2.29871866

>  <Name>
ligand

>  <RI>
0

>  <Rbt.Current_Directory>
/home/itssahil/PROJECTS/Mol_Feturizer/New_Systems/rnas/4FEO

>  <Rbt.Executable>
rbdock ($Id: //depot/dev/client3/rdock/2013.1/src/exe/rbdock.cxx#4 $)

>  <Rbt.Library>
libRbt.so (2013.1, Build901 2013/11/27)

>  <Rbt.Parameter_File>
/export/apps/rDock/src/rDock_2013.1_src/data/scripts/dock_solv.prm

>  <Rbt.Receptor>
prm/blind_docking_40.prm

>  <SCORE>
-7.62981

>  <SCORE.INTER>
-7.62981

>  <SCORE.INTER.CONST>
1

>  <SCORE.INTER.POLAR>
0

>  <SCORE.INTER.ROT>
0

>  <SCORE.INTER.SOLV>
6.61088

>  <SCORE.INTER.VDW>
-10.8902

>  <SCORE.INTER.norm>
-0.693619

>  <SCORE.INTRA>
0

>  <SCORE.INTRA.DIHEDRAL>
0

>  <SCORE.INTRA.DIHEDRAL.0>
0

>  <SCORE.INTRA.POLAR>
0

>  <SCORE.INTRA.POLAR.0>
0

>  <SCORE.INTRA.REPUL>
0

>  <SCORE.INTRA.REPUL.0>
0

>  <SCORE.INTRA.SOLV>
0

>  <SCORE.INTRA.SOLV.lig_0>
-48.9252

>  <SCORE.INTRA.VDW>
0

>  <SCORE.INTRA.VDW.0>
0

>  <SCORE.INTRA.norm>
0

>  <SCORE.RESTR>
0

>  <SCORE.RESTR.CAVITY>
0

>  <SCORE.RESTR.norm>
0

>  <SCORE.SYSTEM>
0

>  <SCORE.SYSTEM.CONST>
0

>  <SCORE.SYSTEM.DIHEDRAL>
0

>  <SCORE.SYSTEM.SOLV>
0

>  <SCORE.SYSTEM.norm>
0

>  <SCORE.heavy>
11

>  <SCORE.norm>
-0.693619

>  <RMSD>
11.797

$$$$
ligand
 OpenBabel11021811493D
libRbt.so/2013.1/901 2013/11/27
 11 12  0  0  0  0  0  0  0  0999 V2000
   22.0823   18.4627    7.0989 N   0  0  0  0  0  0  0  0  0  0  0  0
   21.2132   17.7179    6.3914 C   0  0  0  0  0  0  0  0  0  0  0  0
   21.6405   16.5221    5.8324 N   0  0  0  0  0  0  0  0  0  0  0  0
   19.9407   18.1061    6.2123 N   0  0  0  0  0  0  0  0  0  0  0  0
   19.4828   19.2578    6.7281 C   0  0  0  0  0  0  0  0  0  0  0  0
   20.3529   20.0784    7.4806 C   0  0  0  0  0  0  0  0  0  0  0  0
   21.7005   19.6324    7.6550 C   0  0  0  0  0  0  0  0  0  0  0  0
   22.6000   20.3790    8.3760 N   0  0  0  0  0  0  0  0  0  0  0  0
   19.6366   21.1690    7.8771 N   0  0  0  0  0  0  0  0  0  0  0  0
   18.4227   21.0705    7.4248 C   0  0  0  0  0  0  0  0  0  0  0  0
   18.2735   19.9079    6.7117 N   0  0  0  0  0  0  0  0  0  0  0  0
  1  7  2  0  0  0  0
  1  2  1  0  0  0  0
  2  3  1  0  0  0  0
  2  4  2  0  0  0  0
  4  5  1  0  0  0  0
  5  6  2  0  0  0  0
  5 11  1  0  0  0  0
  6  7  1  0  0  0  0
  6  9  1  0  0  0  0
  7  8  1  0  0  0  0
  9 10  1  0  0  0  0
 10 11  2  0  0  0  0
M  END
>  <CHROM.1>
20.50339530,19.28294314,7.06720637,-0.87617627,-0.27150373,0.52393254

>  <Name>
ligand

>  <RI>
0

>  <Rbt.Current_Directory>
/home/itssahil/PROJECTS/Mol_Feturizer/New_Systems/rnas/4FEO

>  <Rbt.Executable>
rbdock ($Id: //depot/dev/client3/rdock/2013.1/src/exe/rbdock.cxx#4 $)

>  <Rbt.Library>
libRbt.so (2013.1, Build901 2013/11/27)

>  <Rbt.Parameter_File>
/export/apps/rDock/src/rDock_2013.1_src/data/scripts/dock_solv.prm

>  <Rbt.Receptor>
prm/blind_docking_80.prm

>  <SCORE>
-5.85554

>  <SCORE.INTER>
-5.85554

>  <SCORE.INTER.CONST>
1

>  <SCORE.INTER.POLAR>
0

>  <SCORE.INTER.ROT>
0

>  <SCORE.INTER.SOLV>
11.3209

>  <SCORE.INTER.VDW>
-11.2773

>  <SCORE.INTER.norm>
-0.532322

>  <SCORE.INTRA>
0

>  <SCORE.INTRA.DIHEDRAL>
0

>  <SCORE.INTRA.DIHEDRAL.0>
0

>  <SCORE.INTRA.POLAR>
0

>  <SCORE.INTRA.POLAR.0>
0

>  <SCORE.INTRA.REPUL>
0

>  <SCORE.INTRA.REPUL.0>
0

>  <SCORE.INTRA.SOLV>
0

>  <SCORE.INTRA.SOLV.lig_0>
-48.9252

>  <SCORE.INTRA.VDW>
0

>  <SCORE.INTRA.VDW.0>
0

>  <SCORE.INTRA.norm>
0

>  <SCORE.RESTR>
0

>  <SCORE.RESTR.CAVITY>
0

>  <SCORE.RESTR.norm>
0

>  <SCORE.SYSTEM>
0

>  <SCORE.SYSTEM.CONST>
0

>  <SCORE.SYSTEM.DIHEDRAL>
0

>  <SCORE.SYSTEM.SOLV>
0

>  <SCORE.SYSTEM.norm>
0

>  <SCORE.heavy>
11

>  <SCORE.norm>
-0.532322

>  <RMSD>
11.853

$$$$
ligand
 OpenBabel11021811493D
libRbt.so/2013.1/901 2013/11/27
 11 12  0  0  0  0  0  0  0  0999 V2000
    2.1766   11.7095    0.1804 N   0  0  0  0  0  0  0  0  0  0  0  0
    2.5666   10.4236    0.1101 C   0  0  0  0  0  0  0  0  0  0  0  0
    2.8491    9.8657   -1.1284 N   0  0  0  0  0  0  0  0  0  0  0  0
    2.6876    9.6664    1.2119 N   0  0  0  0  0  0  0  0  0  0  0  0
    2.4192   10.1596    2.4312 C   0  0  0  0  0  0  0  0  0  0  0  0
    2.0064   11.5046    2.5628 C   0  0  0  0  0  0  0  0  0  0  0  0
    1.8919   12.2836    1.3690 C   0  0  0  0  0  0  0  0  0  0  0  0
    1.4975   13.5981    1.4228 N   0  0  0  0  0  0  0  0  0  0  0  0
    1.8040   11.7362    3.8915 N   0  0  0  0  0  0  0  0  0  0  0  0
    2.0560   10.6498    4.5579 C   0  0  0  0  0  0  0  0  0  0  0  0
    2.4429    9.6473    3.7049 N   0  0  0  0  0  0  0  0  0  0  0  0
  1  7  2  0  0  0  0
  1  2  1  0  0  0  0
  2  3  1  0  0  0  0
  2  4  2  0  0  0  0
  4  5  1  0  0  0  0
  5  6  2  0  0  0  0
  5 11  1  0  0  0  0
  6  7  1  0  0  0  0
  6  9  1  0  0  0  0
  7  8  1  0  0  0  0
  9 10  1  0  0  0  0
 10 11  2  0  0  0  0
M  END
>  <CHROM.1>
2.22006032,11.02346705,1.82183830,1.17458214,1.26806138,-1.25014610

>  <Name>
ligand

>  <RI>
0

>  <Rbt.Current_Directory>
/home/itssahil/PROJECTS/Mol_Feturizer/New_Systems/rnas/4FEO

>  <Rbt.Executable>
rbdock ($Id: //depot/dev/client3/rdock/2013.1/src/exe/rbdock.cxx#4 $)

>  <Rbt.Library>
libRbt.so (2013.1, Build901 2013/11/27)

>  <Rbt.Parameter_File>
/export/apps/rDock/src/rDock_2013.1_src/data/scripts/dock_solv.prm

>  <Rbt.Receptor>
prm/blind_docking_20.prm

>  <SCORE>
-4.58376

>  <SCORE.INTER>
-4.62558

>  <SCORE.INTER.CONST>
1

>  <SCORE.INTER.POLAR>
0

>  <SCORE.INTER.ROT>
0

>  <SCORE.INTER.SOLV>
10.7647

>  <SCORE.INTER.VDW>
-10.272

>  <SCORE.INTER.norm>
-0.420508

>  <SCORE.INTRA>
0

>  <SCORE.INTRA.DIHEDRAL>
0

>  <SCORE.INTRA.DIHEDRAL.0>
0

>  <SCORE.INTRA.POLAR>
0

>  <SCORE.INTRA.POLAR.0>
0

>  <SCORE.INTRA.REPUL>
0

>  <SCORE.INTRA.REPUL.0>
0

>  <SCORE.INTRA.SOLV>
0

>  <SCORE.INTRA.SOLV.lig_0>
-48.9252

>  <SCORE.INTRA.VDW>
0

>  <SCORE.INTRA.VDW.0>
0

>  <SCORE.INTRA.norm>
0

>  <SCORE.RESTR>
0.0418203

>  <SCORE.RESTR.CAVITY>
0.0418203

>  <SCORE.RESTR.norm>
0.00380184

>  <SCORE.SYSTEM>
0

>  <SCORE.SYSTEM.CONST>
0

>  <SCORE.SYSTEM.DIHEDRAL>
0

>  <SCORE.SYSTEM.SOLV>
0

>  <SCORE.SYSTEM.norm>
0

>  <SCORE.heavy>
11

>  <SCORE.norm>
-0.416706

>  <RMSD>
11.881

$$$$
ligand
 OpenBabel11021811493D
libRbt.so/2013.1/901 2013/11/27
 11 12  0  0  0  0  0  0  0  0999 V2000
   21.2017   21.5273    8.9135 N   0  0  0  0  0  0  0  0  0  0  0  0
   19.9074   21.3870    9.2540 C   0  0  0  0  0  0  0  0  0  0  0  0
   19.4067   22.1028   10.3320 N   0  0  0  0  0  0  0  0  0  0  0  0
   19.0885   20.5684    8.5750 N   0  0  0  0  0  0  0  0  0  0  0  0
   19.5284   19.8504    7.5295 C   0  0  0  0  0  0  0  0  0  0  0  0
   20.8789   19.9603    7.1282 C   0  0  0  0  0  0  0  0  0  0  0  0
   21.7222   20.8445    7.8713 C   0  0  0  0  0  0  0  0  0  0  0  0
   23.0448   21.0014    7.5359 N   0  0  0  0  0  0  0  0  0  0  0  0
   21.0502   19.1331    6.0576 N   0  0  0  0  0  0  0  0  0  0  0  0
   19.9249   18.5410    5.7908 C   0  0  0  0  0  0  0  0  0  0  0  0
   18.9521   18.9506    6.6672 N   0  0  0  0  0  0  0  0  0  0  0  0
  1  7  2  0  0  0  0
  1  2  1  0  0  0  0
  2  3  1  0  0  0  0
  2  4  2  0  0  0  0
  4  5  1  0  0  0  0
  5  6  2  0  0  0  0
  5 11  1  0  0  0  0
  6  7  1  0  0  0  0
  6  9  1  0  0  0  0
  7  8  1  0  0  0  0
  9 10  1  0  0  0  0
 10 11  2  0  0  0  0
M  END
>  <CHROM.1>
20.43025341,20.36779690,7.80565267,-1.58289571,-0.24711219,-2.25840639

>  <Name>
ligand

>  <RI>
0

>  <Rbt.Current_Directory>
/home/itssahil/PROJECTS/Mol_Feturizer/New_Systems/rnas/4FEO

>  <Rbt.Executable>
rbdock ($Id: //depot/dev/client3/rdock/2013.1/src/exe/rbdock.cxx#4 $)

>  <Rbt.Library>
libRbt.so (2013.1, Build901 2013/11/27)

>  <Rbt.Parameter_File>
/export/apps/rDock/src/rDock_2013.1_src/data/scripts/dock_solv.prm

>  <Rbt.Receptor>
prm/blind_docking_80.prm

>  <SCORE>
-7.23722

>  <SCORE.INTER>
-7.23722

>  <SCORE.INTER.CONST>
1

>  <SCORE.INTER.POLAR>
0

>  <SCORE.INTER.ROT>
0

>  <SCORE.INTER.SOLV>
3.08519

>  <SCORE.INTER.VDW>
-9.45321

>  <SCORE.INTER.norm>
-0.657929

>  <SCORE.INTRA>
0

>  <SCORE.INTRA.DIHEDRAL>
0

>  <SCORE.INTRA.DIHEDRAL.0>
0

>  <SCORE.INTRA.POLAR>
0

>  <SCORE.INTRA.POLAR.0>
0

>  <SCORE.INTRA.REPUL>
0

>  <SCORE.INTRA.REPUL.0>
0

>  <SCORE.INTRA.SOLV>
0

>  <SCORE.INTRA.SOLV.lig_0>
-48.9252

>  <SCORE.INTRA.VDW>
0

>  <SCORE.INTRA.VDW.0>
0

>  <SCORE.INTRA.norm>
0

>  <SCORE.RESTR>
0

>  <SCORE.RESTR.CAVITY>
0

>  <SCORE.RESTR.norm>
0

>  <SCORE.SYSTEM>
0

>  <SCORE.SYSTEM.CONST>
0

>  <SCORE.SYSTEM.DIHEDRAL>
0

>  <SCORE.SYSTEM.SOLV>
0

>  <SCORE.SYSTEM.norm>
0

>  <SCORE.heavy>
11

>  <SCORE.norm>
-0.657929

>  <RMSD>
12.174

$$$$
ligand
 OpenBabel11021811493D
libRbt.so/2013.1/901 2013/11/27
 11 12  0  0  0  0  0  0  0  0999 V2000
   21.6813   20.8942    8.4482 N   0  0  0  0  0  0  0  0  0  0  0  0
   22.7135   20.1456    8.0185 C   0  0  0  0  0  0  0  0  0  0  0  0
   23.9956   20.4372    8.4617 N   0  0  0  0  0  0  0  0  0  0  0  0
   22.5318   19.1225    7.1687 N   0  0  0  0  0  0  0  0  0  0  0  0
   21.3115   18.8063    6.7073 C   0  0  0  0  0  0  0  0  0  0  0  0
   20.1918   19.5591    7.1269 C   0  0  0  0  0  0  0  0  0  0  0  0
   20.4211   20.6394    8.0357 C   0  0  0  0  0  0  0  0  0  0  0  0
   19.3787   21.4120    8.4861 N   0  0  0  0  0  0  0  0  0  0  0  0
   19.0958   19.0288    6.5125 N   0  0  0  0  0  0  0  0  0  0  0  0
   19.4654   18.0327    5.7646 C   0  0  0  0  0  0  0  0  0  0  0  0
   20.8225   17.8507    5.8511 N   0  0  0  0  0  0  0  0  0  0  0  0
  1  7  2  0  0  0  0
  1  2  1  0  0  0  0
  2  3  1  0  0  0  0
  2  4  2  0  0  0  0
  4  5  1  0  0  0  0
  5  6  2  0  0  0  0
  5 11  1  0  0  0  0
  6  7  1  0  0  0  0
  6  9  1  0  0  0  0
  7  8  1  0  0  0  0
  9 10  1  0  0  0  0
 10 11  2  0  0  0  0
M  END
>  <CHROM.1>
21.07162160,19.64323596,7.33906566,0.74287852,-0.12897822,0.67908366

>  <Name>
ligand

>  <RI>
0

>  <Rbt.Current_Directory>
/home/itssahil/PROJECTS/Mol_Feturizer/New_Systems/rnas/4FEO

>  <Rbt.Executable>
rbdock ($Id: //depot/dev/client3/rdock/2013.1/src/exe/rbdock.cxx#4 $)

>  <Rbt.Library>
libRbt.so (2013.1, Build901 2013/11/27)

>  <Rbt.Parameter_File>
/export/apps/rDock/src/rDock_2013.1_src/data/scripts/dock_solv.prm

>  <Rbt.Receptor>
prm/blind_docking_40.prm

>  <SCORE>
-6.44857

>  <SCORE.INTER>
-6.44857

>  <SCORE.INTER.CONST>
1

>  <SCORE.INTER.POLAR>
0

>  <SCORE.INTER.ROT>
0

>  <SCORE.INTER.SOLV>
6.16135

>  <SCORE.INTER.VDW>
-9.95283

>  <SCORE.INTER.norm>
-0.586234

>  <SCORE.INTRA>
0

>  <SCORE.INTRA.DIHEDRAL>
0

>  <SCORE.INTRA.DIHEDRAL.0>
0

>  <SCORE.INTRA.POLAR>
0

>  <SCORE.INTRA.POLAR.0>
0

>  <SCORE.INTRA.REPUL>
0

>  <SCORE.INTRA.REPUL.0>
0

>  <SCORE.INTRA.SOLV>
0

>  <SCORE.INTRA.SOLV.lig_0>
-48.9252

>  <SCORE.INTRA.VDW>
0

>  <SCORE.INTRA.VDW.0>
0

>  <SCORE.INTRA.norm>
0

>  <SCORE.RESTR>
0

>  <SCORE.RESTR.CAVITY>
0

>  <SCORE.RESTR.norm>
0

>  <SCORE.SYSTEM>
0

>  <SCORE.SYSTEM.CONST>
0

>  <SCORE.SYSTEM.DIHEDRAL>
0

>  <SCORE.SYSTEM.SOLV>
0

>  <SCORE.SYSTEM.norm>
0

>  <SCORE.heavy>
11

>  <SCORE.norm>
-0.586234

>  <RMSD>
12.358

$$$$
ligand
 OpenBabel11021811493D
libRbt.so/2013.1/901 2013/11/27
 11 12  0  0  0  0  0  0  0  0999 V2000
   21.7549   20.8619    8.3845 N   0  0  0  0  0  0  0  0  0  0  0  0
   22.7599   20.0884    7.9346 C   0  0  0  0  0  0  0  0  0  0  0  0
   24.0569   20.3472    8.3539 N   0  0  0  0  0  0  0  0  0  0  0  0
   22.5367   19.0716    7.0871 N   0  0  0  0  0  0  0  0  0  0  0  0
   21.3004   18.7868    6.6483 C   0  0  0  0  0  0  0  0  0  0  0  0
   20.2080   19.5668    7.0898 C   0  0  0  0  0  0  0  0  0  0  0  0
   20.4813   20.6394    7.9954 C   0  0  0  0  0  0  0  0  0  0  0  0
   19.4672   21.4371    8.4662 N   0  0  0  0  0  0  0  0  0  0  0  0
   19.0878   19.0650    6.4954 N   0  0  0  0  0  0  0  0  0  0  0  0
   19.4182   18.0613    5.7396 C   0  0  0  0  0  0  0  0  0  0  0  0
   20.7717   17.8452    5.8003 N   0  0  0  0  0  0  0  0  0  0  0  0
  1  7  2  0  0  0  0
  1  2  1  0  0  0  0
  2  3  1  0  0  0  0
  2  4  2  0  0  0  0
  4  5  1  0  0  0  0
  5  6  2  0  0  0  0
  5 11  1  0  0  0  0
  6  7  1  0  0  0  0
  6  9  1  0  0  0  0
  7  8  1  0  0  0  0
  9 10  1  0  0  0  0
 10 11  2  0  0  0  0
M  END
>  <CHROM.1>
21.09347340,19.62847533,7.28548064,0.71134401,-0.13006540,0.67642813

>  <Name>
ligand

>  <RI>
0

>  <Rbt.Current_Directory>
/home/itssahil/PROJECTS/Mol_Feturizer/New_Systems/rnas/4FEO

>  <Rbt.Executable>
rbdock ($Id: //depot/dev/client3/rdock/2013.1/src/exe/rbdock.cxx#4 $)

>  <Rbt.Library>
libRbt.so (2013.1, Build901 2013/11/27)

>  <Rbt.Parameter_File>
/export/apps/rDock/src/rDock_2013.1_src/data/scripts/dock_solv.prm

>  <Rbt.Receptor>
prm/blind_docking_100.prm

>  <SCORE>
-6.49044

>  <SCORE.INTER>
-6.49044

>  <SCORE.INTER.CONST>
1

>  <SCORE.INTER.POLAR>
0

>  <SCORE.INTER.ROT>
0

>  <SCORE.INTER.SOLV>
5.63212

>  <SCORE.INTER.VDW>
-9.80433

>  <SCORE.INTER.norm>
-0.59004

>  <SCORE.INTRA>
0

>  <SCORE.INTRA.DIHEDRAL>
0

>  <SCORE.INTRA.DIHEDRAL.0>
0

>  <SCORE.INTRA.POLAR>
0

>  <SCORE.INTRA.POLAR.0>
0

>  <SCORE.INTRA.REPUL>
0

>  <SCORE.INTRA.REPUL.0>
0

>  <SCORE.INTRA.SOLV>
0

>  <SCORE.INTRA.SOLV.lig_0>
-48.9252

>  <SCORE.INTRA.VDW>
0

>  <SCORE.INTRA.VDW.0>
0

>  <SCORE.INTRA.norm>
0

>  <SCORE.RESTR>
0

>  <SCORE.RESTR.CAVITY>
0

>  <SCORE.RESTR.norm>
0

>  <SCORE.SYSTEM>
0

>  <SCORE.SYSTEM.CONST>
0

>  <SCORE.SYSTEM.DIHEDRAL>
0

>  <SCORE.SYSTEM.SOLV>
0

>  <SCORE.SYSTEM.norm>
0

>  <SCORE.heavy>
11

>  <SCORE.norm>
-0.59004

>  <RMSD>
12.371

$$$$
ligand
 OpenBabel11021811493D
libRbt.so/2013.1/901 2013/11/27
 11 12  0  0  0  0  0  0  0  0999 V2000
   21.5422   21.1004    8.6575 N   0  0  0  0  0  0  0  0  0  0  0  0
   22.5995   20.3897    8.2243 C   0  0  0  0  0  0  0  0  0  0  0  0
   23.8696   20.7160    8.6775 N   0  0  0  0  0  0  0  0  0  0  0  0
   22.4542   19.3717    7.3614 N   0  0  0  0  0  0  0  0  0  0  0  0
   21.2466   19.0230    6.8899 C   0  0  0  0  0  0  0  0  0  0  0  0
   20.1018   19.7353    7.3126 C   0  0  0  0  0  0  0  0  0  0  0  0
   20.2926   20.8111    8.2353 C   0  0  0  0  0  0  0  0  0  0  0  0
   19.2243   21.5452    8.6894 N   0  0  0  0  0  0  0  0  0  0  0  0
   19.0260   19.1782    6.6862 N   0  0  0  0  0  0  0  0  0  0  0  0
   19.4303   18.2033    5.9286 C   0  0  0  0  0  0  0  0  0  0  0  0
   20.7920   18.0629    6.0199 N   0  0  0  0  0  0  0  0  0  0  0  0
  1  7  2  0  0  0  0
  1  2  1  0  0  0  0
  2  3  1  0  0  0  0
  2  4  2  0  0  0  0
  4  5  1  0  0  0  0
  5  6  2  0  0  0  0
  5 11  1  0  0  0  0
  6  7  1  0  0  0  0
  6  9  1  0  0  0  0
  7  8  1  0  0  0  0
  9 10  1  0  0  0  0
 10 11  2  0  0  0  0
M  END
>  <CHROM.1>
20.97751565,19.84433271,7.53035067,0.77054354,-0.11295472,0.69437555

>  <Name>
ligand

>  <RI>
0

>  <Rbt.Current_Directory>
/home/itssahil/PROJECTS/Mol_Feturizer/New_Systems/rnas/4FEO

>  <Rbt.Executable>
rbdock ($Id: //depot/dev/client3/rdock/2013.1/src/exe/rbdock.cxx#4 $)

>  <Rbt.Library>
libRbt.so (2013.1, Build901 2013/11/27)

>  <Rbt.Parameter_File>
/export/apps/rDock/src/rDock_2013.1_src/data/scripts/dock_solv.prm

>  <Rbt.Receptor>
prm/blind_docking_80.prm

>  <SCORE>
-6.28584

>  <SCORE.INTER>
-6.28584

>  <SCORE.INTER.CONST>
1

>  <SCORE.INTER.POLAR>
0

>  <SCORE.INTER.ROT>
0

>  <SCORE.INTER.SOLV>
6.57155

>  <SCORE.INTER.VDW>
-9.98108

>  <SCORE.INTER.norm>
-0.57144

>  <SCORE.INTRA>
0

>  <SCORE.INTRA.DIHEDRAL>
0

>  <SCORE.INTRA.DIHEDRAL.0>
0

>  <SCORE.INTRA.POLAR>
0

>  <SCORE.INTRA.POLAR.0>
0

>  <SCORE.INTRA.REPUL>
0

>  <SCORE.INTRA.REPUL.0>
0

>  <SCORE.INTRA.SOLV>
0

>  <SCORE.INTRA.SOLV.lig_0>
-48.9252

>  <SCORE.INTRA.VDW>
0

>  <SCORE.INTRA.VDW.0>
0

>  <SCORE.INTRA.norm>
0

>  <SCORE.RESTR>
0

>  <SCORE.RESTR.CAVITY>
0

>  <SCORE.RESTR.norm>
0

>  <SCORE.SYSTEM>
0

>  <SCORE.SYSTEM.CONST>
0

>  <SCORE.SYSTEM.DIHEDRAL>
0

>  <SCORE.SYSTEM.SOLV>
0

>  <SCORE.SYSTEM.norm>
0

>  <SCORE.heavy>
11

>  <SCORE.norm>
-0.57144

>  <RMSD>
12.401

$$$$
ligand
 OpenBabel11021811493D
libRbt.so/2013.1/901 2013/11/27
 11 12  0  0  0  0  0  0  0  0999 V2000
   21.5259   21.1234    8.7147 N   0  0  0  0  0  0  0  0  0  0  0  0
   22.5823   20.4199    8.2674 C   0  0  0  0  0  0  0  0  0  0  0  0
   23.8549   20.7475    8.7126 N   0  0  0  0  0  0  0  0  0  0  0  0
   22.4334   19.4079    7.3981 N   0  0  0  0  0  0  0  0  0  0  0  0
   21.2233   19.0582    6.9341 C   0  0  0  0  0  0  0  0  0  0  0  0
   20.0794   19.7631    7.3716 C   0  0  0  0  0  0  0  0  0  0  0  0
   20.2740   20.8327    8.3007 C   0  0  0  0  0  0  0  0  0  0  0  0
   19.2068   21.5593    8.7692 N   0  0  0  0  0  0  0  0  0  0  0  0
   19.0005   19.2068    6.7499 N   0  0  0  0  0  0  0  0  0  0  0  0
   19.4021   18.2391    5.9816 C   0  0  0  0  0  0  0  0  0  0  0  0
   20.7650   18.1030    6.0606 N   0  0  0  0  0  0  0  0  0  0  0  0
  1  7  2  0  0  0  0
  1  2  1  0  0  0  0
  2  3  1  0  0  0  0
  2  4  2  0  0  0  0
  4  5  1  0  0  0  0
  5  6  2  0  0  0  0
  5 11  1  0  0  0  0
  6  7  1  0  0  0  0
  6  9  1  0  0  0  0
  7  8  1  0  0  0  0
  9 10  1  0  0  0  0
 10 11  2  0  0  0  0
M  END
>  <CHROM.1>
20.95652207,19.87374862,7.58285194,0.76801978,-0.10424781,0.70161531

>  <Name>
ligand

>  <RI>
0

>  <Rbt.Current_Directory>
/home/itssahil/PROJECTS/Mol_Feturizer/New_Systems/rnas/4FEO

>  <Rbt.Executable>
rbdock ($Id: //depot/dev/client3/rdock/2013.1/src/exe/rbdock.cxx#4 $)

>  <Rbt.Library>
libRbt.so (2013.1, Build901 2013/11/27)

>  <Rbt.Parameter_File>
/export/apps/rDock/src/rDock_2013.1_src/data/scripts/dock_solv.prm

>  <Rbt.Receptor>
prm/blind_docking_60.prm

>  <SCORE>
-6.35095

>  <SCORE.INTER>
-6.35095

>  <SCORE.INTER.CONST>
1

>  <SCORE.INTER.POLAR>
0

>  <SCORE.INTER.ROT>
0

>  <SCORE.INTER.SOLV>
6.70546

>  <SCORE.INTER.VDW>
-10.0691

>  <SCORE.INTER.norm>
-0.577359

>  <SCORE.INTRA>
0

>  <SCORE.INTRA.DIHEDRAL>
0

>  <SCORE.INTRA.DIHEDRAL.0>
0

>  <SCORE.INTRA.POLAR>
0

>  <SCORE.INTRA.POLAR.0>
0

>  <SCORE.INTRA.REPUL>
0

>  <SCORE.INTRA.REPUL.0>
0

>  <SCORE.INTRA.SOLV>
0

>  <SCORE.INTRA.SOLV.lig_0>
-48.9252

>  <SCORE.INTRA.VDW>
0

>  <SCORE.INTRA.VDW.0>
0

>  <SCORE.INTRA.norm>
0

>  <SCORE.RESTR>
0

>  <SCORE.RESTR.CAVITY>
0

>  <SCORE.RESTR.norm>
0

>  <SCORE.SYSTEM>
0

>  <SCORE.SYSTEM.CONST>
0

>  <SCORE.SYSTEM.DIHEDRAL>
0

>  <SCORE.SYSTEM.SOLV>
0

>  <SCORE.SYSTEM.norm>
0

>  <SCORE.heavy>
11

>  <SCORE.norm>
-0.577359

>  <RMSD>
12.403

$$$$
ligand
 OpenBabel11021811493D
libRbt.so/2013.1/901 2013/11/27
 11 12  0  0  0  0  0  0  0  0999 V2000
   21.7950   20.8864    8.5730 N   0  0  0  0  0  0  0  0  0  0  0  0
   22.8038   20.1383    8.0900 C   0  0  0  0  0  0  0  0  0  0  0  0
   24.1034   20.4065    8.4952 N   0  0  0  0  0  0  0  0  0  0  0  0
   22.5820   19.1380    7.2228 N   0  0  0  0  0  0  0  0  0  0  0  0
   21.3432   18.8450    6.7966 C   0  0  0  0  0  0  0  0  0  0  0  0
   20.2467   19.5985    7.2727 C   0  0  0  0  0  0  0  0  0  0  0  0
   20.5187   20.6541    8.1984 C   0  0  0  0  0  0  0  0  0  0  0  0
   19.5007   21.4258    8.7030 N   0  0  0  0  0  0  0  0  0  0  0  0
   19.1246   19.0940    6.6841 N   0  0  0  0  0  0  0  0  0  0  0  0
   19.4575   18.1128    5.9004 C   0  0  0  0  0  0  0  0  0  0  0  0
   20.8148   17.9153    5.9353 N   0  0  0  0  0  0  0  0  0  0  0  0
  1  7  2  0  0  0  0
  1  2  1  0  0  0  0
  2  3  1  0  0  0  0
  2  4  2  0  0  0  0
  4  5  1  0  0  0  0
  5  6  2  0  0  0  0
  5 11  1  0  0  0  0
  6  7  1  0  0  0  0
  6  9  1  0  0  0  0
  7  8  1  0  0  0  0
  9 10  1  0  0  0  0
 10 11  2  0  0  0  0
M  END
>  <CHROM.1>
21.13415312,19.66877911,7.45611067,0.71273861,-0.10882815,0.69955134

>  <Name>
ligand

>  <RI>
0

>  <Rbt.Current_Directory>
/home/itssahil/PROJECTS/Mol_Feturizer/New_Systems/rnas/4FEO

>  <Rbt.Executable>
rbdock ($Id: //depot/dev/client3/rdock/2013.1/src/exe/rbdock.cxx#4 $)

>  <Rbt.Library>
libRbt.so (2013.1, Build901 2013/11/27)

>  <Rbt.Parameter_File>
/export/apps/rDock/src/rDock_2013.1_src/data/scripts/dock_solv.prm

>  <Rbt.Receptor>
prm/blind_docking_40.prm

>  <SCORE>
-6.42564

>  <SCORE.INTER>
-6.42564

>  <SCORE.INTER.CONST>
1

>  <SCORE.INTER.POLAR>
0

>  <SCORE.INTER.ROT>
0

>  <SCORE.INTER.SOLV>
6.27992

>  <SCORE.INTER.VDW>
-9.97707

>  <SCORE.INTER.norm>
-0.584149

>  <SCORE.INTRA>
0

>  <SCORE.INTRA.DIHEDRAL>
0

>  <SCORE.INTRA.DIHEDRAL.0>
0

>  <SCORE.INTRA.POLAR>
0

>  <SCORE.INTRA.POLAR.0>
0

>  <SCORE.INTRA.REPUL>
0

>  <SCORE.INTRA.REPUL.0>
0

>  <SCORE.INTRA.SOLV>
0

>  <SCORE.INTRA.SOLV.lig_0>
-48.9252

>  <SCORE.INTRA.VDW>
0

>  <SCORE.INTRA.VDW.0>
0

>  <SCORE.INTRA.norm>
0

>  <SCORE.RESTR>
0

>  <SCORE.RESTR.CAVITY>
0

>  <SCORE.RESTR.norm>
0

>  <SCORE.SYSTEM>
0

>  <SCORE.SYSTEM.CONST>
0

>  <SCORE.SYSTEM.DIHEDRAL>
0

>  <SCORE.SYSTEM.SOLV>
0

>  <SCORE.SYSTEM.norm>
0

>  <SCORE.heavy>
11

>  <SCORE.norm>
-0.584149

>  <RMSD>
12.419

$$$$
ligand
 OpenBabel11021811493D
libRbt.so/2013.1/901 2013/11/27
 11 12  0  0  0  0  0  0  0  0999 V2000
   26.2321   10.1746    6.4968 N   0  0  0  0  0  0  0  0  0  0  0  0
   26.3387   11.0138    5.4504 C   0  0  0  0  0  0  0  0  0  0  0  0
   27.3500   11.9637    5.4411 N   0  0  0  0  0  0  0  0  0  0  0  0
   25.4874   10.9542    4.4142 N   0  0  0  0  0  0  0  0  0  0  0  0
   24.4894   10.0570    4.3811 C   0  0  0  0  0  0  0  0  0  0  0  0
   24.3319    9.1508    5.4538 C   0  0  0  0  0  0  0  0  0  0  0  0
   25.2589    9.2396    6.5392 C   0  0  0  0  0  0  0  0  0  0  0  0
   25.1659    8.3895    7.6139 N   0  0  0  0  0  0  0  0  0  0  0  0
   23.2557    8.3650    5.1634 N   0  0  0  0  0  0  0  0  0  0  0  0
   22.7598    8.7259    4.0181 C   0  0  0  0  0  0  0  0  0  0  0  0
   23.4858    9.7640    3.4910 N   0  0  0  0  0  0  0  0  0  0  0  0
  1  7  2  0  0  0  0
  1  2  1  0  0  0  0
  2  3  1  0  0  0  0
  2  4  2  0  0  0  0
  4  5  1  0  0  0  0
  5  6  2  0  0  0  0
  5 11  1  0  0  0  0
  6  7  1  0  0  0  0
  6  9  1  0  0  0  0
  7  8  1  0  0  0  0
  9 10  1  0  0  0  0
 10 11  2  0  0  0  0
M  END
>  <CHROM.1>
24.94316010,9.81107760,5.32494355,-0.04348285,0.64659907,2.18844860

>  <Name>
ligand

>  <RI>
0

>  <Rbt.Current_Directory>
/home/itssahil/PROJECTS/Mol_Feturizer/New_Systems/rnas/4FEO

>  <Rbt.Executable>
rbdock ($Id: //depot/dev/client3/rdock/2013.1/src/exe/rbdock.cxx#4 $)

>  <Rbt.Library>
libRbt.so (2013.1, Build901 2013/11/27)

>  <Rbt.Parameter_File>
/export/apps/rDock/src/rDock_2013.1_src/data/scripts/dock_solv.prm

>  <Rbt.Receptor>
prm/blind_docking_100.prm

>  <SCORE>
-7.21155

>  <SCORE.INTER>
-7.21155

>  <SCORE.INTER.CONST>
1

>  <SCORE.INTER.POLAR>
0

>  <SCORE.INTER.ROT>
0

>  <SCORE.INTER.SOLV>
4.14684

>  <SCORE.INTER.VDW>
-9.78998

>  <SCORE.INTER.norm>
-0.655596

>  <SCORE.INTRA>
0

>  <SCORE.INTRA.DIHEDRAL>
0

>  <SCORE.INTRA.DIHEDRAL.0>
0

>  <SCORE.INTRA.POLAR>
0

>  <SCORE.INTRA.POLAR.0>
0

>  <SCORE.INTRA.REPUL>
0

>  <SCORE.INTRA.REPUL.0>
0

>  <SCORE.INTRA.SOLV>
0

>  <SCORE.INTRA.SOLV.lig_0>
-48.9252

>  <SCORE.INTRA.VDW>
0

>  <SCORE.INTRA.VDW.0>
0

>  <SCORE.INTRA.norm>
0

>  <SCORE.RESTR>
0

>  <SCORE.RESTR.CAVITY>
0

>  <SCORE.RESTR.norm>
0

>  <SCORE.SYSTEM>
0

>  <SCORE.SYSTEM.CONST>
0

>  <SCORE.SYSTEM.DIHEDRAL>
0

>  <SCORE.SYSTEM.SOLV>
0

>  <SCORE.SYSTEM.norm>
0

>  <SCORE.heavy>
11

>  <SCORE.norm>
-0.655596

>  <RMSD>
13.890

$$$$
ligand
 OpenBabel11021811493D
libRbt.so/2013.1/901 2013/11/27
 11 12  0  0  0  0  0  0  0  0999 V2000
   26.8260   10.7838    3.4429 N   0  0  0  0  0  0  0  0  0  0  0  0
   26.5492   11.1819    4.6981 C   0  0  0  0  0  0  0  0  0  0  0  0
   27.4687   11.9646    5.3814 N   0  0  0  0  0  0  0  0  0  0  0  0
   25.4030   10.8376    5.3062 N   0  0  0  0  0  0  0  0  0  0  0  0
   24.4860   10.0764    4.6883 C   0  0  0  0  0  0  0  0  0  0  0  0
   24.7252    9.6313    3.3687 C   0  0  0  0  0  0  0  0  0  0  0  0
   25.9545   10.0200    2.7498 C   0  0  0  0  0  0  0  0  0  0  0  0
   26.2519    9.6245    1.4686 N   0  0  0  0  0  0  0  0  0  0  0  0
   23.6462    8.8871    2.9922 N   0  0  0  0  0  0  0  0  0  0  0  0
   22.7917    8.8482    3.9700 C   0  0  0  0  0  0  0  0  0  0  0  0
   23.2595    9.5689    5.0397 N   0  0  0  0  0  0  0  0  0  0  0  0
  1  7  2  0  0  0  0
  1  2  1  0  0  0  0
  2  3  1  0  0  0  0
  2  4  2  0  0  0  0
  4  5  1  0  0  0  0
  5  6  2  0  0  0  0
  5 11  1  0  0  0  0
  6  7  1  0  0  0  0
  6  9  1  0  0  0  0
  7  8  1  0  0  0  0
  9 10  1  0  0  0  0
 10 11  2  0  0  0  0
M  END
>  <CHROM.1>
25.23642928,10.14178837,3.92036372,-0.37238257,-0.45658406,-1.97968250

>  <Name>
ligand

>  <RI>
0

>  <Rbt.Current_Directory>
/home/itssahil/PROJECTS/Mol_Feturizer/New_Systems/rnas/4FEO

>  <Rbt.Executable>
rbdock ($Id: //depot/dev/client3/rdock/2013.1/src/exe/rbdock.cxx#4 $)

>  <Rbt.Library>
libRbt.so (2013.1, Build901 2013/11/27)

>  <Rbt.Parameter_File>
/export/apps/rDock/src/rDock_2013.1_src/data/scripts/dock_solv.prm

>  <Rbt.Receptor>
prm/blind_docking_100.prm

>  <SCORE>
-8.37868

>  <SCORE.INTER>
-8.37868

>  <SCORE.INTER.CONST>
1

>  <SCORE.INTER.POLAR>
0

>  <SCORE.INTER.ROT>
0

>  <SCORE.INTER.SOLV>
4.70194

>  <SCORE.INTER.VDW>
-10.7531

>  <SCORE.INTER.norm>
-0.761699

>  <SCORE.INTRA>
0

>  <SCORE.INTRA.DIHEDRAL>
0

>  <SCORE.INTRA.DIHEDRAL.0>
0

>  <SCORE.INTRA.POLAR>
0

>  <SCORE.INTRA.POLAR.0>
0

>  <SCORE.INTRA.REPUL>
0

>  <SCORE.INTRA.REPUL.0>
0

>  <SCORE.INTRA.SOLV>
0

>  <SCORE.INTRA.SOLV.lig_0>
-48.9252

>  <SCORE.INTRA.VDW>
0

>  <SCORE.INTRA.VDW.0>
0

>  <SCORE.INTRA.norm>
0

>  <SCORE.RESTR>
0

>  <SCORE.RESTR.CAVITY>
0

>  <SCORE.RESTR.norm>
0

>  <SCORE.SYSTEM>
0

>  <SCORE.SYSTEM.CONST>
0

>  <SCORE.SYSTEM.DIHEDRAL>
0

>  <SCORE.SYSTEM.SOLV>
0

>  <SCORE.SYSTEM.norm>
0

>  <SCORE.heavy>
11

>  <SCORE.norm>
-0.761699

>  <RMSD>
14.478

$$$$
ligand
 OpenBabel11021811493D
libRbt.so/2013.1/901 2013/11/27
 11 12  0  0  0  0  0  0  0  0999 V2000
   26.8442   10.8129    3.4421 N   0  0  0  0  0  0  0  0  0  0  0  0
   26.5648   11.2068    4.6980 C   0  0  0  0  0  0  0  0  0  0  0  0
   27.4868   11.9799    5.3890 N   0  0  0  0  0  0  0  0  0  0  0  0
   25.4137   10.8676    5.2996 N   0  0  0  0  0  0  0  0  0  0  0  0
   24.4941   10.1157    4.6742 C   0  0  0  0  0  0  0  0  0  0  0  0
   24.7359    9.6753    3.3535 C   0  0  0  0  0  0  0  0  0  0  0  0
   25.9705   10.0584    2.7417 C   0  0  0  0  0  0  0  0  0  0  0  0
   26.2706    9.6670    1.4598 N   0  0  0  0  0  0  0  0  0  0  0  0
   23.6535    8.9404    2.9688 N   0  0  0  0  0  0  0  0  0  0  0  0
   22.7945    8.9028    3.9428 C   0  0  0  0  0  0  0  0  0  0  0  0
   23.2626    9.6151    5.0179 N   0  0  0  0  0  0  0  0  0  0  0  0
  1  7  2  0  0  0  0
  1  2  1  0  0  0  0
  2  3  1  0  0  0  0
  2  4  2  0  0  0  0
  4  5  1  0  0  0  0
  5  6  2  0  0  0  0
  5 11  1  0  0  0  0
  6  7  1  0  0  0  0
  6  9  1  0  0  0  0
  7  8  1  0  0  0  0
  9 10  1  0  0  0  0
 10 11  2  0  0  0  0
M  END
>  <CHROM.1>
25.24828076,10.17961395,3.90971292,-0.37369808,-0.44854037,-1.97546309

>  <Name>
ligand

>  <RI>
0

>  <Rbt.Current_Directory>
/home/itssahil/PROJECTS/Mol_Feturizer/New_Systems/rnas/4FEO

>  <Rbt.Executable>
rbdock ($Id: //depot/dev/client3/rdock/2013.1/src/exe/rbdock.cxx#4 $)

>  <Rbt.Library>
libRbt.so (2013.1, Build901 2013/11/27)

>  <Rbt.Parameter_File>
/export/apps/rDock/src/rDock_2013.1_src/data/scripts/dock_solv.prm

>  <Rbt.Receptor>
prm/blind_docking_80.prm

>  <SCORE>
-8.4017

>  <SCORE.INTER>
-8.4017

>  <SCORE.INTER.CONST>
1

>  <SCORE.INTER.POLAR>
0

>  <SCORE.INTER.ROT>
0

>  <SCORE.INTER.SOLV>
4.857

>  <SCORE.INTER.VDW>
-10.8201

>  <SCORE.INTER.norm>
-0.763791

>  <SCORE.INTRA>
0

>  <SCORE.INTRA.DIHEDRAL>
0

>  <SCORE.INTRA.DIHEDRAL.0>
0

>  <SCORE.INTRA.POLAR>
0

>  <SCORE.INTRA.POLAR.0>
0

>  <SCORE.INTRA.REPUL>
0

>  <SCORE.INTRA.REPUL.0>
0

>  <SCORE.INTRA.SOLV>
0

>  <SCORE.INTRA.SOLV.lig_0>
-48.9252

>  <SCORE.INTRA.VDW>
0

>  <SCORE.INTRA.VDW.0>
0

>  <SCORE.INTRA.norm>
0

>  <SCORE.RESTR>
0

>  <SCORE.RESTR.CAVITY>
0

>  <SCORE.RESTR.norm>
0

>  <SCORE.SYSTEM>
0

>  <SCORE.SYSTEM.CONST>
0

>  <SCORE.SYSTEM.DIHEDRAL>
0

>  <SCORE.SYSTEM.SOLV>
0

>  <SCORE.SYSTEM.norm>
0

>  <SCORE.heavy>
11

>  <SCORE.norm>
-0.763791

>  <RMSD>
14.486

$$$$
ligand
 OpenBabel11021811493D
libRbt.so/2013.1/901 2013/11/27
 11 12  0  0  0  0  0  0  0  0999 V2000
   26.4559   10.2919    2.1106 N   0  0  0  0  0  0  0  0  0  0  0  0
   25.5538    9.8618    1.2096 C   0  0  0  0  0  0  0  0  0  0  0  0
   25.8987    9.8261   -0.1339 N   0  0  0  0  0  0  0  0  0  0  0  0
   24.3255    9.4672    1.5805 N   0  0  0  0  0  0  0  0  0  0  0  0
   23.9435    9.4901    2.8672 C   0  0  0  0  0  0  0  0  0  0  0  0
   24.8518    9.9320    3.8554 C   0  0  0  0  0  0  0  0  0  0  0  0
   26.1529   10.3413    3.4256 C   0  0  0  0  0  0  0  0  0  0  0  0
   27.0864   10.7807    4.3321 N   0  0  0  0  0  0  0  0  0  0  0  0
   24.2106    9.8536    5.0565 N   0  0  0  0  0  0  0  0  0  0  0  0
   23.0044    9.4088    4.8688 C   0  0  0  0  0  0  0  0  0  0  0  0
   22.7890    9.1654    3.5359 N   0  0  0  0  0  0  0  0  0  0  0  0
  1  7  2  0  0  0  0
  1  2  1  0  0  0  0
  2  3  1  0  0  0  0
  2  4  2  0  0  0  0
  4  5  1  0  0  0  0
  5  6  2  0  0  0  0
  5 11  1  0  0  0  0
  6  7  1  0  0  0  0
  6  9  1  0  0  0  0
  7  8  1  0  0  0  0
  9 10  1  0  0  0  0
 10 11  2  0  0  0  0
M  END
>  <CHROM.1>
24.94997733,9.85968761,2.95465588,-0.93279083,0.33766026,1.45037529

>  <Name>
ligand

>  <RI>
0

>  <Rbt.Current_Directory>
/home/itssahil/PROJECTS/Mol_Feturizer/New_Systems/rnas/4FEO

>  <Rbt.Executable>
rbdock ($Id: //depot/dev/client3/rdock/2013.1/src/exe/rbdock.cxx#4 $)

>  <Rbt.Library>
libRbt.so (2013.1, Build901 2013/11/27)

>  <Rbt.Parameter_File>
/export/apps/rDock/src/rDock_2013.1_src/data/scripts/dock_solv.prm

>  <Rbt.Receptor>
prm/blind_docking_100.prm

>  <SCORE>
-7.74581

>  <SCORE.INTER>
-7.74581

>  <SCORE.INTER.CONST>
1

>  <SCORE.INTER.POLAR>
0

>  <SCORE.INTER.ROT>
0

>  <SCORE.INTER.SOLV>
6.74278

>  <SCORE.INTER.VDW>
-11.0115

>  <SCORE.INTER.norm>
-0.704165

>  <SCORE.INTRA>
0

>  <SCORE.INTRA.DIHEDRAL>
0

>  <SCORE.INTRA.DIHEDRAL.0>
0

>  <SCORE.INTRA.POLAR>
0

>  <SCORE.INTRA.POLAR.0>
0

>  <SCORE.INTRA.REPUL>
0

>  <SCORE.INTRA.REPUL.0>
0

>  <SCORE.INTRA.SOLV>
0

>  <SCORE.INTRA.SOLV.lig_0>
-48.9252

>  <SCORE.INTRA.VDW>
0

>  <SCORE.INTRA.VDW.0>
0

>  <SCORE.INTRA.norm>
0

>  <SCORE.RESTR>
0

>  <SCORE.RESTR.CAVITY>
0

>  <SCORE.RESTR.norm>
0

>  <SCORE.SYSTEM>
0

>  <SCORE.SYSTEM.CONST>
0

>  <SCORE.SYSTEM.DIHEDRAL>
0

>  <SCORE.SYSTEM.SOLV>
0

>  <SCORE.SYSTEM.norm>
0

>  <SCORE.heavy>
11

>  <SCORE.norm>
-0.704165

>  <RMSD>
14.770

$$$$
ligand
 OpenBabel11021811493D
libRbt.so/2013.1/901 2013/11/27
 11 12  0  0  0  0  0  0  0  0999 V2000
   22.1925   23.0882   10.8459 N   0  0  0  0  0  0  0  0  0  0  0  0
   22.1112   23.7462   12.0169 C   0  0  0  0  0  0  0  0  0  0  0  0
   22.5348   23.1191   13.1798 N   0  0  0  0  0  0  0  0  0  0  0  0
   21.6278   24.9966   12.0865 N   0  0  0  0  0  0  0  0  0  0  0  0
   21.1999   25.6419   10.9899 C   0  0  0  0  0  0  0  0  0  0  0  0
   21.2634   24.9978    9.7337 C   0  0  0  0  0  0  0  0  0  0  0  0
   21.7875   23.6678    9.6955 C   0  0  0  0  0  0  0  0  0  0  0  0
   21.8797   22.9827    8.5087 N   0  0  0  0  0  0  0  0  0  0  0  0
   20.7704   25.8696    8.8080 N   0  0  0  0  0  0  0  0  0  0  0  0
   20.4176   26.9697    9.4024 C   0  0  0  0  0  0  0  0  0  0  0  0
   20.6645   26.8832   10.7492 N   0  0  0  0  0  0  0  0  0  0  0  0
  1  7  2  0  0  0  0
  1  2  1  0  0  0  0
  2  3  1  0  0  0  0
  2  4  2  0  0  0  0
  4  5  1  0  0  0  0
  5  6  2  0  0  0  0
  5 11  1  0  0  0  0
  6  7  1  0  0  0  0
  6  9  1  0  0  0  0
  7  8  1  0  0  0  0
  9 10  1  0  0  0  0
 10 11  2  0  0  0  0
M  END
>  <CHROM.1>
21.50505495,24.70444838,10.55937736,-0.29941271,1.16665582,-1.93715126

>  <Name>
ligand

>  <RI>
0

>  <Rbt.Current_Directory>
/home/itssahil/PROJECTS/Mol_Feturizer/New_Systems/rnas/4FEO

>  <Rbt.Executable>
rbdock ($Id: //depot/dev/client3/rdock/2013.1/src/exe/rbdock.cxx#4 $)

>  <Rbt.Library>
libRbt.so (2013.1, Build901 2013/11/27)

>  <Rbt.Parameter_File>
/export/apps/rDock/src/rDock_2013.1_src/data/scripts/dock_solv.prm

>  <Rbt.Receptor>
prm/blind_docking_100.prm

>  <SCORE>
-5.55292

>  <SCORE.INTER>
-5.55292

>  <SCORE.INTER.CONST>
1

>  <SCORE.INTER.POLAR>
0

>  <SCORE.INTER.ROT>
0

>  <SCORE.INTER.SOLV>
2.95724

>  <SCORE.INTER.VDW>
-8.2877

>  <SCORE.INTER.norm>
-0.504811

>  <SCORE.INTRA>
0

>  <SCORE.INTRA.DIHEDRAL>
0

>  <SCORE.INTRA.DIHEDRAL.0>
0

>  <SCORE.INTRA.POLAR>
0

>  <SCORE.INTRA.POLAR.0>
0

>  <SCORE.INTRA.REPUL>
0

>  <SCORE.INTRA.REPUL.0>
0

>  <SCORE.INTRA.SOLV>
0

>  <SCORE.INTRA.SOLV.lig_0>
-48.9252

>  <SCORE.INTRA.VDW>
0

>  <SCORE.INTRA.VDW.0>
0

>  <SCORE.INTRA.norm>
0

>  <SCORE.RESTR>
0

>  <SCORE.RESTR.CAVITY>
0

>  <SCORE.RESTR.norm>
0

>  <SCORE.SYSTEM>
0

>  <SCORE.SYSTEM.CONST>
0

>  <SCORE.SYSTEM.DIHEDRAL>
0

>  <SCORE.SYSTEM.SOLV>
0

>  <SCORE.SYSTEM.norm>
0

>  <SCORE.heavy>
11

>  <SCORE.norm>
-0.504811

>  <RMSD>
16.354

$$$$
ligand
 OpenBabel11021811493D
libRbt.so/2013.1/901 2013/11/27
 11 12  0  0  0  0  0  0  0  0999 V2000
   22.4955   23.2642    9.9040 N   0  0  0  0  0  0  0  0  0  0  0  0
   22.3585   23.5221    8.5905 C   0  0  0  0  0  0  0  0  0  0  0  0
   22.8858   22.6333    7.6646 N   0  0  0  0  0  0  0  0  0  0  0  0
   21.7238   24.6216    8.1543 N   0  0  0  0  0  0  0  0  0  0  0  0
   21.2030   25.5137    9.0116 C   0  0  0  0  0  0  0  0  0  0  0  0
   21.3175   25.2917   10.4024 C   0  0  0  0  0  0  0  0  0  0  0  0
   21.9962   24.1085   10.8320 C   0  0  0  0  0  0  0  0  0  0  0  0
   22.1429   23.8287   12.1686 N   0  0  0  0  0  0  0  0  0  0  0  0
   20.7102   26.3395   11.0294 N   0  0  0  0  0  0  0  0  0  0  0  0
   20.2498   27.1632   10.1364 C   0  0  0  0  0  0  0  0  0  0  0  0
   20.5241   26.6993    8.8747 N   0  0  0  0  0  0  0  0  0  0  0  0
  1  7  2  0  0  0  0
  1  2  1  0  0  0  0
  2  3  1  0  0  0  0
  2  4  2  0  0  0  0
  4  5  1  0  0  0  0
  5  6  2  0  0  0  0
  5 11  1  0  0  0  0
  6  7  1  0  0  0  0
  6  9  1  0  0  0  0
  7  8  1  0  0  0  0
  9 10  1  0  0  0  0
 10 11  2  0  0  0  0
M  END
>  <CHROM.1>
21.61282955,24.79589574,9.70011659,-0.34462448,-1.04783816,1.58910641

>  <Name>
ligand

>  <RI>
0

>  <Rbt.Current_Directory>
/home/itssahil/PROJECTS/Mol_Feturizer/New_Systems/rnas/4FEO

>  <Rbt.Executable>
rbdock ($Id: //depot/dev/client3/rdock/2013.1/src/exe/rbdock.cxx#4 $)

>  <Rbt.Library>
libRbt.so (2013.1, Build901 2013/11/27)

>  <Rbt.Parameter_File>
/export/apps/rDock/src/rDock_2013.1_src/data/scripts/dock_solv.prm

>  <Rbt.Receptor>
prm/blind_docking_40.prm

>  <SCORE>
-6.62526

>  <SCORE.INTER>
-6.62526

>  <SCORE.INTER.CONST>
1

>  <SCORE.INTER.POLAR>
0

>  <SCORE.INTER.ROT>
0

>  <SCORE.INTER.SOLV>
4.7038

>  <SCORE.INTER.VDW>
-9.58477

>  <SCORE.INTER.norm>
-0.602297

>  <SCORE.INTRA>
0

>  <SCORE.INTRA.DIHEDRAL>
0

>  <SCORE.INTRA.DIHEDRAL.0>
0

>  <SCORE.INTRA.POLAR>
0

>  <SCORE.INTRA.POLAR.0>
0

>  <SCORE.INTRA.REPUL>
0

>  <SCORE.INTRA.REPUL.0>
0

>  <SCORE.INTRA.SOLV>
0

>  <SCORE.INTRA.SOLV.lig_0>
-48.9252

>  <SCORE.INTRA.VDW>
0

>  <SCORE.INTRA.VDW.0>
0

>  <SCORE.INTRA.norm>
0

>  <SCORE.RESTR>
0

>  <SCORE.RESTR.CAVITY>
0

>  <SCORE.RESTR.norm>
0

>  <SCORE.SYSTEM>
0

>  <SCORE.SYSTEM.CONST>
0

>  <SCORE.SYSTEM.DIHEDRAL>
0

>  <SCORE.SYSTEM.SOLV>
0

>  <SCORE.SYSTEM.norm>
0

>  <SCORE.heavy>
11

>  <SCORE.norm>
-0.602297

>  <RMSD>
16.539

$$$$
ligand
 OpenBabel11021811493D
libRbt.so/2013.1/901 2013/11/27
 11 12  0  0  0  0  0  0  0  0999 V2000
   22.4509   23.2784    9.9350 N   0  0  0  0  0  0  0  0  0  0  0  0
   22.3062   23.5331    8.6216 C   0  0  0  0  0  0  0  0  0  0  0  0
   22.8183   22.6366    7.6948 N   0  0  0  0  0  0  0  0  0  0  0  0
   21.6782   24.6369    8.1865 N   0  0  0  0  0  0  0  0  0  0  0  0
   21.1721   25.5365    9.0448 C   0  0  0  0  0  0  0  0  0  0  0  0
   21.2952   25.3182   10.4354 C   0  0  0  0  0  0  0  0  0  0  0  0
   21.9664   24.1302   10.8638 C   0  0  0  0  0  0  0  0  0  0  0  0
   22.1208   23.8536   12.2003 N   0  0  0  0  0  0  0  0  0  0  0  0
   20.7023   26.3736   11.0635 N   0  0  0  0  0  0  0  0  0  0  0  0
   20.2425   27.1984   10.1713 C   0  0  0  0  0  0  0  0  0  0  0  0
   20.5029   26.7278    8.9091 N   0  0  0  0  0  0  0  0  0  0  0  0
  1  7  2  0  0  0  0
  1  2  1  0  0  0  0
  2  3  1  0  0  0  0
  2  4  2  0  0  0  0
  4  5  1  0  0  0  0
  5  6  2  0  0  0  0
  5 11  1  0  0  0  0
  6  7  1  0  0  0  0
  6  9  1  0  0  0  0
  7  8  1  0  0  0  0
  9 10  1  0  0  0  0
 10 11  2  0  0  0  0
M  END
>  <CHROM.1>
21.58065166,24.81736809,9.73260698,-0.35987403,-1.05700245,1.57251318

>  <Name>
ligand

>  <RI>
0

>  <Rbt.Current_Directory>
/home/itssahil/PROJECTS/Mol_Feturizer/New_Systems/rnas/4FEO

>  <Rbt.Executable>
rbdock ($Id: //depot/dev/client3/rdock/2013.1/src/exe/rbdock.cxx#4 $)

>  <Rbt.Library>
libRbt.so (2013.1, Build901 2013/11/27)

>  <Rbt.Parameter_File>
/export/apps/rDock/src/rDock_2013.1_src/data/scripts/dock_solv.prm

>  <Rbt.Receptor>
prm/blind_docking_80.prm

>  <SCORE>
-6.62207

>  <SCORE.INTER>
-6.62207

>  <SCORE.INTER.CONST>
1

>  <SCORE.INTER.POLAR>
0

>  <SCORE.INTER.ROT>
0

>  <SCORE.INTER.SOLV>
4.63357

>  <SCORE.INTER.VDW>
-9.55924

>  <SCORE.INTER.norm>
-0.602007

>  <SCORE.INTRA>
0

>  <SCORE.INTRA.DIHEDRAL>
0

>  <SCORE.INTRA.DIHEDRAL.0>
0

>  <SCORE.INTRA.POLAR>
0

>  <SCORE.INTRA.POLAR.0>
0

>  <SCORE.INTRA.REPUL>
0

>  <SCORE.INTRA.REPUL.0>
0

>  <SCORE.INTRA.SOLV>
0

>  <SCORE.INTRA.SOLV.lig_0>
-48.9252

>  <SCORE.INTRA.VDW>
0

>  <SCORE.INTRA.VDW.0>
0

>  <SCORE.INTRA.norm>
0

>  <SCORE.RESTR>
0

>  <SCORE.RESTR.CAVITY>
0

>  <SCORE.RESTR.norm>
0

>  <SCORE.SYSTEM>
0

>  <SCORE.SYSTEM.CONST>
0

>  <SCORE.SYSTEM.DIHEDRAL>
0

>  <SCORE.SYSTEM.SOLV>
0

>  <SCORE.SYSTEM.norm>
0

>  <SCORE.heavy>
11

>  <SCORE.norm>
-0.602007

>  <RMSD>
16.541

$$$$
ligand
 OpenBabel11021811493D
libRbt.so/2013.1/901 2013/11/27
 11 12  0  0  0  0  0  0  0  0999 V2000
   26.7230   10.3878    4.0899 N   0  0  0  0  0  0  0  0  0  0  0  0
   27.2359   10.8642    5.2391 C   0  0  0  0  0  0  0  0  0  0  0  0
   27.2219   12.2314    5.4745 N   0  0  0  0  0  0  0  0  0  0  0  0
   27.7631   10.0463    6.1638 N   0  0  0  0  0  0  0  0  0  0  0  0
   27.8053    8.7175    5.9782 C   0  0  0  0  0  0  0  0  0  0  0  0
   27.2796    8.1634    4.7893 C   0  0  0  0  0  0  0  0  0  0  0  0
   26.7222    9.0633    3.8276 C   0  0  0  0  0  0  0  0  0  0  0  0
   26.1924    8.5938    2.6506 N   0  0  0  0  0  0  0  0  0  0  0  0
   27.4517    6.8126    4.8633 N   0  0  0  0  0  0  0  0  0  0  0  0
   28.0345    6.5169    5.9862 C   0  0  0  0  0  0  0  0  0  0  0  0
   28.2719    7.6558    6.7134 N   0  0  0  0  0  0  0  0  0  0  0  0
  1  7  2  0  0  0  0
  1  2  1  0  0  0  0
  2  3  1  0  0  0  0
  2  4  2  0  0  0  0
  4  5  1  0  0  0  0
  5  6  2  0  0  0  0
  5 11  1  0  0  0  0
  6  7  1  0  0  0  0
  6  9  1  0  0  0  0
  7  8  1  0  0  0  0
  9 10  1  0  0  0  0
 10 11  2  0  0  0  0
M  END
>  <CHROM.1>
27.33101575,9.02835252,5.06406879,1.97031225,-1.10819289,0.19829051

>  <Name>
ligand

>  <RI>
0

>  <Rbt.Current_Directory>
/home/itssahil/PROJECTS/Mol_Feturizer/New_Systems/rnas/4FEO

>  <Rbt.Executable>
rbdock ($Id: //depot/dev/client3/rdock/2013.1/src/exe/rbdock.cxx#4 $)

>  <Rbt.Library>
libRbt.so (2013.1, Build901 2013/11/27)

>  <Rbt.Parameter_File>
/export/apps/rDock/src/rDock_2013.1_src/data/scripts/dock_solv.prm

>  <Rbt.Receptor>
prm/blind_docking_80.prm

>  <SCORE>
-4.53435

>  <SCORE.INTER>
-4.53435

>  <SCORE.INTER.CONST>
1

>  <SCORE.INTER.POLAR>
0

>  <SCORE.INTER.ROT>
0

>  <SCORE.INTER.SOLV>
1.10584

>  <SCORE.INTER.VDW>
-6.99151

>  <SCORE.INTER.norm>
-0.412214

>  <SCORE.INTRA>
0

>  <SCORE.INTRA.DIHEDRAL>
0

>  <SCORE.INTRA.DIHEDRAL.0>
0

>  <SCORE.INTRA.POLAR>
0

>  <SCORE.INTRA.POLAR.0>
0

>  <SCORE.INTRA.REPUL>
0

>  <SCORE.INTRA.REPUL.0>
0

>  <SCORE.INTRA.SOLV>
0

>  <SCORE.INTRA.SOLV.lig_0>
-48.9252

>  <SCORE.INTRA.VDW>
0

>  <SCORE.INTRA.VDW.0>
0

>  <SCORE.INTRA.norm>
0

>  <SCORE.RESTR>
0

>  <SCORE.RESTR.CAVITY>
0

>  <SCORE.RESTR.norm>
0

>  <SCORE.SYSTEM>
0

>  <SCORE.SYSTEM.CONST>
0

>  <SCORE.SYSTEM.DIHEDRAL>
0

>  <SCORE.SYSTEM.SOLV>
0

>  <SCORE.SYSTEM.norm>
0

>  <SCORE.heavy>
11

>  <SCORE.norm>
-0.412214

>  <RMSD>
16.544

$$$$
ligand
 OpenBabel11021811493D
libRbt.so/2013.1/901 2013/11/27
 11 12  0  0  0  0  0  0  0  0999 V2000
   23.0257   21.8973   13.4204 N   0  0  0  0  0  0  0  0  0  0  0  0
   24.2175   21.4103   13.0290 C   0  0  0  0  0  0  0  0  0  0  0  0
   24.8314   21.9395   11.9029 N   0  0  0  0  0  0  0  0  0  0  0  0
   24.8267   20.4221   13.7030 N   0  0  0  0  0  0  0  0  0  0  0  0
   24.2691   19.8739   14.7941 C   0  0  0  0  0  0  0  0  0  0  0  0
   23.0183   20.3480   15.2497 C   0  0  0  0  0  0  0  0  0  0  0  0
   22.3995   21.4043   14.5103 C   0  0  0  0  0  0  0  0  0  0  0  0
   21.1845   21.9145   14.8972 N   0  0  0  0  0  0  0  0  0  0  0  0
   22.6920   19.6240   16.3585 N   0  0  0  0  0  0  0  0  0  0  0  0
   23.6342   18.7622   16.5985 C   0  0  0  0  0  0  0  0  0  0  0  0
   24.6329   18.8765   15.6648 N   0  0  0  0  0  0  0  0  0  0  0  0
  1  7  2  0  0  0  0
  1  2  1  0  0  0  0
  2  3  1  0  0  0  0
  2  4  2  0  0  0  0
  4  5  1  0  0  0  0
  5  6  2  0  0  0  0
  5 11  1  0  0  0  0
  6  7  1  0  0  0  0
  6  9  1  0  0  0  0
  7  8  1  0  0  0  0
  9 10  1  0  0  0  0
 10 11  2  0  0  0  0
M  END
>  <CHROM.1>
23.52201031,20.60425000,14.53779454,1.41550243,0.48401414,-0.86486412

>  <Name>
ligand

>  <RI>
0

>  <Rbt.Current_Directory>
/home/itssahil/PROJECTS/Mol_Feturizer/New_Systems/rnas/4FEO

>  <Rbt.Executable>
rbdock ($Id: //depot/dev/client3/rdock/2013.1/src/exe/rbdock.cxx#4 $)

>  <Rbt.Library>
libRbt.so (2013.1, Build901 2013/11/27)

>  <Rbt.Parameter_File>
/export/apps/rDock/src/rDock_2013.1_src/data/scripts/dock_solv.prm

>  <Rbt.Receptor>
prm/blind_docking_40.prm

>  <SCORE>
-6.25307

>  <SCORE.INTER>
-6.25307

>  <SCORE.INTER.CONST>
1

>  <SCORE.INTER.POLAR>
0

>  <SCORE.INTER.ROT>
0

>  <SCORE.INTER.SOLV>
3.54333

>  <SCORE.INTER.VDW>
-8.94982

>  <SCORE.INTER.norm>
-0.568461

>  <SCORE.INTRA>
0

>  <SCORE.INTRA.DIHEDRAL>
0

>  <SCORE.INTRA.DIHEDRAL.0>
0

>  <SCORE.INTRA.POLAR>
0

>  <SCORE.INTRA.POLAR.0>
0

>  <SCORE.INTRA.REPUL>
0

>  <SCORE.INTRA.REPUL.0>
0

>  <SCORE.INTRA.SOLV>
0

>  <SCORE.INTRA.SOLV.lig_0>
-48.9252

>  <SCORE.INTRA.VDW>
0

>  <SCORE.INTRA.VDW.0>
0

>  <SCORE.INTRA.norm>
0

>  <SCORE.RESTR>
0

>  <SCORE.RESTR.CAVITY>
0

>  <SCORE.RESTR.norm>
0

>  <SCORE.SYSTEM>
0

>  <SCORE.SYSTEM.CONST>
0

>  <SCORE.SYSTEM.DIHEDRAL>
0

>  <SCORE.SYSTEM.SOLV>
0

>  <SCORE.SYSTEM.norm>
0

>  <SCORE.heavy>
11

>  <SCORE.norm>
-0.568461

>  <RMSD>
16.587

$$$$
ligand
 OpenBabel11021811493D
libRbt.so/2013.1/901 2013/11/27
 11 12  0  0  0  0  0  0  0  0999 V2000
   22.5910   23.3422    9.9340 N   0  0  0  0  0  0  0  0  0  0  0  0
   22.4899   23.6053    8.6182 C   0  0  0  0  0  0  0  0  0  0  0  0
   23.0776   22.7415    7.7052 N   0  0  0  0  0  0  0  0  0  0  0  0
   21.8340   24.6864    8.1676 N   0  0  0  0  0  0  0  0  0  0  0  0
   21.2550   25.5543    9.0124 C   0  0  0  0  0  0  0  0  0  0  0  0
   21.3298   25.3258   10.4048 C   0  0  0  0  0  0  0  0  0  0  0  0
   22.0328   24.1625   10.8498 C   0  0  0  0  0  0  0  0  0  0  0  0
   22.1435   23.8778   12.1888 N   0  0  0  0  0  0  0  0  0  0  0  0
   20.6671   26.3482   11.0175 N   0  0  0  0  0  0  0  0  0  0  0  0
   20.2098   27.1628   10.1146 C   0  0  0  0  0  0  0  0  0  0  0  0
   20.5419   26.7177    8.8601 N   0  0  0  0  0  0  0  0  0  0  0  0
  1  7  2  0  0  0  0
  1  2  1  0  0  0  0
  2  3  1  0  0  0  0
  2  4  2  0  0  0  0
  4  5  1  0  0  0  0
  5  6  2  0  0  0  0
  5 11  1  0  0  0  0
  6  7  1  0  0  0  0
  6  9  1  0  0  0  0
  7  8  1  0  0  0  0
  9 10  1  0  0  0  0
 10 11  2  0  0  0  0
M  END
>  <CHROM.1>
21.66509491,24.84535102,9.70988757,-0.28194771,-1.01293536,1.64979161

>  <Name>
ligand

>  <RI>
0

>  <Rbt.Current_Directory>
/home/itssahil/PROJECTS/Mol_Feturizer/New_Systems/rnas/4FEO

>  <Rbt.Executable>
rbdock ($Id: //depot/dev/client3/rdock/2013.1/src/exe/rbdock.cxx#4 $)

>  <Rbt.Library>
libRbt.so (2013.1, Build901 2013/11/27)

>  <Rbt.Parameter_File>
/export/apps/rDock/src/rDock_2013.1_src/data/scripts/dock_solv.prm

>  <Rbt.Receptor>
prm/blind_docking_40.prm

>  <SCORE>
-6.59602

>  <SCORE.INTER>
-6.59602

>  <SCORE.INTER.CONST>
1

>  <SCORE.INTER.POLAR>
0

>  <SCORE.INTER.ROT>
0

>  <SCORE.INTER.SOLV>
5.21282

>  <SCORE.INTER.VDW>
-9.73496

>  <SCORE.INTER.norm>
-0.599638

>  <SCORE.INTRA>
0

>  <SCORE.INTRA.DIHEDRAL>
0

>  <SCORE.INTRA.DIHEDRAL.0>
0

>  <SCORE.INTRA.POLAR>
0

>  <SCORE.INTRA.POLAR.0>
0

>  <SCORE.INTRA.REPUL>
0

>  <SCORE.INTRA.REPUL.0>
0

>  <SCORE.INTRA.SOLV>
0

>  <SCORE.INTRA.SOLV.lig_0>
-48.9252

>  <SCORE.INTRA.VDW>
0

>  <SCORE.INTRA.VDW.0>
0

>  <SCORE.INTRA.norm>
0

>  <SCORE.RESTR>
0

>  <SCORE.RESTR.CAVITY>
0

>  <SCORE.RESTR.norm>
0

>  <SCORE.SYSTEM>
0

>  <SCORE.SYSTEM.CONST>
0

>  <SCORE.SYSTEM.DIHEDRAL>
0

>  <SCORE.SYSTEM.SOLV>
0

>  <SCORE.SYSTEM.norm>
0

>  <SCORE.heavy>
11

>  <SCORE.norm>
-0.599638

>  <RMSD>
16.606

$$$$
ligand
 OpenBabel11021811493D
libRbt.so/2013.1/901 2013/11/27
 11 12  0  0  0  0  0  0  0  0999 V2000
   22.9923   21.6850   13.4163 N   0  0  0  0  0  0  0  0  0  0  0  0
   24.1080   21.2357   12.8129 C   0  0  0  0  0  0  0  0  0  0  0  0
   24.4632   21.7472   11.5730 N   0  0  0  0  0  0  0  0  0  0  0  0
   24.8856   20.3015   13.3826 N   0  0  0  0  0  0  0  0  0  0  0  0
   24.5796   19.7721   14.5776 C   0  0  0  0  0  0  0  0  0  0  0  0
   23.4194   20.2085   15.2560 C   0  0  0  0  0  0  0  0  0  0  0  0
   22.6162   21.2076   14.6221 C   0  0  0  0  0  0  0  0  0  0  0  0
   21.4757   21.6791   15.2250 N   0  0  0  0  0  0  0  0  0  0  0  0
   23.3522   19.5143   16.4280 N   0  0  0  0  0  0  0  0  0  0  0  0
   24.3651   18.7042   16.5034 C   0  0  0  0  0  0  0  0  0  0  0  0
   25.1557   18.8257   15.3887 N   0  0  0  0  0  0  0  0  0  0  0  0
  1  7  2  0  0  0  0
  1  2  1  0  0  0  0
  2  3  1  0  0  0  0
  2  4  2  0  0  0  0
  4  5  1  0  0  0  0
  5  6  2  0  0  0  0
  5 11  1  0  0  0  0
  6  7  1  0  0  0  0
  6  9  1  0  0  0  0
  7  8  1  0  0  0  0
  9 10  1  0  0  0  0
 10 11  2  0  0  0  0
M  END
>  <CHROM.1>
23.76117228,20.45883152,14.45181951,1.63109126,0.56321979,-1.00732632

>  <Name>
ligand

>  <RI>
0

>  <Rbt.Current_Directory>
/home/itssahil/PROJECTS/Mol_Feturizer/New_Systems/rnas/4FEO

>  <Rbt.Executable>
rbdock ($Id: //depot/dev/client3/rdock/2013.1/src/exe/rbdock.cxx#4 $)

>  <Rbt.Library>
libRbt.so (2013.1, Build901 2013/11/27)

>  <Rbt.Parameter_File>
/export/apps/rDock/src/rDock_2013.1_src/data/scripts/dock_solv.prm

>  <Rbt.Receptor>
prm/blind_docking_80.prm

>  <SCORE>
-6.90129

>  <SCORE.INTER>
-6.90129

>  <SCORE.INTER.CONST>
1

>  <SCORE.INTER.POLAR>
0

>  <SCORE.INTER.ROT>
0

>  <SCORE.INTER.SOLV>
5.19004

>  <SCORE.INTER.VDW>
-9.93088

>  <SCORE.INTER.norm>
-0.62739

>  <SCORE.INTRA>
0

>  <SCORE.INTRA.DIHEDRAL>
0

>  <SCORE.INTRA.DIHEDRAL.0>
0

>  <SCORE.INTRA.POLAR>
0

>  <SCORE.INTRA.POLAR.0>
0

>  <SCORE.INTRA.REPUL>
0

>  <SCORE.INTRA.REPUL.0>
0

>  <SCORE.INTRA.SOLV>
0

>  <SCORE.INTRA.SOLV.lig_0>
-48.9252

>  <SCORE.INTRA.VDW>
0

>  <SCORE.INTRA.VDW.0>
0

>  <SCORE.INTRA.norm>
0

>  <SCORE.RESTR>
0

>  <SCORE.RESTR.CAVITY>
0

>  <SCORE.RESTR.norm>
0

>  <SCORE.SYSTEM>
0

>  <SCORE.SYSTEM.CONST>
0

>  <SCORE.SYSTEM.DIHEDRAL>
0

>  <SCORE.SYSTEM.SOLV>
0

>  <SCORE.SYSTEM.norm>
0

>  <SCORE.heavy>
11

>  <SCORE.norm>
-0.62739

>  <RMSD>
16.661

$$$$
ligand
 OpenBabel11021811493D
libRbt.so/2013.1/901 2013/11/27
 11 12  0  0  0  0  0  0  0  0999 V2000
   23.0600   21.6117   13.4270 N   0  0  0  0  0  0  0  0  0  0  0  0
   24.1831   21.1402   12.8552 C   0  0  0  0  0  0  0  0  0  0  0  0
   24.5688   21.6247   11.6136 N   0  0  0  0  0  0  0  0  0  0  0  0
   24.9394   20.2095   13.4583 N   0  0  0  0  0  0  0  0  0  0  0  0
   24.6037   19.7058   14.6564 C   0  0  0  0  0  0  0  0  0  0  0  0
   23.4343   20.1663   15.3024 C   0  0  0  0  0  0  0  0  0  0  0  0
   22.6544   21.1609   14.6334 C   0  0  0  0  0  0  0  0  0  0  0  0
   21.5067   21.6548   15.2037 N   0  0  0  0  0  0  0  0  0  0  0  0
   23.3361   19.4950   16.4855 N   0  0  0  0  0  0  0  0  0  0  0  0
   24.3390   18.6767   16.5970 C   0  0  0  0  0  0  0  0  0  0  0  0
   25.1535   18.7694   15.4968 N   0  0  0  0  0  0  0  0  0  0  0  0
  1  7  2  0  0  0  0
  1  2  1  0  0  0  0
  2  3  1  0  0  0  0
  2  4  2  0  0  0  0
  4  5  1  0  0  0  0
  5  6  2  0  0  0  0
  5 11  1  0  0  0  0
  6  7  1  0  0  0  0
  6  9  1  0  0  0  0
  7  8  1  0  0  0  0
  9 10  1  0  0  0  0
 10 11  2  0  0  0  0
M  END
>  <CHROM.1>
23.79498499,20.39795420,14.50090423,1.60426598,0.56068948,-1.01185302

>  <Name>
ligand

>  <RI>
0

>  <Rbt.Current_Directory>
/home/itssahil/PROJECTS/Mol_Feturizer/New_Systems/rnas/4FEO

>  <Rbt.Executable>
rbdock ($Id: //depot/dev/client3/rdock/2013.1/src/exe/rbdock.cxx#4 $)

>  <Rbt.Library>
libRbt.so (2013.1, Build901 2013/11/27)

>  <Rbt.Parameter_File>
/export/apps/rDock/src/rDock_2013.1_src/data/scripts/dock_solv.prm

>  <Rbt.Receptor>
prm/blind_docking_80.prm

>  <SCORE>
-6.88906

>  <SCORE.INTER>
-6.88906

>  <SCORE.INTER.CONST>
1

>  <SCORE.INTER.POLAR>
0

>  <SCORE.INTER.ROT>
0

>  <SCORE.INTER.SOLV>
5.36963

>  <SCORE.INTER.VDW>
-9.98259

>  <SCORE.INTER.norm>
-0.626279

>  <SCORE.INTRA>
0

>  <SCORE.INTRA.DIHEDRAL>
0

>  <SCORE.INTRA.DIHEDRAL.0>
0

>  <SCORE.INTRA.POLAR>
0

>  <SCORE.INTRA.POLAR.0>
0

>  <SCORE.INTRA.REPUL>
0

>  <SCORE.INTRA.REPUL.0>
0

>  <SCORE.INTRA.SOLV>
0

>  <SCORE.INTRA.SOLV.lig_0>
-48.9252

>  <SCORE.INTRA.VDW>
0

>  <SCORE.INTRA.VDW.0>
0

>  <SCORE.INTRA.norm>
0

>  <SCORE.RESTR>
0

>  <SCORE.RESTR.CAVITY>
0

>  <SCORE.RESTR.norm>
0

>  <SCORE.SYSTEM>
0

>  <SCORE.SYSTEM.CONST>
0

>  <SCORE.SYSTEM.DIHEDRAL>
0

>  <SCORE.SYSTEM.SOLV>
0

>  <SCORE.SYSTEM.norm>
0

>  <SCORE.heavy>
11

>  <SCORE.norm>
-0.626279

>  <RMSD>
16.678

$$$$
ligand
 OpenBabel11021811493D
libRbt.so/2013.1/901 2013/11/27
 11 12  0  0  0  0  0  0  0  0999 V2000
   22.9513   21.3728   14.7388 N   0  0  0  0  0  0  0  0  0  0  0  0
   23.3811   21.5968   13.4835 C   0  0  0  0  0  0  0  0  0  0  0  0
   22.7963   22.6082   12.7350 N   0  0  0  0  0  0  0  0  0  0  0  0
   24.3629   20.8624   12.9370 N   0  0  0  0  0  0  0  0  0  0  0  0
   24.9543   19.8690   13.6192 C   0  0  0  0  0  0  0  0  0  0  0  0
   24.5424   19.5912   14.9421 C   0  0  0  0  0  0  0  0  0  0  0  0
   23.4967   20.3956   15.4943 C   0  0  0  0  0  0  0  0  0  0  0  0
   23.0477   20.1821   16.7746 N   0  0  0  0  0  0  0  0  0  0  0  0
   25.2990   18.5486   15.3897 N   0  0  0  0  0  0  0  0  0  0  0  0
   26.1189   18.1817   14.4510 C   0  0  0  0  0  0  0  0  0  0  0  0
   25.9499   18.9661   13.3382 N   0  0  0  0  0  0  0  0  0  0  0  0
  1  7  2  0  0  0  0
  1  2  1  0  0  0  0
  2  3  1  0  0  0  0
  2  4  2  0  0  0  0
  4  5  1  0  0  0  0
  5  6  2  0  0  0  0
  5 11  1  0  0  0  0
  6  7  1  0  0  0  0
  6  9  1  0  0  0  0
  7  8  1  0  0  0  0
  9 10  1  0  0  0  0
 10 11  2  0  0  0  0
M  END
>  <CHROM.1>
24.24739209,20.21643239,14.35184634,2.55008592,0.74857181,-1.07791128

>  <Name>
ligand

>  <RI>
0

>  <Rbt.Current_Directory>
/home/itssahil/PROJECTS/Mol_Feturizer/New_Systems/rnas/4FEO

>  <Rbt.Executable>
rbdock ($Id: //depot/dev/client3/rdock/2013.1/src/exe/rbdock.cxx#4 $)

>  <Rbt.Library>
libRbt.so (2013.1, Build901 2013/11/27)

>  <Rbt.Parameter_File>
/export/apps/rDock/src/rDock_2013.1_src/data/scripts/dock_solv.prm

>  <Rbt.Receptor>
prm/blind_docking_80.prm

>  <SCORE>
-7.65301

>  <SCORE.INTER>
-7.65301

>  <SCORE.INTER.CONST>
1

>  <SCORE.INTER.POLAR>
0

>  <SCORE.INTER.ROT>
0

>  <SCORE.INTER.SOLV>
4.85031

>  <SCORE.INTER.VDW>
-10.3188

>  <SCORE.INTER.norm>
-0.695728

>  <SCORE.INTRA>
0

>  <SCORE.INTRA.DIHEDRAL>
0

>  <SCORE.INTRA.DIHEDRAL.0>
0

>  <SCORE.INTRA.POLAR>
0

>  <SCORE.INTRA.POLAR.0>
0

>  <SCORE.INTRA.REPUL>
0

>  <SCORE.INTRA.REPUL.0>
0

>  <SCORE.INTRA.SOLV>
0

>  <SCORE.INTRA.SOLV.lig_0>
-48.9252

>  <SCORE.INTRA.VDW>
0

>  <SCORE.INTRA.VDW.0>
0

>  <SCORE.INTRA.norm>
0

>  <SCORE.RESTR>
0

>  <SCORE.RESTR.CAVITY>
0

>  <SCORE.RESTR.norm>
0

>  <SCORE.SYSTEM>
0

>  <SCORE.SYSTEM.CONST>
0

>  <SCORE.SYSTEM.DIHEDRAL>
0

>  <SCORE.SYSTEM.SOLV>
0

>  <SCORE.SYSTEM.norm>
0

>  <SCORE.heavy>
11

>  <SCORE.norm>
-0.695728

>  <RMSD>
16.712

$$$$
ligand
 OpenBabel11021811493D
libRbt.so/2013.1/901 2013/11/27
 11 12  0  0  0  0  0  0  0  0999 V2000
   26.1000   10.6262    4.2897 N   0  0  0  0  0  0  0  0  0  0  0  0
   25.8856    9.8316    3.2251 C   0  0  0  0  0  0  0  0  0  0  0  0
   24.7029    9.1109    3.1419 N   0  0  0  0  0  0  0  0  0  0  0  0
   26.7914    9.7186    2.2408 N   0  0  0  0  0  0  0  0  0  0  0  0
   27.9528   10.3906    2.2800 C   0  0  0  0  0  0  0  0  0  0  0  0
   28.2291   11.2402    3.3749 C   0  0  0  0  0  0  0  0  0  0  0  0
   27.2405   11.3400    4.4035 C   0  0  0  0  0  0  0  0  0  0  0  0
   27.4421   12.1480    5.4957 N   0  0  0  0  0  0  0  0  0  0  0  0
   29.4593   11.7881    3.1599 N   0  0  0  0  0  0  0  0  0  0  0  0
   29.9378   11.3375    2.0392 C   0  0  0  0  0  0  0  0  0  0  0  0
   29.0466   10.4740    1.4542 N   0  0  0  0  0  0  0  0  0  0  0  0
  1  7  2  0  0  0  0
  1  2  1  0  0  0  0
  2  3  1  0  0  0  0
  2  4  2  0  0  0  0
  4  5  1  0  0  0  0
  5  6  2  0  0  0  0
  5 11  1  0  0  0  0
  6  7  1  0  0  0  0
  6  9  1  0  0  0  0
  7  8  1  0  0  0  0
  9 10  1  0  0  0  0
 10 11  2  0  0  0  0
M  END
>  <CHROM.1>
27.50382541,10.72085428,3.20013296,-3.10704960,-0.44111219,-2.13732059

>  <Name>
ligand

>  <RI>
0

>  <Rbt.Current_Directory>
/home/itssahil/PROJECTS/Mol_Feturizer/New_Systems/rnas/4FEO

>  <Rbt.Executable>
rbdock ($Id: //depot/dev/client3/rdock/2013.1/src/exe/rbdock.cxx#4 $)

>  <Rbt.Library>
libRbt.so (2013.1, Build901 2013/11/27)

>  <Rbt.Parameter_File>
/export/apps/rDock/src/rDock_2013.1_src/data/scripts/dock_solv.prm

>  <Rbt.Receptor>
prm/blind_docking_60.prm

>  <SCORE>
-6.55069

>  <SCORE.INTER>
-6.55069

>  <SCORE.INTER.CONST>
1

>  <SCORE.INTER.POLAR>
0

>  <SCORE.INTER.ROT>
0

>  <SCORE.INTER.SOLV>
3.63836

>  <SCORE.INTER.VDW>
-9.17991

>  <SCORE.INTER.norm>
-0.595517

>  <SCORE.INTRA>
0

>  <SCORE.INTRA.DIHEDRAL>
0

>  <SCORE.INTRA.DIHEDRAL.0>
0

>  <SCORE.INTRA.POLAR>
0

>  <SCORE.INTRA.POLAR.0>
0

>  <SCORE.INTRA.REPUL>
0

>  <SCORE.INTRA.REPUL.0>
0

>  <SCORE.INTRA.SOLV>
0

>  <SCORE.INTRA.SOLV.lig_0>
-48.9252

>  <SCORE.INTRA.VDW>
0

>  <SCORE.INTRA.VDW.0>
0

>  <SCORE.INTRA.norm>
0

>  <SCORE.RESTR>
0

>  <SCORE.RESTR.CAVITY>
0

>  <SCORE.RESTR.norm>
0

>  <SCORE.SYSTEM>
0

>  <SCORE.SYSTEM.CONST>
0

>  <SCORE.SYSTEM.DIHEDRAL>
0

>  <SCORE.SYSTEM.SOLV>
0

>  <SCORE.SYSTEM.norm>
0

>  <SCORE.heavy>
11

>  <SCORE.norm>
-0.595517

>  <RMSD>
16.898

$$$$
ligand
 OpenBabel11021811493D
libRbt.so/2013.1/901 2013/11/27
 11 12  0  0  0  0  0  0  0  0999 V2000
   23.9058   21.1559   13.9992 N   0  0  0  0  0  0  0  0  0  0  0  0
   23.7964   20.4820   15.1588 C   0  0  0  0  0  0  0  0  0  0  0  0
   22.9052   20.9294   16.1235 N   0  0  0  0  0  0  0  0  0  0  0  0
   24.5317   19.3863   15.4050 N   0  0  0  0  0  0  0  0  0  0  0  0
   25.4118   18.9192   14.5054 C   0  0  0  0  0  0  0  0  0  0  0  0
   25.5663   19.5880   13.2703 C   0  0  0  0  0  0  0  0  0  0  0  0
   24.7644   20.7495   13.0396 C   0  0  0  0  0  0  0  0  0  0  0  0
   24.8617   21.4476   11.8608 N   0  0  0  0  0  0  0  0  0  0  0  0
   26.5119   18.9092   12.5596 N   0  0  0  0  0  0  0  0  0  0  0  0
   26.9336   17.9017   13.2630 C   0  0  0  0  0  0  0  0  0  0  0  0
   26.2848   17.8599   14.4711 N   0  0  0  0  0  0  0  0  0  0  0  0
  1  7  2  0  0  0  0
  1  2  1  0  0  0  0
  2  3  1  0  0  0  0
  2  4  2  0  0  0  0
  4  5  1  0  0  0  0
  5  6  2  0  0  0  0
  5 11  1  0  0  0  0
  6  7  1  0  0  0  0
  6  9  1  0  0  0  0
  7  8  1  0  0  0  0
  9 10  1  0  0  0  0
 10 11  2  0  0  0  0
M  END
>  <CHROM.1>
25.02562918,19.77301220,13.97716635,3.11481471,-0.79667544,2.17867963

>  <Name>
ligand

>  <RI>
0

>  <Rbt.Current_Directory>
/home/itssahil/PROJECTS/Mol_Feturizer/New_Systems/rnas/4FEO

>  <Rbt.Executable>
rbdock ($Id: //depot/dev/client3/rdock/2013.1/src/exe/rbdock.cxx#4 $)

>  <Rbt.Library>
libRbt.so (2013.1, Build901 2013/11/27)

>  <Rbt.Parameter_File>
/export/apps/rDock/src/rDock_2013.1_src/data/scripts/dock_solv.prm

>  <Rbt.Receptor>
prm/blind_docking_40.prm

>  <SCORE>
-6.52588

>  <SCORE.INTER>
-6.52588

>  <SCORE.INTER.CONST>
1

>  <SCORE.INTER.POLAR>
0

>  <SCORE.INTER.ROT>
0

>  <SCORE.INTER.SOLV>
5.28508

>  <SCORE.INTER.VDW>
-9.71228

>  <SCORE.INTER.norm>
-0.593261

>  <SCORE.INTRA>
0

>  <SCORE.INTRA.DIHEDRAL>
0

>  <SCORE.INTRA.DIHEDRAL.0>
0

>  <SCORE.INTRA.POLAR>
0

>  <SCORE.INTRA.POLAR.0>
0

>  <SCORE.INTRA.REPUL>
0

>  <SCORE.INTRA.REPUL.0>
0

>  <SCORE.INTRA.SOLV>
0

>  <SCORE.INTRA.SOLV.lig_0>
-48.9252

>  <SCORE.INTRA.VDW>
0

>  <SCORE.INTRA.VDW.0>
0

>  <SCORE.INTRA.norm>
0

>  <SCORE.RESTR>
0

>  <SCORE.RESTR.CAVITY>
0

>  <SCORE.RESTR.norm>
0

>  <SCORE.SYSTEM>
0

>  <SCORE.SYSTEM.CONST>
0

>  <SCORE.SYSTEM.DIHEDRAL>
0

>  <SCORE.SYSTEM.SOLV>
0

>  <SCORE.SYSTEM.norm>
0

>  <SCORE.heavy>
11

>  <SCORE.norm>
-0.593261

>  <RMSD>
16.910

$$$$
ligand
 OpenBabel11021811493D
libRbt.so/2013.1/901 2013/11/27
 11 12  0  0  0  0  0  0  0  0999 V2000
   26.1587   10.6873    4.3223 N   0  0  0  0  0  0  0  0  0  0  0  0
   25.9161    9.8702    3.2810 C   0  0  0  0  0  0  0  0  0  0  0  0
   24.7271    9.1563    3.2397 N   0  0  0  0  0  0  0  0  0  0  0  0
   26.7997    9.7283    2.2804 N   0  0  0  0  0  0  0  0  0  0  0  0
   27.9662   10.3927    2.2794 C   0  0  0  0  0  0  0  0  0  0  0  0
   28.2716   11.2650    3.3483 C   0  0  0  0  0  0  0  0  0  0  0  0
   27.3061   11.3953    4.3953 C   0  0  0  0  0  0  0  0  0  0  0  0
   27.5366   12.2265    5.4641 N   0  0  0  0  0  0  0  0  0  0  0  0
   29.5006   11.7990    3.0946 N   0  0  0  0  0  0  0  0  0  0  0  0
   29.9519   11.3195    1.9746 C   0  0  0  0  0  0  0  0  0  0  0  0
   29.0425   10.4493    1.4287 N   0  0  0  0  0  0  0  0  0  0  0  0
  1  7  2  0  0  0  0
  1  2  1  0  0  0  0
  2  3  1  0  0  0  0
  2  4  2  0  0  0  0
  4  5  1  0  0  0  0
  5  6  2  0  0  0  0
  5 11  1  0  0  0  0
  6  7  1  0  0  0  0
  6  9  1  0  0  0  0
  7  8  1  0  0  0  0
  9 10  1  0  0  0  0
 10 11  2  0  0  0  0
M  END
>  <CHROM.1>
27.53934202,10.74699175,3.20108204,-3.08292550,-0.44690095,-2.14982726

>  <Name>
ligand

>  <RI>
0

>  <Rbt.Current_Directory>
/home/itssahil/PROJECTS/Mol_Feturizer/New_Systems/rnas/4FEO

>  <Rbt.Executable>
rbdock ($Id: //depot/dev/client3/rdock/2013.1/src/exe/rbdock.cxx#4 $)

>  <Rbt.Library>
libRbt.so (2013.1, Build901 2013/11/27)

>  <Rbt.Parameter_File>
/export/apps/rDock/src/rDock_2013.1_src/data/scripts/dock_solv.prm

>  <Rbt.Receptor>
prm/blind_docking_60.prm

>  <SCORE>
-6.60346

>  <SCORE.INTER>
-6.60346

>  <SCORE.INTER.CONST>
1

>  <SCORE.INTER.POLAR>
0

>  <SCORE.INTER.ROT>
0

>  <SCORE.INTER.SOLV>
3.75319

>  <SCORE.INTER.VDW>
-9.25337

>  <SCORE.INTER.norm>
-0.600315

>  <SCORE.INTRA>
0

>  <SCORE.INTRA.DIHEDRAL>
0

>  <SCORE.INTRA.DIHEDRAL.0>
0

>  <SCORE.INTRA.POLAR>
0

>  <SCORE.INTRA.POLAR.0>
0

>  <SCORE.INTRA.REPUL>
0

>  <SCORE.INTRA.REPUL.0>
0

>  <SCORE.INTRA.SOLV>
0

>  <SCORE.INTRA.SOLV.lig_0>
-48.9252

>  <SCORE.INTRA.VDW>
0

>  <SCORE.INTRA.VDW.0>
0

>  <SCORE.INTRA.norm>
0

>  <SCORE.RESTR>
0

>  <SCORE.RESTR.CAVITY>
0

>  <SCORE.RESTR.norm>
0

>  <SCORE.SYSTEM>
0

>  <SCORE.SYSTEM.CONST>
0

>  <SCORE.SYSTEM.DIHEDRAL>
0

>  <SCORE.SYSTEM.SOLV>
0

>  <SCORE.SYSTEM.norm>
0

>  <SCORE.heavy>
11

>  <SCORE.norm>
-0.600315

>  <RMSD>
16.925

$$$$
ligand
 OpenBabel11021811493D
libRbt.so/2013.1/901 2013/11/27
 11 12  0  0  0  0  0  0  0  0999 V2000
   24.8662   21.1688   12.0343 N   0  0  0  0  0  0  0  0  0  0  0  0
   25.7785   20.2314   11.7189 C   0  0  0  0  0  0  0  0  0  0  0  0
   26.3911   20.2705   10.4746 N   0  0  0  0  0  0  0  0  0  0  0  0
   26.1094   19.2569   12.5808 N   0  0  0  0  0  0  0  0  0  0  0  0
   25.5392   19.1738   13.7933 C   0  0  0  0  0  0  0  0  0  0  0  0
   24.5751   20.1331   14.1766 C   0  0  0  0  0  0  0  0  0  0  0  0
   24.2495   21.1596   13.2355 C   0  0  0  0  0  0  0  0  0  0  0  0
   23.3224   22.1254   13.5420 N   0  0  0  0  0  0  0  0  0  0  0  0
   24.1668   19.8130   15.4378 N   0  0  0  0  0  0  0  0  0  0  0  0
   24.7989   18.7495   15.8345 C   0  0  0  0  0  0  0  0  0  0  0  0
   25.6605   18.3163   14.8588 N   0  0  0  0  0  0  0  0  0  0  0  0
  1  7  2  0  0  0  0
  1  2  1  0  0  0  0
  2  3  1  0  0  0  0
  2  4  2  0  0  0  0
  4  5  1  0  0  0  0
  5  6  2  0  0  0  0
  5 11  1  0  0  0  0
  6  7  1  0  0  0  0
  6  9  1  0  0  0  0
  7  8  1  0  0  0  0
  9 10  1  0  0  0  0
 10 11  2  0  0  0  0
M  END
>  <CHROM.1>
25.04529086,20.04636726,13.40352770,1.24106108,0.81051325,-0.98933185

>  <Name>
ligand

>  <RI>
0

>  <Rbt.Current_Directory>
/home/itssahil/PROJECTS/Mol_Feturizer/New_Systems/rnas/4FEO

>  <Rbt.Executable>
rbdock ($Id: //depot/dev/client3/rdock/2013.1/src/exe/rbdock.cxx#4 $)

>  <Rbt.Library>
libRbt.so (2013.1, Build901 2013/11/27)

>  <Rbt.Parameter_File>
/export/apps/rDock/src/rDock_2013.1_src/data/scripts/dock_solv.prm

>  <Rbt.Receptor>
prm/blind_docking_60.prm

>  <SCORE>
-5.96843

>  <SCORE.INTER>
-5.96843

>  <SCORE.INTER.CONST>
1

>  <SCORE.INTER.POLAR>
0

>  <SCORE.INTER.ROT>
0

>  <SCORE.INTER.SOLV>
5.07752

>  <SCORE.INTER.VDW>
-9.27146

>  <SCORE.INTER.norm>
-0.542585

>  <SCORE.INTRA>
0

>  <SCORE.INTRA.DIHEDRAL>
0

>  <SCORE.INTRA.DIHEDRAL.0>
0

>  <SCORE.INTRA.POLAR>
0

>  <SCORE.INTRA.POLAR.0>
0

>  <SCORE.INTRA.REPUL>
0

>  <SCORE.INTRA.REPUL.0>
0

>  <SCORE.INTRA.SOLV>
0

>  <SCORE.INTRA.SOLV.lig_0>
-48.9252

>  <SCORE.INTRA.VDW>
0

>  <SCORE.INTRA.VDW.0>
0

>  <SCORE.INTRA.norm>
0

>  <SCORE.RESTR>
0

>  <SCORE.RESTR.CAVITY>
0

>  <SCORE.RESTR.norm>
0

>  <SCORE.SYSTEM>
0

>  <SCORE.SYSTEM.CONST>
0

>  <SCORE.SYSTEM.DIHEDRAL>
0

>  <SCORE.SYSTEM.SOLV>
0

>  <SCORE.SYSTEM.norm>
0

>  <SCORE.heavy>
11

>  <SCORE.norm>
-0.542585

>  <RMSD>
17.082

$$$$
ligand
 OpenBabel11021811493D
libRbt.so/2013.1/901 2013/11/27
 11 12  0  0  0  0  0  0  0  0999 V2000
   25.6437   19.7009   12.7270 N   0  0  0  0  0  0  0  0  0  0  0  0
   26.2936   18.6421   13.2440 C   0  0  0  0  0  0  0  0  0  0  0  0
   27.2372   17.9802   12.4716 N   0  0  0  0  0  0  0  0  0  0  0  0
   26.0490   18.2097   14.4910 N   0  0  0  0  0  0  0  0  0  0  0  0
   25.1407   18.8133   15.2738 C   0  0  0  0  0  0  0  0  0  0  0  0
   24.4297   19.9307   14.7813 C   0  0  0  0  0  0  0  0  0  0  0  0
   24.7182   20.3669   13.4502 C   0  0  0  0  0  0  0  0  0  0  0  0
   24.0659   21.4471   12.9079 N   0  0  0  0  0  0  0  0  0  0  0  0
   23.5844   20.3390   15.7706 N   0  0  0  0  0  0  0  0  0  0  0  0
   23.7278   19.5629   16.8026 C   0  0  0  0  0  0  0  0  0  0  0  0
   24.6785   18.6063   16.5501 N   0  0  0  0  0  0  0  0  0  0  0  0
  1  7  2  0  0  0  0
  1  2  1  0  0  0  0
  2  3  1  0  0  0  0
  2  4  2  0  0  0  0
  4  5  1  0  0  0  0
  5  6  2  0  0  0  0
  5 11  1  0  0  0  0
  6  7  1  0  0  0  0
  6  9  1  0  0  0  0
  7  8  1  0  0  0  0
  9 10  1  0  0  0  0
 10 11  2  0  0  0  0
M  END
>  <CHROM.1>
25.06482441,19.41498306,14.38533374,0.61339700,0.79105421,-1.04319928

>  <Name>
ligand

>  <RI>
0

>  <Rbt.Current_Directory>
/home/itssahil/PROJECTS/Mol_Feturizer/New_Systems/rnas/4FEO

>  <Rbt.Executable>
rbdock ($Id: //depot/dev/client3/rdock/2013.1/src/exe/rbdock.cxx#4 $)

>  <Rbt.Library>
libRbt.so (2013.1, Build901 2013/11/27)

>  <Rbt.Parameter_File>
/export/apps/rDock/src/rDock_2013.1_src/data/scripts/dock_solv.prm

>  <Rbt.Receptor>
prm/blind_docking_100.prm

>  <SCORE>
-7.68735

>  <SCORE.INTER>
-7.68735

>  <SCORE.INTER.CONST>
1

>  <SCORE.INTER.POLAR>
0

>  <SCORE.INTER.ROT>
0

>  <SCORE.INTER.SOLV>
8.88664

>  <SCORE.INTER.VDW>
-11.6871

>  <SCORE.INTER.norm>
-0.69885

>  <SCORE.INTRA>
0

>  <SCORE.INTRA.DIHEDRAL>
0

>  <SCORE.INTRA.DIHEDRAL.0>
0

>  <SCORE.INTRA.POLAR>
0

>  <SCORE.INTRA.POLAR.0>
0

>  <SCORE.INTRA.REPUL>
0

>  <SCORE.INTRA.REPUL.0>
0

>  <SCORE.INTRA.SOLV>
0

>  <SCORE.INTRA.SOLV.lig_0>
-48.9252

>  <SCORE.INTRA.VDW>
0

>  <SCORE.INTRA.VDW.0>
0

>  <SCORE.INTRA.norm>
0

>  <SCORE.RESTR>
0

>  <SCORE.RESTR.CAVITY>
0

>  <SCORE.RESTR.norm>
0

>  <SCORE.SYSTEM>
0

>  <SCORE.SYSTEM.CONST>
0

>  <SCORE.SYSTEM.DIHEDRAL>
0

>  <SCORE.SYSTEM.SOLV>
0

>  <SCORE.SYSTEM.norm>
0

>  <SCORE.heavy>
11

>  <SCORE.norm>
-0.69885

>  <RMSD>
17.149

$$$$
ligand
 OpenBabel11021811493D
libRbt.so/2013.1/901 2013/11/27
 11 12  0  0  0  0  0  0  0  0999 V2000
   27.0990   10.6582    4.5343 N   0  0  0  0  0  0  0  0  0  0  0  0
   28.1217   11.4859    4.8166 C   0  0  0  0  0  0  0  0  0  0  0  0
   28.2452   12.0012    6.0988 N   0  0  0  0  0  0  0  0  0  0  0  0
   29.0259   11.8263    3.8846 N   0  0  0  0  0  0  0  0  0  0  0  0
   28.9445   11.3586    2.6289 C   0  0  0  0  0  0  0  0  0  0  0  0
   27.8907   10.4850    2.2782 C   0  0  0  0  0  0  0  0  0  0  0  0
   26.9477   10.1401    3.2966 C   0  0  0  0  0  0  0  0  0  0  0  0
   25.8994    9.2949    3.0264 N   0  0  0  0  0  0  0  0  0  0  0  0
   28.0488   10.1707    0.9606 N   0  0  0  0  0  0  0  0  0  0  0  0
   29.0983   10.7815    0.4986 C   0  0  0  0  0  0  0  0  0  0  0  0
   29.6899   11.5255    1.4880 N   0  0  0  0  0  0  0  0  0  0  0  0
  1  7  2  0  0  0  0
  1  2  1  0  0  0  0
  2  3  1  0  0  0  0
  2  4  2  0  0  0  0
  4  5  1  0  0  0  0
  5  6  2  0  0  0  0
  5 11  1  0  0  0  0
  6  7  1  0  0  0  0
  6  9  1  0  0  0  0
  7  8  1  0  0  0  0
  9 10  1  0  0  0  0
 10 11  2  0  0  0  0
M  END
>  <CHROM.1>
28.08437965,10.88673006,3.07025281,1.83057181,0.60081033,1.25396902

>  <Name>
ligand

>  <RI>
0

>  <Rbt.Current_Directory>
/home/itssahil/PROJECTS/Mol_Feturizer/New_Systems/rnas/4FEO

>  <Rbt.Executable>
rbdock ($Id: //depot/dev/client3/rdock/2013.1/src/exe/rbdock.cxx#4 $)

>  <Rbt.Library>
libRbt.so (2013.1, Build901 2013/11/27)

>  <Rbt.Parameter_File>
/export/apps/rDock/src/rDock_2013.1_src/data/scripts/dock_solv.prm

>  <Rbt.Receptor>
prm/blind_docking_80.prm

>  <SCORE>
-5.59236

>  <SCORE.INTER>
-5.59236

>  <SCORE.INTER.CONST>
1

>  <SCORE.INTER.POLAR>
0

>  <SCORE.INTER.ROT>
0

>  <SCORE.INTER.SOLV>
2.30504

>  <SCORE.INTER.VDW>
-8.09658

>  <SCORE.INTER.norm>
-0.508396

>  <SCORE.INTRA>
0

>  <SCORE.INTRA.DIHEDRAL>
0

>  <SCORE.INTRA.DIHEDRAL.0>
0

>  <SCORE.INTRA.POLAR>
0

>  <SCORE.INTRA.POLAR.0>
0

>  <SCORE.INTRA.REPUL>
0

>  <SCORE.INTRA.REPUL.0>
0

>  <SCORE.INTRA.SOLV>
0

>  <SCORE.INTRA.SOLV.lig_0>
-48.9252

>  <SCORE.INTRA.VDW>
0

>  <SCORE.INTRA.VDW.0>
0

>  <SCORE.INTRA.norm>
0

>  <SCORE.RESTR>
0

>  <SCORE.RESTR.CAVITY>
0

>  <SCORE.RESTR.norm>
0

>  <SCORE.SYSTEM>
0

>  <SCORE.SYSTEM.CONST>
0

>  <SCORE.SYSTEM.DIHEDRAL>
0

>  <SCORE.SYSTEM.SOLV>
0

>  <SCORE.SYSTEM.norm>
0

>  <SCORE.heavy>
11

>  <SCORE.norm>
-0.508396

>  <RMSD>
17.257

$$$$
ligand
 OpenBabel11021811493D
libRbt.so/2013.1/901 2013/11/27
 11 12  0  0  0  0  0  0  0  0999 V2000
   31.1234   12.1464   15.6780 N   0  0  0  0  0  0  0  0  0  0  0  0
   31.9958   12.3127   16.6889 C   0  0  0  0  0  0  0  0  0  0  0  0
   33.0069   11.3809   16.8744 N   0  0  0  0  0  0  0  0  0  0  0  0
   31.9096   13.3599   17.5243 N   0  0  0  0  0  0  0  0  0  0  0  0
   30.9449   14.2836   17.3890 C   0  0  0  0  0  0  0  0  0  0  0  0
   30.0026   14.1583   16.3435 C   0  0  0  0  0  0  0  0  0  0  0  0
   30.1263   13.0328   15.4698 C   0  0  0  0  0  0  0  0  0  0  0  0
   29.2460   12.8491   14.4317 N   0  0  0  0  0  0  0  0  0  0  0  0
   29.1493   15.2177   16.4405 N   0  0  0  0  0  0  0  0  0  0  0  0
   29.4987   15.9568   17.4502 C   0  0  0  0  0  0  0  0  0  0  0  0
   30.6031   15.4270   18.0681 N   0  0  0  0  0  0  0  0  0  0  0  0
  1  7  2  0  0  0  0
  1  2  1  0  0  0  0
  2  3  1  0  0  0  0
  2  4  2  0  0  0  0
  4  5  1  0  0  0  0
  5  6  2  0  0  0  0
  5 11  1  0  0  0  0
  6  7  1  0  0  0  0
  6  9  1  0  0  0  0
  7  8  1  0  0  0  0
  9 10  1  0  0  0  0
 10 11  2  0  0  0  0
M  END
>  <CHROM.1>
30.70382491,13.62688447,16.57179728,0.79661591,0.63907234,-2.41595509

>  <Name>
ligand

>  <RI>
0

>  <Rbt.Current_Directory>
/home/itssahil/PROJECTS/Mol_Feturizer/New_Systems/rnas/4FEO

>  <Rbt.Executable>
rbdock ($Id: //depot/dev/client3/rdock/2013.1/src/exe/rbdock.cxx#4 $)

>  <Rbt.Library>
libRbt.so (2013.1, Build901 2013/11/27)

>  <Rbt.Parameter_File>
/export/apps/rDock/src/rDock_2013.1_src/data/scripts/dock_solv.prm

>  <Rbt.Receptor>
prm/blind_docking_60.prm

>  <SCORE>
-6.46061

>  <SCORE.INTER>
-6.46061

>  <SCORE.INTER.CONST>
1

>  <SCORE.INTER.POLAR>
0

>  <SCORE.INTER.ROT>
0

>  <SCORE.INTER.SOLV>
6.3199

>  <SCORE.INTER.VDW>
-10.0137

>  <SCORE.INTER.norm>
-0.587328

>  <SCORE.INTRA>
0

>  <SCORE.INTRA.DIHEDRAL>
0

>  <SCORE.INTRA.DIHEDRAL.0>
0

>  <SCORE.INTRA.POLAR>
0

>  <SCORE.INTRA.POLAR.0>
0

>  <SCORE.INTRA.REPUL>
0

>  <SCORE.INTRA.REPUL.0>
0

>  <SCORE.INTRA.SOLV>
0

>  <SCORE.INTRA.SOLV.lig_0>
-48.9252

>  <SCORE.INTRA.VDW>
0

>  <SCORE.INTRA.VDW.0>
0

>  <SCORE.INTRA.norm>
0

>  <SCORE.RESTR>
0

>  <SCORE.RESTR.CAVITY>
0

>  <SCORE.RESTR.norm>
0

>  <SCORE.SYSTEM>
0

>  <SCORE.SYSTEM.CONST>
0

>  <SCORE.SYSTEM.DIHEDRAL>
0

>  <SCORE.SYSTEM.SOLV>
0

>  <SCORE.SYSTEM.norm>
0

>  <SCORE.heavy>
11

>  <SCORE.norm>
-0.587328

>  <RMSD>
21.339

$$$$
ligand
 OpenBabel11021811493D
libRbt.so/2013.1/901 2013/11/27
 11 12  0  0  0  0  0  0  0  0999 V2000
   32.0792   13.6238   18.1530 N   0  0  0  0  0  0  0  0  0  0  0  0
   31.3662   14.7644   18.1890 C   0  0  0  0  0  0  0  0  0  0  0  0
   31.6501   15.7132   19.1607 N   0  0  0  0  0  0  0  0  0  0  0  0
   30.3840   15.0055   17.3062 N   0  0  0  0  0  0  0  0  0  0  0  0
   30.0683   14.1152   16.3524 C   0  0  0  0  0  0  0  0  0  0  0  0
   30.7860   12.9008   16.2684 C   0  0  0  0  0  0  0  0  0  0  0  0
   31.8282   12.6785   17.2221 C   0  0  0  0  0  0  0  0  0  0  0  0
   32.5673   11.5211   17.1982 N   0  0  0  0  0  0  0  0  0  0  0  0
   30.2636   12.1949   15.2250 N   0  0  0  0  0  0  0  0  0  0  0  0
   29.2998   12.8794   14.6860 C   0  0  0  0  0  0  0  0  0  0  0  0
   29.1400   14.0739   15.3415 N   0  0  0  0  0  0  0  0  0  0  0  0
  1  7  2  0  0  0  0
  1  2  1  0  0  0  0
  2  3  1  0  0  0  0
  2  4  2  0  0  0  0
  4  5  1  0  0  0  0
  5  6  2  0  0  0  0
  5 11  1  0  0  0  0
  6  7  1  0  0  0  0
  6  9  1  0  0  0  0
  7  8  1  0  0  0  0
  9 10  1  0  0  0  0
 10 11  2  0  0  0  0
M  END
>  <CHROM.1>
30.87052797,13.59660858,16.84717435,-0.92284425,0.71655232,-2.53189358

>  <Name>
ligand

>  <RI>
0

>  <Rbt.Current_Directory>
/home/itssahil/PROJECTS/Mol_Feturizer/New_Systems/rnas/4FEO

>  <Rbt.Executable>
rbdock ($Id: //depot/dev/client3/rdock/2013.1/src/exe/rbdock.cxx#4 $)

>  <Rbt.Library>
libRbt.so (2013.1, Build901 2013/11/27)

>  <Rbt.Parameter_File>
/export/apps/rDock/src/rDock_2013.1_src/data/scripts/dock_solv.prm

>  <Rbt.Receptor>
prm/blind_docking_80.prm

>  <SCORE>
-6.89932

>  <SCORE.INTER>
-6.89932

>  <SCORE.INTER.CONST>
1

>  <SCORE.INTER.POLAR>
0

>  <SCORE.INTER.ROT>
0

>  <SCORE.INTER.SOLV>
5.64888

>  <SCORE.INTER.VDW>
-10.0825

>  <SCORE.INTER.norm>
-0.627211

>  <SCORE.INTRA>
0

>  <SCORE.INTRA.DIHEDRAL>
0

>  <SCORE.INTRA.DIHEDRAL.0>
0

>  <SCORE.INTRA.POLAR>
0

>  <SCORE.INTRA.POLAR.0>
0

>  <SCORE.INTRA.REPUL>
0

>  <SCORE.INTRA.REPUL.0>
0

>  <SCORE.INTRA.SOLV>
0

>  <SCORE.INTRA.SOLV.lig_0>
-48.9252

>  <SCORE.INTRA.VDW>
0

>  <SCORE.INTRA.VDW.0>
0

>  <SCORE.INTRA.norm>
0

>  <SCORE.RESTR>
0

>  <SCORE.RESTR.CAVITY>
0

>  <SCORE.RESTR.norm>
0

>  <SCORE.SYSTEM>
0

>  <SCORE.SYSTEM.CONST>
0

>  <SCORE.SYSTEM.DIHEDRAL>
0

>  <SCORE.SYSTEM.SOLV>
0

>  <SCORE.SYSTEM.norm>
0

>  <SCORE.heavy>
11

>  <SCORE.norm>
-0.627211

>  <RMSD>
21.373

$$$$
ligand
 OpenBabel11021811493D
libRbt.so/2013.1/901 2013/11/27
 11 12  0  0  0  0  0  0  0  0999 V2000
   32.0729   13.6272   18.1795 N   0  0  0  0  0  0  0  0  0  0  0  0
   31.3652   14.7715   18.2010 C   0  0  0  0  0  0  0  0  0  0  0  0
   31.6477   15.7274   19.1660 N   0  0  0  0  0  0  0  0  0  0  0  0
   30.3897   15.0094   17.3100 N   0  0  0  0  0  0  0  0  0  0  0  0
   30.0756   14.1122   16.3622 C   0  0  0  0  0  0  0  0  0  0  0  0
   30.7878   12.8937   16.2934 C   0  0  0  0  0  0  0  0  0  0  0  0
   31.8230   12.6748   17.2554 C   0  0  0  0  0  0  0  0  0  0  0  0
   32.5566   11.5137   17.2464 N   0  0  0  0  0  0  0  0  0  0  0  0
   30.2684   12.1811   15.2530 N   0  0  0  0  0  0  0  0  0  0  0  0
   29.3113   12.8654   14.7019 C   0  0  0  0  0  0  0  0  0  0  0  0
   29.1533   14.0665   15.3459 N   0  0  0  0  0  0  0  0  0  0  0  0
  1  7  2  0  0  0  0
  1  2  1  0  0  0  0
  2  3  1  0  0  0  0
  2  4  2  0  0  0  0
  4  5  1  0  0  0  0
  5  6  2  0  0  0  0
  5 11  1  0  0  0  0
  6  7  1  0  0  0  0
  6  9  1  0  0  0  0
  7  8  1  0  0  0  0
  9 10  1  0  0  0  0
 10 11  2  0  0  0  0
M  END
>  <CHROM.1>
30.87215266,13.59420388,16.86646136,-0.92222206,0.72441873,-2.54115727

>  <Name>
ligand

>  <RI>
0

>  <Rbt.Current_Directory>
/home/itssahil/PROJECTS/Mol_Feturizer/New_Systems/rnas/4FEO

>  <Rbt.Executable>
rbdock ($Id: //depot/dev/client3/rdock/2013.1/src/exe/rbdock.cxx#4 $)

>  <Rbt.Library>
libRbt.so (2013.1, Build901 2013/11/27)

>  <Rbt.Parameter_File>
/export/apps/rDock/src/rDock_2013.1_src/data/scripts/dock_solv.prm

>  <Rbt.Receptor>
prm/blind_docking_60.prm

>  <SCORE>
-6.92134

>  <SCORE.INTER>
-6.92134

>  <SCORE.INTER.CONST>
1

>  <SCORE.INTER.POLAR>
0

>  <SCORE.INTER.ROT>
0

>  <SCORE.INTER.SOLV>
5.70133

>  <SCORE.INTER.VDW>
-10.1147

>  <SCORE.INTER.norm>
-0.629213

>  <SCORE.INTRA>
0

>  <SCORE.INTRA.DIHEDRAL>
0

>  <SCORE.INTRA.DIHEDRAL.0>
0

>  <SCORE.INTRA.POLAR>
0

>  <SCORE.INTRA.POLAR.0>
0

>  <SCORE.INTRA.REPUL>
0

>  <SCORE.INTRA.REPUL.0>
0

>  <SCORE.INTRA.SOLV>
0

>  <SCORE.INTRA.SOLV.lig_0>
-48.9252

>  <SCORE.INTRA.VDW>
0

>  <SCORE.INTRA.VDW.0>
0

>  <SCORE.INTRA.norm>
0

>  <SCORE.RESTR>
0

>  <SCORE.RESTR.CAVITY>
0

>  <SCORE.RESTR.norm>
0

>  <SCORE.SYSTEM>
0

>  <SCORE.SYSTEM.CONST>
0

>  <SCORE.SYSTEM.DIHEDRAL>
0

>  <SCORE.SYSTEM.SOLV>
0

>  <SCORE.SYSTEM.norm>
0

>  <SCORE.heavy>
11

>  <SCORE.norm>
-0.629213

>  <RMSD>
21.383

$$$$
ligand
 OpenBabel11021811493D
libRbt.so/2013.1/901 2013/11/27
 11 12  0  0  0  0  0  0  0  0999 V2000
   32.1043   13.6111   18.1419 N   0  0  0  0  0  0  0  0  0  0  0  0
   31.3976   14.7547   18.2001 C   0  0  0  0  0  0  0  0  0  0  0  0
   31.6962   15.6892   19.1813 N   0  0  0  0  0  0  0  0  0  0  0  0
   30.4078   15.0123   17.3307 N   0  0  0  0  0  0  0  0  0  0  0  0
   30.0779   14.1362   16.3685 C   0  0  0  0  0  0  0  0  0  0  0  0
   30.7883   12.9195   16.2613 C   0  0  0  0  0  0  0  0  0  0  0  0
   31.8390   12.6794   17.2013 C   0  0  0  0  0  0  0  0  0  0  0  0
   32.5718   11.5186   17.1547 N   0  0  0  0  0  0  0  0  0  0  0  0
   30.2517   12.2300   15.2141 N   0  0  0  0  0  0  0  0  0  0  0  0
   29.2861   12.9263   14.6940 C   0  0  0  0  0  0  0  0  0  0  0  0
   29.1391   14.1130   15.3667 N   0  0  0  0  0  0  0  0  0  0  0  0
  1  7  2  0  0  0  0
  1  2  1  0  0  0  0
  2  3  1  0  0  0  0
  2  4  2  0  0  0  0
  4  5  1  0  0  0  0
  5  6  2  0  0  0  0
  5 11  1  0  0  0  0
  6  7  1  0  0  0  0
  6  9  1  0  0  0  0
  7  8  1  0  0  0  0
  9 10  1  0  0  0  0
 10 11  2  0  0  0  0
M  END
>  <CHROM.1>
30.88232014,13.60714149,16.84823084,-0.90957206,0.71116455,-2.52745238

>  <Name>
ligand

>  <RI>
0

>  <Rbt.Current_Directory>
/home/itssahil/PROJECTS/Mol_Feturizer/New_Systems/rnas/4FEO

>  <Rbt.Executable>
rbdock ($Id: //depot/dev/client3/rdock/2013.1/src/exe/rbdock.cxx#4 $)

>  <Rbt.Library>
libRbt.so (2013.1, Build901 2013/11/27)

>  <Rbt.Parameter_File>
/export/apps/rDock/src/rDock_2013.1_src/data/scripts/dock_solv.prm

>  <Rbt.Receptor>
prm/blind_docking_60.prm

>  <SCORE>
-6.87611

>  <SCORE.INTER>
-6.87611

>  <SCORE.INTER.CONST>
1

>  <SCORE.INTER.POLAR>
0

>  <SCORE.INTER.ROT>
0

>  <SCORE.INTER.SOLV>
5.68554

>  <SCORE.INTER.VDW>
-10.0793

>  <SCORE.INTER.norm>
-0.625101

>  <SCORE.INTRA>
0

>  <SCORE.INTRA.DIHEDRAL>
0

>  <SCORE.INTRA.DIHEDRAL.0>
0

>  <SCORE.INTRA.POLAR>
0

>  <SCORE.INTRA.POLAR.0>
0

>  <SCORE.INTRA.REPUL>
0

>  <SCORE.INTRA.REPUL.0>
0

>  <SCORE.INTRA.SOLV>
0

>  <SCORE.INTRA.SOLV.lig_0>
-48.9252

>  <SCORE.INTRA.VDW>
0

>  <SCORE.INTRA.VDW.0>
0

>  <SCORE.INTRA.norm>
0

>  <SCORE.RESTR>
0

>  <SCORE.RESTR.CAVITY>
0

>  <SCORE.RESTR.norm>
0

>  <SCORE.SYSTEM>
0

>  <SCORE.SYSTEM.CONST>
0

>  <SCORE.SYSTEM.DIHEDRAL>
0

>  <SCORE.SYSTEM.SOLV>
0

>  <SCORE.SYSTEM.norm>
0

>  <SCORE.heavy>
11

>  <SCORE.norm>
-0.625101

>  <RMSD>
21.384

$$$$
ligand
 OpenBabel11021811493D
libRbt.so/2013.1/901 2013/11/27
 11 12  0  0  0  0  0  0  0  0999 V2000
   30.9787   12.7450   16.2917 N   0  0  0  0  0  0  0  0  0  0  0  0
   29.8337   13.1939   15.7457 C   0  0  0  0  0  0  0  0  0  0  0  0
   29.2116   12.4437   14.7581 N   0  0  0  0  0  0  0  0  0  0  0  0
   29.2792   14.3532   16.1337 N   0  0  0  0  0  0  0  0  0  0  0  0
   29.8474   15.1167   17.0804 C   0  0  0  0  0  0  0  0  0  0  0  0
   31.0505   14.6923   17.6880 C   0  0  0  0  0  0  0  0  0  0  0  0
   31.6114   13.4506   17.2535 C   0  0  0  0  0  0  0  0  0  0  0  0
   32.7781   12.9765   17.8017 N   0  0  0  0  0  0  0  0  0  0  0  0
   31.3999   15.6446   18.5996 N   0  0  0  0  0  0  0  0  0  0  0  0
   30.5149   16.5957   18.5844 C   0  0  0  0  0  0  0  0  0  0  0  0
   29.5334   16.3179   17.6669 N   0  0  0  0  0  0  0  0  0  0  0  0
  1  7  2  0  0  0  0
  1  2  1  0  0  0  0
  2  3  1  0  0  0  0
  2  4  2  0  0  0  0
  4  5  1  0  0  0  0
  5  6  2  0  0  0  0
  5 11  1  0  0  0  0
  6  7  1  0  0  0  0
  6  9  1  0  0  0  0
  7  8  1  0  0  0  0
  9 10  1  0  0  0  0
 10 11  2  0  0  0  0
M  END
>  <CHROM.1>
30.54742576,14.30089186,17.03995162,-1.75793224,-0.55284038,0.60188271

>  <Name>
ligand

>  <RI>
0

>  <Rbt.Current_Directory>
/home/itssahil/PROJECTS/Mol_Feturizer/New_Systems/rnas/4FEO

>  <Rbt.Executable>
rbdock ($Id: //depot/dev/client3/rdock/2013.1/src/exe/rbdock.cxx#4 $)

>  <Rbt.Library>
libRbt.so (2013.1, Build901 2013/11/27)

>  <Rbt.Parameter_File>
/export/apps/rDock/src/rDock_2013.1_src/data/scripts/dock_solv.prm

>  <Rbt.Receptor>
prm/blind_docking_100.prm

>  <SCORE>
-7.92215

>  <SCORE.INTER>
-7.92215

>  <SCORE.INTER.CONST>
1

>  <SCORE.INTER.POLAR>
0

>  <SCORE.INTER.ROT>
0

>  <SCORE.INTER.SOLV>
6.88701

>  <SCORE.INTER.VDW>
-11.1771

>  <SCORE.INTER.norm>
-0.720195

>  <SCORE.INTRA>
0

>  <SCORE.INTRA.DIHEDRAL>
0

>  <SCORE.INTRA.DIHEDRAL.0>
0

>  <SCORE.INTRA.POLAR>
0

>  <SCORE.INTRA.POLAR.0>
0

>  <SCORE.INTRA.REPUL>
0

>  <SCORE.INTRA.REPUL.0>
0

>  <SCORE.INTRA.SOLV>
0

>  <SCORE.INTRA.SOLV.lig_0>
-48.9252

>  <SCORE.INTRA.VDW>
0

>  <SCORE.INTRA.VDW.0>
0

>  <SCORE.INTRA.norm>
0

>  <SCORE.RESTR>
0

>  <SCORE.RESTR.CAVITY>
0

>  <SCORE.RESTR.norm>
0

>  <SCORE.SYSTEM>
0

>  <SCORE.SYSTEM.CONST>
0

>  <SCORE.SYSTEM.DIHEDRAL>
0

>  <SCORE.SYSTEM.SOLV>
0

>  <SCORE.SYSTEM.norm>
0

>  <SCORE.heavy>
11

>  <SCORE.norm>
-0.720195

>  <RMSD>
21.489

$$$$
ligand
 OpenBabel11021811493D
libRbt.so/2013.1/901 2013/11/27
 11 12  0  0  0  0  0  0  0  0999 V2000
   31.0122   12.7331   16.2229 N   0  0  0  0  0  0  0  0  0  0  0  0
   29.8849   13.2092   15.6632 C   0  0  0  0  0  0  0  0  0  0  0  0
   29.2859   12.4998   14.6322 N   0  0  0  0  0  0  0  0  0  0  0  0
   29.3262   14.3569   16.0788 N   0  0  0  0  0  0  0  0  0  0  0  0
   29.8726   15.0813   17.0681 C   0  0  0  0  0  0  0  0  0  0  0  0
   31.0564   14.6272   17.6918 C   0  0  0  0  0  0  0  0  0  0  0  0
   31.6223   13.3988   17.2269 C   0  0  0  0  0  0  0  0  0  0  0  0
   32.7710   12.8974   17.7885 N   0  0  0  0  0  0  0  0  0  0  0  0
   31.3860   15.5430   18.6470 N   0  0  0  0  0  0  0  0  0  0  0  0
   30.5069   16.4996   18.6432 C   0  0  0  0  0  0  0  0  0  0  0  0
   29.5492   16.2621   17.6899 N   0  0  0  0  0  0  0  0  0  0  0  0
  1  7  2  0  0  0  0
  1  2  1  0  0  0  0
  2  3  1  0  0  0  0
  2  4  2  0  0  0  0
  4  5  1  0  0  0  0
  5  6  2  0  0  0  0
  5 11  1  0  0  0  0
  6  7  1  0  0  0  0
  6  9  1  0  0  0  0
  7  8  1  0  0  0  0
  9 10  1  0  0  0  0
 10 11  2  0  0  0  0
M  END
>  <CHROM.1>
30.56905297,14.26315283,17.01635310,-1.74482843,-0.57825889,0.64584918

>  <Name>
ligand

>  <RI>
0

>  <Rbt.Current_Directory>
/home/itssahil/PROJECTS/Mol_Feturizer/New_Systems/rnas/4FEO

>  <Rbt.Executable>
rbdock ($Id: //depot/dev/client3/rdock/2013.1/src/exe/rbdock.cxx#4 $)

>  <Rbt.Library>
libRbt.so (2013.1, Build901 2013/11/27)

>  <Rbt.Parameter_File>
/export/apps/rDock/src/rDock_2013.1_src/data/scripts/dock_solv.prm

>  <Rbt.Receptor>
prm/blind_docking_80.prm

>  <SCORE>
-7.88349

>  <SCORE.INTER>
-7.88349

>  <SCORE.INTER.CONST>
1

>  <SCORE.INTER.POLAR>
0

>  <SCORE.INTER.ROT>
0

>  <SCORE.INTER.SOLV>
6.52187

>  <SCORE.INTER.VDW>
-11.0296

>  <SCORE.INTER.norm>
-0.716681

>  <SCORE.INTRA>
0

>  <SCORE.INTRA.DIHEDRAL>
0

>  <SCORE.INTRA.DIHEDRAL.0>
0

>  <SCORE.INTRA.POLAR>
0

>  <SCORE.INTRA.POLAR.0>
0

>  <SCORE.INTRA.REPUL>
0

>  <SCORE.INTRA.REPUL.0>
0

>  <SCORE.INTRA.SOLV>
0

>  <SCORE.INTRA.SOLV.lig_0>
-48.9252

>  <SCORE.INTRA.VDW>
0

>  <SCORE.INTRA.VDW.0>
0

>  <SCORE.INTRA.norm>
0

>  <SCORE.RESTR>
0

>  <SCORE.RESTR.CAVITY>
0

>  <SCORE.RESTR.norm>
0

>  <SCORE.SYSTEM>
0

>  <SCORE.SYSTEM.CONST>
0

>  <SCORE.SYSTEM.DIHEDRAL>
0

>  <SCORE.SYSTEM.SOLV>
0

>  <SCORE.SYSTEM.norm>
0

>  <SCORE.heavy>
11

>  <SCORE.norm>
-0.716681

>  <RMSD>
21.497

$$$$
ligand
 OpenBabel11021811493D
libRbt.so/2013.1/901 2013/11/27
 11 12  0  0  0  0  0  0  0  0999 V2000
   30.9266   12.4677   16.0634 N   0  0  0  0  0  0  0  0  0  0  0  0
   29.8166   13.0545   15.5793 C   0  0  0  0  0  0  0  0  0  0  0  0
   29.0923   12.4194   14.5808 N   0  0  0  0  0  0  0  0  0  0  0  0
   29.3939   14.2426   16.0395 N   0  0  0  0  0  0  0  0  0  0  0  0
   30.0648   14.8983   16.9997 C   0  0  0  0  0  0  0  0  0  0  0  0
   31.2369   14.3271   17.5444 C   0  0  0  0  0  0  0  0  0  0  0  0
   31.6562   13.0588   17.0337 C   0  0  0  0  0  0  0  0  0  0  0  0
   32.7852   12.4448   17.5182 N   0  0  0  0  0  0  0  0  0  0  0  0
   31.7081   15.1939   18.4859 N   0  0  0  0  0  0  0  0  0  0  0  0
   30.9236   16.2278   18.5457 C   0  0  0  0  0  0  0  0  0  0  0  0
   29.8916   16.0944   17.6514 N   0  0  0  0  0  0  0  0  0  0  0  0
  1  7  2  0  0  0  0
  1  2  1  0  0  0  0
  2  3  1  0  0  0  0
  2  4  2  0  0  0  0
  4  5  1  0  0  0  0
  5  6  2  0  0  0  0
  5 11  1  0  0  0  0
  6  7  1  0  0  0  0
  6  9  1  0  0  0  0
  7  8  1  0  0  0  0
  9 10  1  0  0  0  0
 10 11  2  0  0  0  0
M  END
>  <CHROM.1>
30.67741160,14.02003392,16.89712586,-1.87835407,-0.58169421,0.58489968

>  <Name>
ligand

>  <RI>
0

>  <Rbt.Current_Directory>
/home/itssahil/PROJECTS/Mol_Feturizer/New_Systems/rnas/4FEO

>  <Rbt.Executable>
rbdock ($Id: //depot/dev/client3/rdock/2013.1/src/exe/rbdock.cxx#4 $)

>  <Rbt.Library>
libRbt.so (2013.1, Build901 2013/11/27)

>  <Rbt.Parameter_File>
/export/apps/rDock/src/rDock_2013.1_src/data/scripts/dock_solv.prm

>  <Rbt.Receptor>
prm/blind_docking_60.prm

>  <SCORE>
-7.46206

>  <SCORE.INTER>
-7.46206

>  <SCORE.INTER.CONST>
1

>  <SCORE.INTER.POLAR>
0

>  <SCORE.INTER.ROT>
0

>  <SCORE.INTER.SOLV>
6.24364

>  <SCORE.INTER.VDW>
-10.6559

>  <SCORE.INTER.norm>
-0.678369

>  <SCORE.INTRA>
0

>  <SCORE.INTRA.DIHEDRAL>
0

>  <SCORE.INTRA.DIHEDRAL.0>
0

>  <SCORE.INTRA.POLAR>
0

>  <SCORE.INTRA.POLAR.0>
0

>  <SCORE.INTRA.REPUL>
0

>  <SCORE.INTRA.REPUL.0>
0

>  <SCORE.INTRA.SOLV>
0

>  <SCORE.INTRA.SOLV.lig_0>
-48.9252

>  <SCORE.INTRA.VDW>
0

>  <SCORE.INTRA.VDW.0>
0

>  <SCORE.INTRA.norm>
0

>  <SCORE.RESTR>
0

>  <SCORE.RESTR.CAVITY>
0

>  <SCORE.RESTR.norm>
0

>  <SCORE.SYSTEM>
0

>  <SCORE.SYSTEM.CONST>
0

>  <SCORE.SYSTEM.DIHEDRAL>
0

>  <SCORE.SYSTEM.SOLV>
0

>  <SCORE.SYSTEM.norm>
0

>  <SCORE.heavy>
11

>  <SCORE.norm>
-0.678369

>  <RMSD>
21.518

$$$$
ligand
 OpenBabel11021811493D
libRbt.so/2013.1/901 2013/11/27
 11 12  0  0  0  0  0  0  0  0999 V2000
   31.0652   12.9905   16.4920 N   0  0  0  0  0  0  0  0  0  0  0  0
   29.9179   13.3396   15.8815 C   0  0  0  0  0  0  0  0  0  0  0  0
   29.3908   12.5120   14.9005 N   0  0  0  0  0  0  0  0  0  0  0  0
   29.2713   14.4723   16.1989 N   0  0  0  0  0  0  0  0  0  0  0  0
   29.7456   15.3080   17.1363 C   0  0  0  0  0  0  0  0  0  0  0  0
   30.9464   14.9897   17.8096 C   0  0  0  0  0  0  0  0  0  0  0  0
   31.6069   13.7734   17.4494 C   0  0  0  0  0  0  0  0  0  0  0  0
   32.7773   13.4008   18.0641 N   0  0  0  0  0  0  0  0  0  0  0  0
   31.1916   15.9973   18.6953 N   0  0  0  0  0  0  0  0  0  0  0  0
   30.2471   16.8848   18.6050 C   0  0  0  0  0  0  0  0  0  0  0  0
   29.3273   16.5064   17.6599 N   0  0  0  0  0  0  0  0  0  0  0  0
  1  7  2  0  0  0  0
  1  2  1  0  0  0  0
  2  3  1  0  0  0  0
  2  4  2  0  0  0  0
  4  5  1  0  0  0  0
  5  6  2  0  0  0  0
  5 11  1  0  0  0  0
  6  7  1  0  0  0  0
  6  9  1  0  0  0  0
  7  8  1  0  0  0  0
  9 10  1  0  0  0  0
 10 11  2  0  0  0  0
M  END
>  <CHROM.1>
30.49927784,14.54073211,17.15790169,-1.66462900,-0.54943913,0.61142707

>  <Name>
ligand

>  <RI>
0

>  <Rbt.Current_Directory>
/home/itssahil/PROJECTS/Mol_Feturizer/New_Systems/rnas/4FEO

>  <Rbt.Executable>
rbdock ($Id: //depot/dev/client3/rdock/2013.1/src/exe/rbdock.cxx#4 $)

>  <Rbt.Library>
libRbt.so (2013.1, Build901 2013/11/27)

>  <Rbt.Parameter_File>
/export/apps/rDock/src/rDock_2013.1_src/data/scripts/dock_solv.prm

>  <Rbt.Receptor>
prm/blind_docking_100.prm

>  <SCORE>
-8.21572

>  <SCORE.INTER>
-8.21572

>  <SCORE.INTER.CONST>
1

>  <SCORE.INTER.POLAR>
0

>  <SCORE.INTER.ROT>
0

>  <SCORE.INTER.SOLV>
7.62337

>  <SCORE.INTER.VDW>
-11.6183

>  <SCORE.INTER.norm>
-0.746884

>  <SCORE.INTRA>
0

>  <SCORE.INTRA.DIHEDRAL>
0

>  <SCORE.INTRA.DIHEDRAL.0>
0

>  <SCORE.INTRA.POLAR>
0

>  <SCORE.INTRA.POLAR.0>
0

>  <SCORE.INTRA.REPUL>
0

>  <SCORE.INTRA.REPUL.0>
0

>  <SCORE.INTRA.SOLV>
0

>  <SCORE.INTRA.SOLV.lig_0>
-48.9252

>  <SCORE.INTRA.VDW>
0

>  <SCORE.INTRA.VDW.0>
0

>  <SCORE.INTRA.norm>
0

>  <SCORE.RESTR>
0

>  <SCORE.RESTR.CAVITY>
0

>  <SCORE.RESTR.norm>
0

>  <SCORE.SYSTEM>
0

>  <SCORE.SYSTEM.CONST>
0

>  <SCORE.SYSTEM.DIHEDRAL>
0

>  <SCORE.SYSTEM.SOLV>
0

>  <SCORE.SYSTEM.norm>
0

>  <SCORE.heavy>
11

>  <SCORE.norm>
-0.746884

>  <RMSD>
21.521

$$$$
ligand
 OpenBabel11021811493D
libRbt.so/2013.1/901 2013/11/27
 11 12  0  0  0  0  0  0  0  0999 V2000
   31.0597   12.9924   16.4923 N   0  0  0  0  0  0  0  0  0  0  0  0
   29.9130   13.3595   15.8914 C   0  0  0  0  0  0  0  0  0  0  0  0
   29.3781   12.5529   14.8973 N   0  0  0  0  0  0  0  0  0  0  0  0
   29.2743   14.4903   16.2309 N   0  0  0  0  0  0  0  0  0  0  0  0
   29.7564   15.3061   17.1818 C   0  0  0  0  0  0  0  0  0  0  0  0
   30.9570   14.9682   17.8460 C   0  0  0  0  0  0  0  0  0  0  0  0
   31.6089   13.7546   17.4622 C   0  0  0  0  0  0  0  0  0  0  0  0
   32.7786   13.3638   18.0668 N   0  0  0  0  0  0  0  0  0  0  0  0
   31.2109   15.9583   18.7489 N   0  0  0  0  0  0  0  0  0  0  0  0
   30.2716   16.8531   18.6772 C   0  0  0  0  0  0  0  0  0  0  0  0
   29.3470   16.4975   17.7280 N   0  0  0  0  0  0  0  0  0  0  0  0
  1  7  2  0  0  0  0
  1  2  1  0  0  0  0
  2  3  1  0  0  0  0
  2  4  2  0  0  0  0
  4  5  1  0  0  0  0
  5  6  2  0  0  0  0
  5 11  1  0  0  0  0
  6  7  1  0  0  0  0
  6  9  1  0  0  0  0
  7  8  1  0  0  0  0
  9 10  1  0  0  0  0
 10 11  2  0  0  0  0
M  END
>  <CHROM.1>
30.50529159,14.53387014,17.18754341,-1.67245027,-0.55081989,0.62528523

>  <Name>
ligand

>  <RI>
0

>  <Rbt.Current_Directory>
/home/itssahil/PROJECTS/Mol_Feturizer/New_Systems/rnas/4FEO

>  <Rbt.Executable>
rbdock ($Id: //depot/dev/client3/rdock/2013.1/src/exe/rbdock.cxx#4 $)

>  <Rbt.Library>
libRbt.so (2013.1, Build901 2013/11/27)

>  <Rbt.Parameter_File>
/export/apps/rDock/src/rDock_2013.1_src/data/scripts/dock_solv.prm

>  <Rbt.Receptor>
prm/blind_docking_100.prm

>  <SCORE>
-8.17417

>  <SCORE.INTER>
-8.17417

>  <SCORE.INTER.CONST>
1

>  <SCORE.INTER.POLAR>
0

>  <SCORE.INTER.ROT>
0

>  <SCORE.INTER.SOLV>
7.50538

>  <SCORE.INTER.VDW>
-11.5512

>  <SCORE.INTER.norm>
-0.743106

>  <SCORE.INTRA>
0

>  <SCORE.INTRA.DIHEDRAL>
0

>  <SCORE.INTRA.DIHEDRAL.0>
0

>  <SCORE.INTRA.POLAR>
0

>  <SCORE.INTRA.POLAR.0>
0

>  <SCORE.INTRA.REPUL>
0

>  <SCORE.INTRA.REPUL.0>
0

>  <SCORE.INTRA.SOLV>
0

>  <SCORE.INTRA.SOLV.lig_0>
-48.9252

>  <SCORE.INTRA.VDW>
0

>  <SCORE.INTRA.VDW.0>
0

>  <SCORE.INTRA.norm>
0

>  <SCORE.RESTR>
0

>  <SCORE.RESTR.CAVITY>
0

>  <SCORE.RESTR.norm>
0

>  <SCORE.SYSTEM>
0

>  <SCORE.SYSTEM.CONST>
0

>  <SCORE.SYSTEM.DIHEDRAL>
0

>  <SCORE.SYSTEM.SOLV>
0

>  <SCORE.SYSTEM.norm>
0

>  <SCORE.heavy>
11

>  <SCORE.norm>
-0.743106

>  <RMSD>
21.540

$$$$
ligand
 OpenBabel11021811493D
libRbt.so/2013.1/901 2013/11/27
 11 12  0  0  0  0  0  0  0  0999 V2000
   32.0738   14.1570   18.7106 N   0  0  0  0  0  0  0  0  0  0  0  0
   31.2874   15.2419   18.8349 C   0  0  0  0  0  0  0  0  0  0  0  0
   31.4746   16.0975   19.9110 N   0  0  0  0  0  0  0  0  0  0  0  0
   30.3236   15.5153   17.9415 N   0  0  0  0  0  0  0  0  0  0  0  0
   30.1002   14.7139   16.8879 C   0  0  0  0  0  0  0  0  0  0  0  0
   30.8977   13.5612   16.7085 C   0  0  0  0  0  0  0  0  0  0  0  0
   31.9177   13.3025   17.6769 C   0  0  0  0  0  0  0  0  0  0  0  0
   32.7307   12.2013   17.5640 N   0  0  0  0  0  0  0  0  0  0  0  0
   30.4594   12.9397   15.5764 N   0  0  0  0  0  0  0  0  0  0  0  0
   29.4730   13.6178   15.0713 C   0  0  0  0  0  0  0  0  0  0  0  0
   29.2129   14.7240   15.8401 N   0  0  0  0  0  0  0  0  0  0  0  0
  1  7  2  0  0  0  0
  1  2  1  0  0  0  0
  2  3  1  0  0  0  0
  2  4  2  0  0  0  0
  4  5  1  0  0  0  0
  5  6  2  0  0  0  0
  5 11  1  0  0  0  0
  6  7  1  0  0  0  0
  6  9  1  0  0  0  0
  7  8  1  0  0  0  0
  9 10  1  0  0  0  0
 10 11  2  0  0  0  0
M  END
>  <CHROM.1>
30.91637447,14.19535214,17.35942395,-1.01950469,0.70608870,-2.36335422

>  <Name>
ligand

>  <RI>
0

>  <Rbt.Current_Directory>
/home/itssahil/PROJECTS/Mol_Feturizer/New_Systems/rnas/4FEO

>  <Rbt.Executable>
rbdock ($Id: //depot/dev/client3/rdock/2013.1/src/exe/rbdock.cxx#4 $)

>  <Rbt.Library>
libRbt.so (2013.1, Build901 2013/11/27)

>  <Rbt.Parameter_File>
/export/apps/rDock/src/rDock_2013.1_src/data/scripts/dock_solv.prm

>  <Rbt.Receptor>
prm/blind_docking_100.prm

>  <SCORE>
-6.96776

>  <SCORE.INTER>
-6.96776

>  <SCORE.INTER.CONST>
1

>  <SCORE.INTER.POLAR>
0

>  <SCORE.INTER.ROT>
0

>  <SCORE.INTER.SOLV>
4.99356

>  <SCORE.INTER.VDW>
-9.90969

>  <SCORE.INTER.norm>
-0.633433

>  <SCORE.INTRA>
0

>  <SCORE.INTRA.DIHEDRAL>
0

>  <SCORE.INTRA.DIHEDRAL.0>
0

>  <SCORE.INTRA.POLAR>
0

>  <SCORE.INTRA.POLAR.0>
0

>  <SCORE.INTRA.REPUL>
0

>  <SCORE.INTRA.REPUL.0>
0

>  <SCORE.INTRA.SOLV>
0

>  <SCORE.INTRA.SOLV.lig_0>
-48.9252

>  <SCORE.INTRA.VDW>
0

>  <SCORE.INTRA.VDW.0>
0

>  <SCORE.INTRA.norm>
0

>  <SCORE.RESTR>
0

>  <SCORE.RESTR.CAVITY>
0

>  <SCORE.RESTR.norm>
0

>  <SCORE.SYSTEM>
0

>  <SCORE.SYSTEM.CONST>
0

>  <SCORE.SYSTEM.DIHEDRAL>
0

>  <SCORE.SYSTEM.SOLV>
0

>  <SCORE.SYSTEM.norm>
0

>  <SCORE.heavy>
11

>  <SCORE.norm>
-0.633433

>  <RMSD>
21.681

$$$$
ligand
 OpenBabel11021811493D
libRbt.so/2013.1/901 2013/11/27
 11 12  0  0  0  0  0  0  0  0999 V2000
   32.1346   14.1946   18.6888 N   0  0  0  0  0  0  0  0  0  0  0  0
   31.3227   15.2454   18.9066 C   0  0  0  0  0  0  0  0  0  0  0  0
   31.5324   16.0473   20.0192 N   0  0  0  0  0  0  0  0  0  0  0  0
   30.3121   15.5355   18.0720 N   0  0  0  0  0  0  0  0  0  0  0  0
   30.0657   14.7852   16.9864 C   0  0  0  0  0  0  0  0  0  0  0  0
   30.8882   13.6701   16.7094 C   0  0  0  0  0  0  0  0  0  0  0  0
   31.9578   13.3925   17.6171 C   0  0  0  0  0  0  0  0  0  0  0  0
   32.7972   12.3255   17.4087 N   0  0  0  0  0  0  0  0  0  0  0  0
   30.4183   13.0968   15.5646 N   0  0  0  0  0  0  0  0  0  0  0  0
   29.3905   13.7691   15.1408 C   0  0  0  0  0  0  0  0  0  0  0  0
   29.1324   14.8233   15.9800 N   0  0  0  0  0  0  0  0  0  0  0  0
  1  7  2  0  0  0  0
  1  2  1  0  0  0  0
  2  3  1  0  0  0  0
  2  4  2  0  0  0  0
  4  5  1  0  0  0  0
  5  6  2  0  0  0  0
  5 11  1  0  0  0  0
  6  7  1  0  0  0  0
  6  9  1  0  0  0  0
  7  8  1  0  0  0  0
  9 10  1  0  0  0  0
 10 11  2  0  0  0  0
M  END
>  <CHROM.1>
30.91718344,14.26853496,17.39293074,-1.00653440,0.65329961,-2.31687656

>  <Name>
ligand

>  <RI>
0

>  <Rbt.Current_Directory>
/home/itssahil/PROJECTS/Mol_Feturizer/New_Systems/rnas/4FEO

>  <Rbt.Executable>
rbdock ($Id: //depot/dev/client3/rdock/2013.1/src/exe/rbdock.cxx#4 $)

>  <Rbt.Library>
libRbt.so (2013.1, Build901 2013/11/27)

>  <Rbt.Parameter_File>
/export/apps/rDock/src/rDock_2013.1_src/data/scripts/dock_solv.prm

>  <Rbt.Receptor>
prm/blind_docking_100.prm

>  <SCORE>
-6.85935

>  <SCORE.INTER>
-6.85935

>  <SCORE.INTER.CONST>
1

>  <SCORE.INTER.POLAR>
0

>  <SCORE.INTER.ROT>
0

>  <SCORE.INTER.SOLV>
5.06639

>  <SCORE.INTER.VDW>
-9.8617

>  <SCORE.INTER.norm>
-0.623578

>  <SCORE.INTRA>
0

>  <SCORE.INTRA.DIHEDRAL>
0

>  <SCORE.INTRA.DIHEDRAL.0>
0

>  <SCORE.INTRA.POLAR>
0

>  <SCORE.INTRA.POLAR.0>
0

>  <SCORE.INTRA.REPUL>
0

>  <SCORE.INTRA.REPUL.0>
0

>  <SCORE.INTRA.SOLV>
0

>  <SCORE.INTRA.SOLV.lig_0>
-48.9252

>  <SCORE.INTRA.VDW>
0

>  <SCORE.INTRA.VDW.0>
0

>  <SCORE.INTRA.norm>
0

>  <SCORE.RESTR>
0

>  <SCORE.RESTR.CAVITY>
0

>  <SCORE.RESTR.norm>
0

>  <SCORE.SYSTEM>
0

>  <SCORE.SYSTEM.CONST>
0

>  <SCORE.SYSTEM.DIHEDRAL>
0

>  <SCORE.SYSTEM.SOLV>
0

>  <SCORE.SYSTEM.norm>
0

>  <SCORE.heavy>
11

>  <SCORE.norm>
-0.623578

>  <RMSD>
21.704

$$$$
ligand
 OpenBabel11021811493D
libRbt.so/2013.1/901 2013/11/27
 11 12  0  0  0  0  0  0  0  0999 V2000
   31.7603   14.6803   18.8839 N   0  0  0  0  0  0  0  0  0  0  0  0
   32.2709   13.5032   18.4784 C   0  0  0  0  0  0  0  0  0  0  0  0
   33.2817   12.9090   19.2202 N   0  0  0  0  0  0  0  0  0  0  0  0
   31.8255   12.8901   17.3703 N   0  0  0  0  0  0  0  0  0  0  0  0
   30.8542   13.4291   16.6166 C   0  0  0  0  0  0  0  0  0  0  0  0
   30.2818   14.6638   16.9970 C   0  0  0  0  0  0  0  0  0  0  0  0
   30.7773   15.2871   18.1849 C   0  0  0  0  0  0  0  0  0  0  0  0
   30.2658   16.4873   18.6143 N   0  0  0  0  0  0  0  0  0  0  0  0
   29.3344   14.9730   16.0659 N   0  0  0  0  0  0  0  0  0  0  0  0
   29.2964   14.0355   15.1673 C   0  0  0  0  0  0  0  0  0  0  0  0
   30.2120   13.0570   15.4614 N   0  0  0  0  0  0  0  0  0  0  0  0
  1  7  2  0  0  0  0
  1  2  1  0  0  0  0
  2  3  1  0  0  0  0
  2  4  2  0  0  0  0
  4  5  1  0  0  0  0
  5  6  2  0  0  0  0
  5 11  1  0  0  0  0
  6  7  1  0  0  0  0
  6  9  1  0  0  0  0
  7  8  1  0  0  0  0
  9 10  1  0  0  0  0
 10 11  2  0  0  0  0
M  END
>  <CHROM.1>
30.93944024,14.17346517,17.38852103,0.40901955,-0.75713206,0.73208253

>  <Name>
ligand

>  <RI>
0

>  <Rbt.Current_Directory>
/home/itssahil/PROJECTS/Mol_Feturizer/New_Systems/rnas/4FEO

>  <Rbt.Executable>
rbdock ($Id: //depot/dev/client3/rdock/2013.1/src/exe/rbdock.cxx#4 $)

>  <Rbt.Library>
libRbt.so (2013.1, Build901 2013/11/27)

>  <Rbt.Parameter_File>
/export/apps/rDock/src/rDock_2013.1_src/data/scripts/dock_solv.prm

>  <Rbt.Receptor>
prm/blind_docking_80.prm

>  <SCORE>
-6.83223

>  <SCORE.INTER>
-6.83223

>  <SCORE.INTER.CONST>
1

>  <SCORE.INTER.POLAR>
0

>  <SCORE.INTER.ROT>
0

>  <SCORE.INTER.SOLV>
6.71534

>  <SCORE.INTER.VDW>
-10.3933

>  <SCORE.INTER.norm>
-0.621112

>  <SCORE.INTRA>
0

>  <SCORE.INTRA.DIHEDRAL>
0

>  <SCORE.INTRA.DIHEDRAL.0>
0

>  <SCORE.INTRA.POLAR>
0

>  <SCORE.INTRA.POLAR.0>
0

>  <SCORE.INTRA.REPUL>
0

>  <SCORE.INTRA.REPUL.0>
0

>  <SCORE.INTRA.SOLV>
0

>  <SCORE.INTRA.SOLV.lig_0>
-48.9252

>  <SCORE.INTRA.VDW>
0

>  <SCORE.INTRA.VDW.0>
0

>  <SCORE.INTRA.norm>
0

>  <SCORE.RESTR>
0

>  <SCORE.RESTR.CAVITY>
0

>  <SCORE.RESTR.norm>
0

>  <SCORE.SYSTEM>
0

>  <SCORE.SYSTEM.CONST>
0

>  <SCORE.SYSTEM.DIHEDRAL>
0

>  <SCORE.SYSTEM.SOLV>
0

>  <SCORE.SYSTEM.norm>
0

>  <SCORE.heavy>
11

>  <SCORE.norm>
-0.621112

>  <RMSD>
21.857

$$$$
ligand
 OpenBabel11021811493D
libRbt.so/2013.1/901 2013/11/27
 11 12  0  0  0  0  0  0  0  0999 V2000
   31.4138   12.7782   17.1523 N   0  0  0  0  0  0  0  0  0  0  0  0
   32.4035   12.1042   17.7662 C   0  0  0  0  0  0  0  0  0  0  0  0
   32.9960   12.6471   18.8972 N   0  0  0  0  0  0  0  0  0  0  0  0
   32.8326   10.9175   17.3083 N   0  0  0  0  0  0  0  0  0  0  0  0
   32.2950   10.3553   16.2143 C   0  0  0  0  0  0  0  0  0  0  0  0
   31.2517   11.0198   15.5311 C   0  0  0  0  0  0  0  0  0  0  0  0
   30.8166   12.2800   16.0486 C   0  0  0  0  0  0  0  0  0  0  0  0
   29.8062   12.9801   15.4358 N   0  0  0  0  0  0  0  0  0  0  0  0
   30.8995   10.2359   14.4722 N   0  0  0  0  0  0  0  0  0  0  0  0
   31.6417    9.1696   14.4643 C   0  0  0  0  0  0  0  0  0  0  0  0
   32.5176    9.1917   15.5201 N   0  0  0  0  0  0  0  0  0  0  0  0
  1  7  2  0  0  0  0
  1  2  1  0  0  0  0
  2  3  1  0  0  0  0
  2  4  2  0  0  0  0
  4  5  1  0  0  0  0
  5  6  2  0  0  0  0
  5 11  1  0  0  0  0
  6  7  1  0  0  0  0
  6  9  1  0  0  0  0
  7  8  1  0  0  0  0
  9 10  1  0  0  0  0
 10 11  2  0  0  0  0
M  END
>  <CHROM.1>
31.71820710,11.26142985,16.27284653,1.32955294,-0.73757384,0.68515166

>  <Name>
ligand

>  <RI>
0

>  <Rbt.Current_Directory>
/home/itssahil/PROJECTS/Mol_Feturizer/New_Systems/rnas/4FEO

>  <Rbt.Executable>
rbdock ($Id: //depot/dev/client3/rdock/2013.1/src/exe/rbdock.cxx#4 $)

>  <Rbt.Library>
libRbt.so (2013.1, Build901 2013/11/27)

>  <Rbt.Parameter_File>
/export/apps/rDock/src/rDock_2013.1_src/data/scripts/dock_solv.prm

>  <Rbt.Receptor>
prm/blind_docking_100.prm

>  <SCORE>
-5.07128

>  <SCORE.INTER>
-5.07128

>  <SCORE.INTER.CONST>
1

>  <SCORE.INTER.POLAR>
0

>  <SCORE.INTER.ROT>
0

>  <SCORE.INTER.SOLV>
6.61287

>  <SCORE.INTER.VDW>
-9.18514

>  <SCORE.INTER.norm>
-0.461025

>  <SCORE.INTRA>
0

>  <SCORE.INTRA.DIHEDRAL>
0

>  <SCORE.INTRA.DIHEDRAL.0>
0

>  <SCORE.INTRA.POLAR>
0

>  <SCORE.INTRA.POLAR.0>
0

>  <SCORE.INTRA.REPUL>
0

>  <SCORE.INTRA.REPUL.0>
0

>  <SCORE.INTRA.SOLV>
0

>  <SCORE.INTRA.SOLV.lig_0>
-48.9252

>  <SCORE.INTRA.VDW>
0

>  <SCORE.INTRA.VDW.0>
0

>  <SCORE.INTRA.norm>
0

>  <SCORE.RESTR>
0

>  <SCORE.RESTR.CAVITY>
0

>  <SCORE.RESTR.norm>
0

>  <SCORE.SYSTEM>
0

>  <SCORE.SYSTEM.CONST>
0

>  <SCORE.SYSTEM.DIHEDRAL>
0

>  <SCORE.SYSTEM.SOLV>
0

>  <SCORE.SYSTEM.norm>
0

>  <SCORE.heavy>
11

>  <SCORE.norm>
-0.461025

>  <RMSD>
22.030

$$$$
ligand
 OpenBabel11021811493D
libRbt.so/2013.1/901 2013/11/27
 11 12  0  0  0  0  0  0  0  0999 V2000
   31.8279   14.7004   19.1933 N   0  0  0  0  0  0  0  0  0  0  0  0
   32.3219   13.5493   18.7017 C   0  0  0  0  0  0  0  0  0  0  0  0
   33.3248   12.8884   19.3964 N   0  0  0  0  0  0  0  0  0  0  0  0
   31.8674   13.0254   17.5524 N   0  0  0  0  0  0  0  0  0  0  0  0
   30.9033   13.6315   16.8418 C   0  0  0  0  0  0  0  0  0  0  0  0
   30.3483   14.8428   17.3125 C   0  0  0  0  0  0  0  0  0  0  0  0
   30.8531   15.3704   18.5422 C   0  0  0  0  0  0  0  0  0  0  0  0
   30.3586   16.5428   19.0593 N   0  0  0  0  0  0  0  0  0  0  0  0
   29.4048   15.2326   16.4082 N   0  0  0  0  0  0  0  0  0  0  0  0
   29.3533   14.3641   15.4433 C   0  0  0  0  0  0  0  0  0  0  0  0
   30.2553   13.3541   15.6634 N   0  0  0  0  0  0  0  0  0  0  0  0
  1  7  2  0  0  0  0
  1  2  1  0  0  0  0
  2  3  1  0  0  0  0
  2  4  2  0  0  0  0
  4  5  1  0  0  0  0
  5  6  2  0  0  0  0
  5 11  1  0  0  0  0
  6  7  1  0  0  0  0
  6  9  1  0  0  0  0
  7  8  1  0  0  0  0
  9 10  1  0  0  0  0
 10 11  2  0  0  0  0
M  END
>  <CHROM.1>
30.99928971,14.31603703,17.66605395,0.39416907,-0.76596470,0.79525507

>  <Name>
ligand

>  <RI>
0

>  <Rbt.Current_Directory>
/home/itssahil/PROJECTS/Mol_Feturizer/New_Systems/rnas/4FEO

>  <Rbt.Executable>
rbdock ($Id: //depot/dev/client3/rdock/2013.1/src/exe/rbdock.cxx#4 $)

>  <Rbt.Library>
libRbt.so (2013.1, Build901 2013/11/27)

>  <Rbt.Parameter_File>
/export/apps/rDock/src/rDock_2013.1_src/data/scripts/dock_solv.prm

>  <Rbt.Receptor>
prm/blind_docking_100.prm

>  <SCORE>
-6.75215

>  <SCORE.INTER>
-6.75215

>  <SCORE.INTER.CONST>
1

>  <SCORE.INTER.POLAR>
0

>  <SCORE.INTER.ROT>
0

>  <SCORE.INTER.SOLV>
5.42158

>  <SCORE.INTER.VDW>
-9.90863

>  <SCORE.INTER.norm>
-0.613832

>  <SCORE.INTRA>
0

>  <SCORE.INTRA.DIHEDRAL>
0

>  <SCORE.INTRA.DIHEDRAL.0>
0

>  <SCORE.INTRA.POLAR>
0

>  <SCORE.INTRA.POLAR.0>
0

>  <SCORE.INTRA.REPUL>
0

>  <SCORE.INTRA.REPUL.0>
0

>  <SCORE.INTRA.SOLV>
0

>  <SCORE.INTRA.SOLV.lig_0>
-48.9252

>  <SCORE.INTRA.VDW>
0

>  <SCORE.INTRA.VDW.0>
0

>  <SCORE.INTRA.norm>
0

>  <SCORE.RESTR>
0

>  <SCORE.RESTR.CAVITY>
0

>  <SCORE.RESTR.norm>
0

>  <SCORE.SYSTEM>
0

>  <SCORE.SYSTEM.CONST>
0

>  <SCORE.SYSTEM.DIHEDRAL>
0

>  <SCORE.SYSTEM.SOLV>
0

>  <SCORE.SYSTEM.norm>
0

>  <SCORE.heavy>
11

>  <SCORE.norm>
-0.613832

>  <RMSD>
22.048

$$$$
ligand
 OpenBabel11021811493D
libRbt.so/2013.1/901 2013/11/27
 11 12  0  0  0  0  0  0  0  0999 V2000
   32.7525   14.2285   18.7944 N   0  0  0  0  0  0  0  0  0  0  0  0
   32.9666   13.0546   18.1724 C   0  0  0  0  0  0  0  0  0  0  0  0
   34.0493   12.2731   18.5495 N   0  0  0  0  0  0  0  0  0  0  0  0
   32.1569   12.6220   17.1931 N   0  0  0  0  0  0  0  0  0  0  0  0
   31.1010   13.3459   16.7892 C   0  0  0  0  0  0  0  0  0  0  0  0
   30.8291   14.5864   17.4090 C   0  0  0  0  0  0  0  0  0  0  0  0
   31.7097   15.0147   18.4512 C   0  0  0  0  0  0  0  0  0  0  0  0
   31.5044   16.2088   19.0981 N   0  0  0  0  0  0  0  0  0  0  0  0
   29.7163   15.1006   16.8114 N   0  0  0  0  0  0  0  0  0  0  0  0
   29.3068   14.2791   15.8919 C   0  0  0  0  0  0  0  0  0  0  0  0
   30.1241   13.1784   15.8389 N   0  0  0  0  0  0  0  0  0  0  0  0
  1  7  2  0  0  0  0
  1  2  1  0  0  0  0
  2  3  1  0  0  0  0
  2  4  2  0  0  0  0
  4  5  1  0  0  0  0
  5  6  2  0  0  0  0
  5 11  1  0  0  0  0
  6  7  1  0  0  0  0
  6  9  1  0  0  0  0
  7  8  1  0  0  0  0
  9 10  1  0  0  0  0
 10 11  2  0  0  0  0
M  END
>  <CHROM.1>
31.49443707,13.98560887,17.55939317,0.05475808,-0.61150341,0.60225948

>  <Name>
ligand

>  <RI>
0

>  <Rbt.Current_Directory>
/home/itssahil/PROJECTS/Mol_Feturizer/New_Systems/rnas/4FEO

>  <Rbt.Executable>
rbdock ($Id: //depot/dev/client3/rdock/2013.1/src/exe/rbdock.cxx#4 $)

>  <Rbt.Library>
libRbt.so (2013.1, Build901 2013/11/27)

>  <Rbt.Parameter_File>
/export/apps/rDock/src/rDock_2013.1_src/data/scripts/dock_solv.prm

>  <Rbt.Receptor>
prm/blind_docking_60.prm

>  <SCORE>
-6.41667

>  <SCORE.INTER>
-6.41667

>  <SCORE.INTER.CONST>
1

>  <SCORE.INTER.POLAR>
0

>  <SCORE.INTER.ROT>
0

>  <SCORE.INTER.SOLV>
6.09183

>  <SCORE.INTER.VDW>
-9.90839

>  <SCORE.INTER.norm>
-0.583334

>  <SCORE.INTRA>
0

>  <SCORE.INTRA.DIHEDRAL>
0

>  <SCORE.INTRA.DIHEDRAL.0>
0

>  <SCORE.INTRA.POLAR>
0

>  <SCORE.INTRA.POLAR.0>
0

>  <SCORE.INTRA.REPUL>
0

>  <SCORE.INTRA.REPUL.0>
0

>  <SCORE.INTRA.SOLV>
0

>  <SCORE.INTRA.SOLV.lig_0>
-48.9252

>  <SCORE.INTRA.VDW>
0

>  <SCORE.INTRA.VDW.0>
0

>  <SCORE.INTRA.norm>
0

>  <SCORE.RESTR>
0

>  <SCORE.RESTR.CAVITY>
0

>  <SCORE.RESTR.norm>
0

>  <SCORE.SYSTEM>
0

>  <SCORE.SYSTEM.CONST>
0

>  <SCORE.SYSTEM.DIHEDRAL>
0

>  <SCORE.SYSTEM.SOLV>
0

>  <SCORE.SYSTEM.norm>
0

>  <SCORE.heavy>
11

>  <SCORE.norm>
-0.583334

>  <RMSD>
22.426

$$$$
ligand
 OpenBabel11021811493D
libRbt.so/2013.1/901 2013/11/27
 11 12  0  0  0  0  0  0  0  0999 V2000
   32.5895   14.5021   19.0452 N   0  0  0  0  0  0  0  0  0  0  0  0
   32.9146   13.3595   18.4131 C   0  0  0  0  0  0  0  0  0  0  0  0
   34.0220   12.6394   18.8374 N   0  0  0  0  0  0  0  0  0  0  0  0
   32.1924   12.9003   17.3790 N   0  0  0  0  0  0  0  0  0  0  0  0
   31.1169   13.5654   16.9283 C   0  0  0  0  0  0  0  0  0  0  0  0
   30.7300   14.7707   17.5562 C   0  0  0  0  0  0  0  0  0  0  0  0
   31.5195   15.2287   18.6572 C   0  0  0  0  0  0  0  0  0  0  0  0
   31.2005   16.3913   19.3151 N   0  0  0  0  0  0  0  0  0  0  0  0
   29.6226   15.2276   16.9045 N   0  0  0  0  0  0  0  0  0  0  0  0
   29.3208   14.4043   15.9459 C   0  0  0  0  0  0  0  0  0  0  0  0
   30.2093   13.3592   15.9188 N   0  0  0  0  0  0  0  0  0  0  0  0
  1  7  2  0  0  0  0
  1  2  1  0  0  0  0
  2  3  1  0  0  0  0
  2  4  2  0  0  0  0
  4  5  1  0  0  0  0
  5  6  2  0  0  0  0
  5 11  1  0  0  0  0
  6  7  1  0  0  0  0
  6  9  1  0  0  0  0
  7  8  1  0  0  0  0
  9 10  1  0  0  0  0
 10 11  2  0  0  0  0
M  END
>  <CHROM.1>
31.42306721,14.20988446,17.73334767,0.16059079,-0.61973577,0.68578125

>  <Name>
ligand

>  <RI>
0

>  <Rbt.Current_Directory>
/home/itssahil/PROJECTS/Mol_Feturizer/New_Systems/rnas/4FEO

>  <Rbt.Executable>
rbdock ($Id: //depot/dev/client3/rdock/2013.1/src/exe/rbdock.cxx#4 $)

>  <Rbt.Library>
libRbt.so (2013.1, Build901 2013/11/27)

>  <Rbt.Parameter_File>
/export/apps/rDock/src/rDock_2013.1_src/data/scripts/dock_solv.prm

>  <Rbt.Receptor>
prm/blind_docking_80.prm

>  <SCORE>
-6.59139

>  <SCORE.INTER>
-6.59139

>  <SCORE.INTER.CONST>
1

>  <SCORE.INTER.POLAR>
0

>  <SCORE.INTER.ROT>
0

>  <SCORE.INTER.SOLV>
5.42262

>  <SCORE.INTER.VDW>
-9.8018

>  <SCORE.INTER.norm>
-0.599217

>  <SCORE.INTRA>
0

>  <SCORE.INTRA.DIHEDRAL>
0

>  <SCORE.INTRA.DIHEDRAL.0>
0

>  <SCORE.INTRA.POLAR>
0

>  <SCORE.INTRA.POLAR.0>
0

>  <SCORE.INTRA.REPUL>
0

>  <SCORE.INTRA.REPUL.0>
0

>  <SCORE.INTRA.SOLV>
0

>  <SCORE.INTRA.SOLV.lig_0>
-48.9252

>  <SCORE.INTRA.VDW>
0

>  <SCORE.INTRA.VDW.0>
0

>  <SCORE.INTRA.norm>
0

>  <SCORE.RESTR>
0

>  <SCORE.RESTR.CAVITY>
0

>  <SCORE.RESTR.norm>
0

>  <SCORE.SYSTEM>
0

>  <SCORE.SYSTEM.CONST>
0

>  <SCORE.SYSTEM.DIHEDRAL>
0

>  <SCORE.SYSTEM.SOLV>
0

>  <SCORE.SYSTEM.norm>
0

>  <SCORE.heavy>
11

>  <SCORE.norm>
-0.599217

>  <RMSD>
22.455

$$$$
ligand
 OpenBabel11021811493D
libRbt.so/2013.1/901 2013/11/27
 11 12  0  0  0  0  0  0  0  0999 V2000
   32.5042   14.7386   19.2343 N   0  0  0  0  0  0  0  0  0  0  0  0
   32.9078   13.6533   18.5488 C   0  0  0  0  0  0  0  0  0  0  0  0
   34.0545   12.9833   18.9505 N   0  0  0  0  0  0  0  0  0  0  0  0
   32.2268   13.2038   17.4830 N   0  0  0  0  0  0  0  0  0  0  0  0
   31.1157   13.8222   17.0526 C   0  0  0  0  0  0  0  0  0  0  0  0
   30.6465   14.9664   17.7362 C   0  0  0  0  0  0  0  0  0  0  0  0
   31.3941   15.4154   18.8697 C   0  0  0  0  0  0  0  0  0  0  0  0
   30.9950   16.5198   19.5820 N   0  0  0  0  0  0  0  0  0  0  0  0
   29.5189   15.3858   17.0941 N   0  0  0  0  0  0  0  0  0  0  0  0
   29.2799   14.5960   16.0905 C   0  0  0  0  0  0  0  0  0  0  0  0
   30.2334   13.6120   16.0218 N   0  0  0  0  0  0  0  0  0  0  0  0
  1  7  2  0  0  0  0
  1  2  1  0  0  0  0
  2  3  1  0  0  0  0
  2  4  2  0  0  0  0
  4  5  1  0  0  0  0
  5  6  2  0  0  0  0
  5 11  1  0  0  0  0
  6  7  1  0  0  0  0
  6  9  1  0  0  0  0
  7  8  1  0  0  0  0
  9 10  1  0  0  0  0
 10 11  2  0  0  0  0
M  END
>  <CHROM.1>
31.37207513,14.44199077,17.89366366,0.22751362,-0.58612734,0.77545775

>  <Name>
ligand

>  <RI>
0

>  <Rbt.Current_Directory>
/home/itssahil/PROJECTS/Mol_Feturizer/New_Systems/rnas/4FEO

>  <Rbt.Executable>
rbdock ($Id: //depot/dev/client3/rdock/2013.1/src/exe/rbdock.cxx#4 $)

>  <Rbt.Library>
libRbt.so (2013.1, Build901 2013/11/27)

>  <Rbt.Parameter_File>
/export/apps/rDock/src/rDock_2013.1_src/data/scripts/dock_solv.prm

>  <Rbt.Receptor>
prm/blind_docking_80.prm

>  <SCORE>
-6.73369

>  <SCORE.INTER>
-6.73369

>  <SCORE.INTER.CONST>
1

>  <SCORE.INTER.POLAR>
0

>  <SCORE.INTER.ROT>
0

>  <SCORE.INTER.SOLV>
5.20888

>  <SCORE.INTER.VDW>
-9.82542

>  <SCORE.INTER.norm>
-0.612153

>  <SCORE.INTRA>
0

>  <SCORE.INTRA.DIHEDRAL>
0

>  <SCORE.INTRA.DIHEDRAL.0>
0

>  <SCORE.INTRA.POLAR>
0

>  <SCORE.INTRA.POLAR.0>
0

>  <SCORE.INTRA.REPUL>
0

>  <SCORE.INTRA.REPUL.0>
0

>  <SCORE.INTRA.SOLV>
0

>  <SCORE.INTRA.SOLV.lig_0>
-48.9252

>  <SCORE.INTRA.VDW>
0

>  <SCORE.INTRA.VDW.0>
0

>  <SCORE.INTRA.norm>
0

>  <SCORE.RESTR>
0

>  <SCORE.RESTR.CAVITY>
0

>  <SCORE.RESTR.norm>
0

>  <SCORE.SYSTEM>
0

>  <SCORE.SYSTEM.CONST>
0

>  <SCORE.SYSTEM.DIHEDRAL>
0

>  <SCORE.SYSTEM.SOLV>
0

>  <SCORE.SYSTEM.norm>
0

>  <SCORE.heavy>
11

>  <SCORE.norm>
-0.612153

>  <RMSD>
22.503

$$$$
ligand
 OpenBabel11021811493D
libRbt.so/2013.1/901 2013/11/27
 11 12  0  0  0  0  0  0  0  0999 V2000
   32.5003   14.7321   19.2369 N   0  0  0  0  0  0  0  0  0  0  0  0
   32.9143   13.6503   18.5520 C   0  0  0  0  0  0  0  0  0  0  0  0
   34.0582   12.9818   18.9637 N   0  0  0  0  0  0  0  0  0  0  0  0
   32.2461   13.2030   17.4771 N   0  0  0  0  0  0  0  0  0  0  0  0
   31.1382   13.8202   17.0369 C   0  0  0  0  0  0  0  0  0  0  0  0
   30.6585   14.9606   17.7195 C   0  0  0  0  0  0  0  0  0  0  0  0
   31.3925   15.4073   18.8627 C   0  0  0  0  0  0  0  0  0  0  0  0
   30.9827   16.5081   19.5747 N   0  0  0  0  0  0  0  0  0  0  0  0
   29.5369   15.3795   17.0666 N   0  0  0  0  0  0  0  0  0  0  0  0
   29.3109   14.5928   16.0576 C   0  0  0  0  0  0  0  0  0  0  0  0
   30.2677   13.6115   15.9957 N   0  0  0  0  0  0  0  0  0  0  0  0
  1  7  2  0  0  0  0
  1  2  1  0  0  0  0
  2  3  1  0  0  0  0
  2  4  2  0  0  0  0
  4  5  1  0  0  0  0
  5  6  2  0  0  0  0
  5 11  1  0  0  0  0
  6  7  1  0  0  0  0
  6  9  1  0  0  0  0
  7  8  1  0  0  0  0
  9 10  1  0  0  0  0
 10 11  2  0  0  0  0
M  END
>  <CHROM.1>
31.38368569,14.43749904,17.88294601,0.23899610,-0.59207629,0.78551852

>  <Name>
ligand

>  <RI>
0

>  <Rbt.Current_Directory>
/home/itssahil/PROJECTS/Mol_Feturizer/New_Systems/rnas/4FEO

>  <Rbt.Executable>
rbdock ($Id: //depot/dev/client3/rdock/2013.1/src/exe/rbdock.cxx#4 $)

>  <Rbt.Library>
libRbt.so (2013.1, Build901 2013/11/27)

>  <Rbt.Parameter_File>
/export/apps/rDock/src/rDock_2013.1_src/data/scripts/dock_solv.prm

>  <Rbt.Receptor>
prm/blind_docking_80.prm

>  <SCORE>
-6.73814

>  <SCORE.INTER>
-6.73814

>  <SCORE.INTER.CONST>
1

>  <SCORE.INTER.POLAR>
0

>  <SCORE.INTER.ROT>
0

>  <SCORE.INTER.SOLV>
5.24289

>  <SCORE.INTER.VDW>
-9.83972

>  <SCORE.INTER.norm>
-0.612558

>  <SCORE.INTRA>
0

>  <SCORE.INTRA.DIHEDRAL>
0

>  <SCORE.INTRA.DIHEDRAL.0>
0

>  <SCORE.INTRA.POLAR>
0

>  <SCORE.INTRA.POLAR.0>
0

>  <SCORE.INTRA.REPUL>
0

>  <SCORE.INTRA.REPUL.0>
0

>  <SCORE.INTRA.SOLV>
0

>  <SCORE.INTRA.SOLV.lig_0>
-48.9252

>  <SCORE.INTRA.VDW>
0

>  <SCORE.INTRA.VDW.0>
0

>  <SCORE.INTRA.norm>
0

>  <SCORE.RESTR>
0

>  <SCORE.RESTR.CAVITY>
0

>  <SCORE.RESTR.norm>
0

>  <SCORE.SYSTEM>
0

>  <SCORE.SYSTEM.CONST>
0

>  <SCORE.SYSTEM.DIHEDRAL>
0

>  <SCORE.SYSTEM.SOLV>
0

>  <SCORE.SYSTEM.norm>
0

>  <SCORE.heavy>
11

>  <SCORE.norm>
-0.612558

>  <RMSD>
22.507

$$$$
ligand
 OpenBabel11021811493D
libRbt.so/2013.1/901 2013/11/27
 11 12  0  0  0  0  0  0  0  0999 V2000
   31.7333   18.9406    9.1097 N   0  0  0  0  0  0  0  0  0  0  0  0
   32.0867   20.1538    8.6470 C   0  0  0  0  0  0  0  0  0  0  0  0
   31.1048   21.1074    8.4204 N   0  0  0  0  0  0  0  0  0  0  0  0
   33.3690   20.4628    8.3976 N   0  0  0  0  0  0  0  0  0  0  0  0
   34.3532   19.5715    8.5950 C   0  0  0  0  0  0  0  0  0  0  0  0
   34.0383   18.2825    9.0808 C   0  0  0  0  0  0  0  0  0  0  0  0
   32.6628   17.9886    9.3395 C   0  0  0  0  0  0  0  0  0  0  0  0
   32.2849   16.7564    9.8142 N   0  0  0  0  0  0  0  0  0  0  0  0
   35.2104   17.5933    9.1852 N   0  0  0  0  0  0  0  0  0  0  0  0
   36.1901   18.3558    8.8022 C   0  0  0  0  0  0  0  0  0  0  0  0
   35.7164   19.5886    8.4307 N   0  0  0  0  0  0  0  0  0  0  0  0
  1  7  2  0  0  0  0
  1  2  1  0  0  0  0
  2  3  1  0  0  0  0
  2  4  2  0  0  0  0
  4  5  1  0  0  0  0
  5  6  2  0  0  0  0
  5 11  1  0  0  0  0
  6  7  1  0  0  0  0
  6  9  1  0  0  0  0
  7  8  1  0  0  0  0
  9 10  1  0  0  0  0
 10 11  2  0  0  0  0
M  END
>  <CHROM.1>
33.49891915,18.98965863,8.89293714,2.73254504,0.10725655,-0.33661180

>  <Name>
ligand

>  <RI>
0

>  <Rbt.Current_Directory>
/home/itssahil/PROJECTS/Mol_Feturizer/New_Systems/rnas/4FEO

>  <Rbt.Executable>
rbdock ($Id: //depot/dev/client3/rdock/2013.1/src/exe/rbdock.cxx#4 $)

>  <Rbt.Library>
libRbt.so (2013.1, Build901 2013/11/27)

>  <Rbt.Parameter_File>
/export/apps/rDock/src/rDock_2013.1_src/data/scripts/dock_solv.prm

>  <Rbt.Receptor>
prm/blind_docking_60.prm

>  <SCORE>
-7.74508

>  <SCORE.INTER>
-7.74508

>  <SCORE.INTER.CONST>
1

>  <SCORE.INTER.POLAR>
0

>  <SCORE.INTER.ROT>
0

>  <SCORE.INTER.SOLV>
6.87023

>  <SCORE.INTER.VDW>
-11.0535

>  <SCORE.INTER.norm>
-0.704098

>  <SCORE.INTRA>
0

>  <SCORE.INTRA.DIHEDRAL>
0

>  <SCORE.INTRA.DIHEDRAL.0>
0

>  <SCORE.INTRA.POLAR>
0

>  <SCORE.INTRA.POLAR.0>
0

>  <SCORE.INTRA.REPUL>
0

>  <SCORE.INTRA.REPUL.0>
0

>  <SCORE.INTRA.SOLV>
0

>  <SCORE.INTRA.SOLV.lig_0>
-48.9252

>  <SCORE.INTRA.VDW>
0

>  <SCORE.INTRA.VDW.0>
0

>  <SCORE.INTRA.norm>
0

>  <SCORE.RESTR>
0

>  <SCORE.RESTR.CAVITY>
0

>  <SCORE.RESTR.norm>
0

>  <SCORE.SYSTEM>
0

>  <SCORE.SYSTEM.CONST>
0

>  <SCORE.SYSTEM.DIHEDRAL>
0

>  <SCORE.SYSTEM.SOLV>
0

>  <SCORE.SYSTEM.norm>
0

>  <SCORE.heavy>
11

>  <SCORE.norm>
-0.704098

>  <RMSD>
23.145

$$$$
ligand
 OpenBabel11021811493D
libRbt.so/2013.1/901 2013/11/27
 11 12  0  0  0  0  0  0  0  0999 V2000
   31.7890   18.9512    9.1033 N   0  0  0  0  0  0  0  0  0  0  0  0
   32.1370   20.1629    8.6330 C   0  0  0  0  0  0  0  0  0  0  0  0
   31.1508   21.1106    8.4000 N   0  0  0  0  0  0  0  0  0  0  0  0
   33.4180   20.4763    8.3822 N   0  0  0  0  0  0  0  0  0  0  0  0
   34.4062   19.5908    8.5856 C   0  0  0  0  0  0  0  0  0  0  0  0
   34.0970   18.3035    9.0795 C   0  0  0  0  0  0  0  0  0  0  0  0
   32.7227   18.0048    9.3394 C   0  0  0  0  0  0  0  0  0  0  0  0
   32.3503   16.7740    9.8218 N   0  0  0  0  0  0  0  0  0  0  0  0
   35.2722   17.6203    9.1887 N   0  0  0  0  0  0  0  0  0  0  0  0
   36.2485   18.3849    8.8012 C   0  0  0  0  0  0  0  0  0  0  0  0
   35.7693   19.6132    8.4218 N   0  0  0  0  0  0  0  0  0  0  0  0
  1  7  2  0  0  0  0
  1  2  1  0  0  0  0
  2  3  1  0  0  0  0
  2  4  2  0  0  0  0
  4  5  1  0  0  0  0
  5  6  2  0  0  0  0
  5 11  1  0  0  0  0
  6  7  1  0  0  0  0
  6  9  1  0  0  0  0
  7  8  1  0  0  0  0
  9 10  1  0  0  0  0
 10 11  2  0  0  0  0
M  END
>  <CHROM.1>
33.55444791,19.00692862,8.88691413,2.73677374,0.10534290,-0.34337894

>  <Name>
ligand

>  <RI>
0

>  <Rbt.Current_Directory>
/home/itssahil/PROJECTS/Mol_Feturizer/New_Systems/rnas/4FEO

>  <Rbt.Executable>
rbdock ($Id: //depot/dev/client3/rdock/2013.1/src/exe/rbdock.cxx#4 $)

>  <Rbt.Library>
libRbt.so (2013.1, Build901 2013/11/27)

>  <Rbt.Parameter_File>
/export/apps/rDock/src/rDock_2013.1_src/data/scripts/dock_solv.prm

>  <Rbt.Receptor>
prm/blind_docking_80.prm

>  <SCORE>
-7.75189

>  <SCORE.INTER>
-7.75189

>  <SCORE.INTER.CONST>
1

>  <SCORE.INTER.POLAR>
0

>  <SCORE.INTER.ROT>
0

>  <SCORE.INTER.SOLV>
7.15205

>  <SCORE.INTER.VDW>
-11.1519

>  <SCORE.INTER.norm>
-0.704717

>  <SCORE.INTRA>
0

>  <SCORE.INTRA.DIHEDRAL>
0

>  <SCORE.INTRA.DIHEDRAL.0>
0

>  <SCORE.INTRA.POLAR>
0

>  <SCORE.INTRA.POLAR.0>
0

>  <SCORE.INTRA.REPUL>
0

>  <SCORE.INTRA.REPUL.0>
0

>  <SCORE.INTRA.SOLV>
0

>  <SCORE.INTRA.SOLV.lig_0>
-48.9252

>  <SCORE.INTRA.VDW>
0

>  <SCORE.INTRA.VDW.0>
0

>  <SCORE.INTRA.norm>
0

>  <SCORE.RESTR>
0

>  <SCORE.RESTR.CAVITY>
0

>  <SCORE.RESTR.norm>
0

>  <SCORE.SYSTEM>
0

>  <SCORE.SYSTEM.CONST>
0

>  <SCORE.SYSTEM.DIHEDRAL>
0

>  <SCORE.SYSTEM.SOLV>
0

>  <SCORE.SYSTEM.norm>
0

>  <SCORE.heavy>
11

>  <SCORE.norm>
-0.704717

>  <RMSD>
23.203

$$$$
ligand
 OpenBabel11021811493D
libRbt.so/2013.1/901 2013/11/27
 11 12  0  0  0  0  0  0  0  0999 V2000
   31.8104   18.9579    9.1230 N   0  0  0  0  0  0  0  0  0  0  0  0
   32.1669   20.1703    8.6605 C   0  0  0  0  0  0  0  0  0  0  0  0
   31.1876   21.1274    8.4367 N   0  0  0  0  0  0  0  0  0  0  0  0
   33.4497   20.4754    8.4090 N   0  0  0  0  0  0  0  0  0  0  0  0
   34.4314   19.5806    8.6036 C   0  0  0  0  0  0  0  0  0  0  0  0
   34.1131   18.2923    9.0890 C   0  0  0  0  0  0  0  0  0  0  0  0
   32.7372   18.0026    9.3500 C   0  0  0  0  0  0  0  0  0  0  0  0
   32.3561   16.7713    9.8244 N   0  0  0  0  0  0  0  0  0  0  0  0
   35.2832   17.5991    9.1905 N   0  0  0  0  0  0  0  0  0  0  0  0
   36.2646   18.3587    8.8062 C   0  0  0  0  0  0  0  0  0  0  0  0
   35.7942   19.5934    8.4368 N   0  0  0  0  0  0  0  0  0  0  0  0
  1  7  2  0  0  0  0
  1  2  1  0  0  0  0
  2  3  1  0  0  0  0
  2  4  2  0  0  0  0
  4  5  1  0  0  0  0
  5  6  2  0  0  0  0
  5 11  1  0  0  0  0
  6  7  1  0  0  0  0
  6  9  1  0  0  0  0
  7  8  1  0  0  0  0
  9 10  1  0  0  0  0
 10 11  2  0  0  0  0
M  END
>  <CHROM.1>
33.57572701,19.00134361,8.90275324,2.73006555,0.11017606,-0.33546179

>  <Name>
ligand

>  <RI>
0

>  <Rbt.Current_Directory>
/home/itssahil/PROJECTS/Mol_Feturizer/New_Systems/rnas/4FEO

>  <Rbt.Executable>
rbdock ($Id: //depot/dev/client3/rdock/2013.1/src/exe/rbdock.cxx#4 $)

>  <Rbt.Library>
libRbt.so (2013.1, Build901 2013/11/27)

>  <Rbt.Parameter_File>
/export/apps/rDock/src/rDock_2013.1_src/data/scripts/dock_solv.prm

>  <Rbt.Receptor>
prm/blind_docking_60.prm

>  <SCORE>
-7.76507

>  <SCORE.INTER>
-7.76507

>  <SCORE.INTER.CONST>
1

>  <SCORE.INTER.POLAR>
0

>  <SCORE.INTER.ROT>
0

>  <SCORE.INTER.SOLV>
7.33157

>  <SCORE.INTER.VDW>
-11.2206

>  <SCORE.INTER.norm>
-0.705916

>  <SCORE.INTRA>
0

>  <SCORE.INTRA.DIHEDRAL>
0

>  <SCORE.INTRA.DIHEDRAL.0>
0

>  <SCORE.INTRA.POLAR>
0

>  <SCORE.INTRA.POLAR.0>
0

>  <SCORE.INTRA.REPUL>
0

>  <SCORE.INTRA.REPUL.0>
0

>  <SCORE.INTRA.SOLV>
0

>  <SCORE.INTRA.SOLV.lig_0>
-48.9252

>  <SCORE.INTRA.VDW>
0

>  <SCORE.INTRA.VDW.0>
0

>  <SCORE.INTRA.norm>
0

>  <SCORE.RESTR>
0

>  <SCORE.RESTR.CAVITY>
0

>  <SCORE.RESTR.norm>
0

>  <SCORE.SYSTEM>
0

>  <SCORE.SYSTEM.CONST>
0

>  <SCORE.SYSTEM.DIHEDRAL>
0

>  <SCORE.SYSTEM.SOLV>
0

>  <SCORE.SYSTEM.norm>
0

>  <SCORE.heavy>
11

>  <SCORE.norm>
-0.705916

>  <RMSD>
23.222

$$$$
ligand
 OpenBabel11021811493D
libRbt.so/2013.1/901 2013/11/27
 11 12  0  0  0  0  0  0  0  0999 V2000
   31.8081   18.9642    9.0912 N   0  0  0  0  0  0  0  0  0  0  0  0
   32.1745   20.1722    8.6253 C   0  0  0  0  0  0  0  0  0  0  0  0
   31.2011   21.1299    8.3796 N   0  0  0  0  0  0  0  0  0  0  0  0
   33.4617   20.4725    8.3909 N   0  0  0  0  0  0  0  0  0  0  0  0
   34.4382   19.5770    8.6070 C   0  0  0  0  0  0  0  0  0  0  0  0
   34.1095   18.2930    9.0969 C   0  0  0  0  0  0  0  0  0  0  0  0
   32.7291   18.0084    9.3393 C   0  0  0  0  0  0  0  0  0  0  0  0
   32.3379   16.7815    9.8169 N   0  0  0  0  0  0  0  0  0  0  0  0
   35.2762   17.5978    9.2213 N   0  0  0  0  0  0  0  0  0  0  0  0
   36.2652   18.3523    8.8463 C   0  0  0  0  0  0  0  0  0  0  0  0
   35.8034   19.5854    8.4606 N   0  0  0  0  0  0  0  0  0  0  0  0
  1  7  2  0  0  0  0
  1  2  1  0  0  0  0
  2  3  1  0  0  0  0
  2  4  2  0  0  0  0
  4  5  1  0  0  0  0
  5  6  2  0  0  0  0
  5 11  1  0  0  0  0
  6  7  1  0  0  0  0
  6  9  1  0  0  0  0
  7  8  1  0  0  0  0
  9 10  1  0  0  0  0
 10 11  2  0  0  0  0
M  END
>  <CHROM.1>
33.57670661,19.00187598,8.89737506,2.72277112,0.09670200,-0.34210902

>  <Name>
ligand

>  <RI>
0

>  <Rbt.Current_Directory>
/home/itssahil/PROJECTS/Mol_Feturizer/New_Systems/rnas/4FEO

>  <Rbt.Executable>
rbdock ($Id: //depot/dev/client3/rdock/2013.1/src/exe/rbdock.cxx#4 $)

>  <Rbt.Library>
libRbt.so (2013.1, Build901 2013/11/27)

>  <Rbt.Parameter_File>
/export/apps/rDock/src/rDock_2013.1_src/data/scripts/dock_solv.prm

>  <Rbt.Receptor>
prm/blind_docking_80.prm

>  <SCORE>
-7.76477

>  <SCORE.INTER>
-7.76477

>  <SCORE.INTER.CONST>
1

>  <SCORE.INTER.POLAR>
0

>  <SCORE.INTER.ROT>
0

>  <SCORE.INTER.SOLV>
7.16454

>  <SCORE.INTER.VDW>
-11.1647

>  <SCORE.INTER.norm>
-0.705888

>  <SCORE.INTRA>
0

>  <SCORE.INTRA.DIHEDRAL>
0

>  <SCORE.INTRA.DIHEDRAL.0>
0

>  <SCORE.INTRA.POLAR>
0

>  <SCORE.INTRA.POLAR.0>
0

>  <SCORE.INTRA.REPUL>
0

>  <SCORE.INTRA.REPUL.0>
0

>  <SCORE.INTRA.SOLV>
0

>  <SCORE.INTRA.SOLV.lig_0>
-48.9252

>  <SCORE.INTRA.VDW>
0

>  <SCORE.INTRA.VDW.0>
0

>  <SCORE.INTRA.norm>
0

>  <SCORE.RESTR>
0

>  <SCORE.RESTR.CAVITY>
0

>  <SCORE.RESTR.norm>
0

>  <SCORE.SYSTEM>
0

>  <SCORE.SYSTEM.CONST>
0

>  <SCORE.SYSTEM.DIHEDRAL>
0

>  <SCORE.SYSTEM.SOLV>
0

>  <SCORE.SYSTEM.norm>
0

>  <SCORE.heavy>
11

>  <SCORE.norm>
-0.705888

>  <RMSD>
23.225

$$$$
ligand
 OpenBabel11021811493D
libRbt.so/2013.1/901 2013/11/27
 11 12  0  0  0  0  0  0  0  0999 V2000
   31.8089   18.9613    9.1027 N   0  0  0  0  0  0  0  0  0  0  0  0
   32.1611   20.1745    8.6394 C   0  0  0  0  0  0  0  0  0  0  0  0
   31.1775   21.1248    8.4057 N   0  0  0  0  0  0  0  0  0  0  0  0
   33.4438   20.4870    8.3962 N   0  0  0  0  0  0  0  0  0  0  0  0
   34.4297   19.5990    8.6006 C   0  0  0  0  0  0  0  0  0  0  0  0
   34.1160   18.3100    9.0872 C   0  0  0  0  0  0  0  0  0  0  0  0
   32.7400   18.0124    9.3392 C   0  0  0  0  0  0  0  0  0  0  0  0
   32.3633   16.7801    9.8143 N   0  0  0  0  0  0  0  0  0  0  0  0
   35.2896   17.6245    9.1992 N   0  0  0  0  0  0  0  0  0  0  0  0
   36.2690   18.3892    8.8199 C   0  0  0  0  0  0  0  0  0  0  0  0
   35.7936   19.6199    8.4435 N   0  0  0  0  0  0  0  0  0  0  0  0
  1  7  2  0  0  0  0
  1  2  1  0  0  0  0
  2  3  1  0  0  0  0
  2  4  2  0  0  0  0
  4  5  1  0  0  0  0
  5  6  2  0  0  0  0
  5 11  1  0  0  0  0
  6  7  1  0  0  0  0
  6  9  1  0  0  0  0
  7  8  1  0  0  0  0
  9 10  1  0  0  0  0
 10 11  2  0  0  0  0
M  END
>  <CHROM.1>
33.57551066,19.01516722,8.89513460,2.73363560,0.10126279,-0.33868132

>  <Name>
ligand

>  <RI>
0

>  <Rbt.Current_Directory>
/home/itssahil/PROJECTS/Mol_Feturizer/New_Systems/rnas/4FEO

>  <Rbt.Executable>
rbdock ($Id: //depot/dev/client3/rdock/2013.1/src/exe/rbdock.cxx#4 $)

>  <Rbt.Library>
libRbt.so (2013.1, Build901 2013/11/27)

>  <Rbt.Parameter_File>
/export/apps/rDock/src/rDock_2013.1_src/data/scripts/dock_solv.prm

>  <Rbt.Receptor>
prm/blind_docking_100.prm

>  <SCORE>
-7.78792

>  <SCORE.INTER>
-7.78792

>  <SCORE.INTER.CONST>
1

>  <SCORE.INTER.POLAR>
0

>  <SCORE.INTER.ROT>
0

>  <SCORE.INTER.SOLV>
7.24374

>  <SCORE.INTER.VDW>
-11.2065

>  <SCORE.INTER.norm>
-0.707992

>  <SCORE.INTRA>
0

>  <SCORE.INTRA.DIHEDRAL>
0

>  <SCORE.INTRA.DIHEDRAL.0>
0

>  <SCORE.INTRA.POLAR>
0

>  <SCORE.INTRA.POLAR.0>
0

>  <SCORE.INTRA.REPUL>
0

>  <SCORE.INTRA.REPUL.0>
0

>  <SCORE.INTRA.SOLV>
0

>  <SCORE.INTRA.SOLV.lig_0>
-48.9252

>  <SCORE.INTRA.VDW>
0

>  <SCORE.INTRA.VDW.0>
0

>  <SCORE.INTRA.norm>
0

>  <SCORE.RESTR>
0

>  <SCORE.RESTR.CAVITY>
0

>  <SCORE.RESTR.norm>
0

>  <SCORE.SYSTEM>
0

>  <SCORE.SYSTEM.CONST>
0

>  <SCORE.SYSTEM.DIHEDRAL>
0

>  <SCORE.SYSTEM.SOLV>
0

>  <SCORE.SYSTEM.norm>
0

>  <SCORE.heavy>
11

>  <SCORE.norm>
-0.707992

>  <RMSD>
23.226

$$$$
ligand
 OpenBabel11021811493D
libRbt.so/2013.1/901 2013/11/27
 11 12  0  0  0  0  0  0  0  0999 V2000
   31.8129   18.9544    9.1245 N   0  0  0  0  0  0  0  0  0  0  0  0
   32.1626   20.1688    8.6626 C   0  0  0  0  0  0  0  0  0  0  0  0
   31.1781   21.1207    8.4395 N   0  0  0  0  0  0  0  0  0  0  0  0
   33.4437   20.4810    8.4107 N   0  0  0  0  0  0  0  0  0  0  0  0
   34.4303   19.5915    8.6046 C   0  0  0  0  0  0  0  0  0  0  0  0
   34.1192   18.3012    9.0894 C   0  0  0  0  0  0  0  0  0  0  0  0
   32.7449   18.0040    9.3509 C   0  0  0  0  0  0  0  0  0  0  0  0
   32.3707   16.7704    9.8248 N   0  0  0  0  0  0  0  0  0  0  0  0
   35.2930   17.6143    9.1902 N   0  0  0  0  0  0  0  0  0  0  0  0
   36.2702   18.3794    8.8059 C   0  0  0  0  0  0  0  0  0  0  0  0
   35.7930   19.6117    8.4372 N   0  0  0  0  0  0  0  0  0  0  0  0
  1  7  2  0  0  0  0
  1  2  1  0  0  0  0
  2  3  1  0  0  0  0
  2  4  2  0  0  0  0
  4  5  1  0  0  0  0
  5  6  2  0  0  0  0
  5 11  1  0  0  0  0
  6  7  1  0  0  0  0
  6  9  1  0  0  0  0
  7  8  1  0  0  0  0
  9 10  1  0  0  0  0
 10 11  2  0  0  0  0
M  END
>  <CHROM.1>
33.57788440,19.00742266,8.90373146,2.73533403,0.10872713,-0.33558013

>  <Name>
ligand

>  <RI>
0

>  <Rbt.Current_Directory>
/home/itssahil/PROJECTS/Mol_Feturizer/New_Systems/rnas/4FEO

>  <Rbt.Executable>
rbdock ($Id: //depot/dev/client3/rdock/2013.1/src/exe/rbdock.cxx#4 $)

>  <Rbt.Library>
libRbt.so (2013.1, Build901 2013/11/27)

>  <Rbt.Parameter_File>
/export/apps/rDock/src/rDock_2013.1_src/data/scripts/dock_solv.prm

>  <Rbt.Receptor>
prm/blind_docking_60.prm

>  <SCORE>
-7.76445

>  <SCORE.INTER>
-7.76445

>  <SCORE.INTER.CONST>
1

>  <SCORE.INTER.POLAR>
0

>  <SCORE.INTER.ROT>
0

>  <SCORE.INTER.SOLV>
7.36541

>  <SCORE.INTER.VDW>
-11.2314

>  <SCORE.INTER.norm>
-0.70586

>  <SCORE.INTRA>
0

>  <SCORE.INTRA.DIHEDRAL>
0

>  <SCORE.INTRA.DIHEDRAL.0>
0

>  <SCORE.INTRA.POLAR>
0

>  <SCORE.INTRA.POLAR.0>
0

>  <SCORE.INTRA.REPUL>
0

>  <SCORE.INTRA.REPUL.0>
0

>  <SCORE.INTRA.SOLV>
0

>  <SCORE.INTRA.SOLV.lig_0>
-48.9252

>  <SCORE.INTRA.VDW>
0

>  <SCORE.INTRA.VDW.0>
0

>  <SCORE.INTRA.norm>
0

>  <SCORE.RESTR>
0

>  <SCORE.RESTR.CAVITY>
0

>  <SCORE.RESTR.norm>
0

>  <SCORE.SYSTEM>
0

>  <SCORE.SYSTEM.CONST>
0

>  <SCORE.SYSTEM.DIHEDRAL>
0

>  <SCORE.SYSTEM.SOLV>
0

>  <SCORE.SYSTEM.norm>
0

>  <SCORE.heavy>
11

>  <SCORE.norm>
-0.70586

>  <RMSD>
23.226

$$$$
ligand
 OpenBabel11021811493D
libRbt.so/2013.1/901 2013/11/27
 11 12  0  0  0  0  0  0  0  0999 V2000
   31.8077   18.9717    9.0879 N   0  0  0  0  0  0  0  0  0  0  0  0
   32.1644   20.1834    8.6240 C   0  0  0  0  0  0  0  0  0  0  0  0
   31.1840   21.1360    8.3867 N   0  0  0  0  0  0  0  0  0  0  0  0
   33.4485   20.4921    8.3838 N   0  0  0  0  0  0  0  0  0  0  0  0
   34.4314   19.6017    8.5918 C   0  0  0  0  0  0  0  0  0  0  0  0
   34.1130   18.3142    9.0792 C   0  0  0  0  0  0  0  0  0  0  0  0
   32.7356   18.0206    9.3280 C   0  0  0  0  0  0  0  0  0  0  0  0
   32.3543   16.7899    9.8036 N   0  0  0  0  0  0  0  0  0  0  0  0
   35.2845   17.6257    9.1951 N   0  0  0  0  0  0  0  0  0  0  0  0
   36.2669   18.3872    8.8173 C   0  0  0  0  0  0  0  0  0  0  0  0
   35.7958   19.6188    8.4382 N   0  0  0  0  0  0  0  0  0  0  0  0
  1  7  2  0  0  0  0
  1  2  1  0  0  0  0
  2  3  1  0  0  0  0
  2  4  2  0  0  0  0
  4  5  1  0  0  0  0
  5  6  2  0  0  0  0
  5 11  1  0  0  0  0
  6  7  1  0  0  0  0
  6  9  1  0  0  0  0
  7  8  1  0  0  0  0
  9 10  1  0  0  0  0
 10 11  2  0  0  0  0
M  END
>  <CHROM.1>
33.57493594,19.02056542,8.88484109,2.73021197,0.09972576,-0.33955539

>  <Name>
ligand

>  <RI>
0

>  <Rbt.Current_Directory>
/home/itssahil/PROJECTS/Mol_Feturizer/New_Systems/rnas/4FEO

>  <Rbt.Executable>
rbdock ($Id: //depot/dev/client3/rdock/2013.1/src/exe/rbdock.cxx#4 $)

>  <Rbt.Library>
libRbt.so (2013.1, Build901 2013/11/27)

>  <Rbt.Parameter_File>
/export/apps/rDock/src/rDock_2013.1_src/data/scripts/dock_solv.prm

>  <Rbt.Receptor>
prm/blind_docking_80.prm

>  <SCORE>
-7.7857

>  <SCORE.INTER>
-7.7857

>  <SCORE.INTER.CONST>
1

>  <SCORE.INTER.POLAR>
0

>  <SCORE.INTER.ROT>
0

>  <SCORE.INTER.SOLV>
7.18689

>  <SCORE.INTER.VDW>
-11.1861

>  <SCORE.INTER.norm>
-0.707791

>  <SCORE.INTRA>
0

>  <SCORE.INTRA.DIHEDRAL>
0

>  <SCORE.INTRA.DIHEDRAL.0>
0

>  <SCORE.INTRA.POLAR>
0

>  <SCORE.INTRA.POLAR.0>
0

>  <SCORE.INTRA.REPUL>
0

>  <SCORE.INTRA.REPUL.0>
0

>  <SCORE.INTRA.SOLV>
0

>  <SCORE.INTRA.SOLV.lig_0>
-48.9252

>  <SCORE.INTRA.VDW>
0

>  <SCORE.INTRA.VDW.0>
0

>  <SCORE.INTRA.norm>
0

>  <SCORE.RESTR>
0

>  <SCORE.RESTR.CAVITY>
0

>  <SCORE.RESTR.norm>
0

>  <SCORE.SYSTEM>
0

>  <SCORE.SYSTEM.CONST>
0

>  <SCORE.SYSTEM.DIHEDRAL>
0

>  <SCORE.SYSTEM.SOLV>
0

>  <SCORE.SYSTEM.norm>
0

>  <SCORE.heavy>
11

>  <SCORE.norm>
-0.707791

>  <RMSD>
23.227

$$$$
ligand
 OpenBabel11021811493D
libRbt.so/2013.1/901 2013/11/27
 11 12  0  0  0  0  0  0  0  0999 V2000
   32.0051   18.2244    9.1350 N   0  0  0  0  0  0  0  0  0  0  0  0
   32.5667   17.0428    9.4497 C   0  0  0  0  0  0  0  0  0  0  0  0
   31.7533   15.9773    9.8074 N   0  0  0  0  0  0  0  0  0  0  0  0
   33.8979   16.8710    9.4270 N   0  0  0  0  0  0  0  0  0  0  0  0
   34.7258   17.8738    9.0939 C   0  0  0  0  0  0  0  0  0  0  0  0
   34.1893   19.1359    8.7535 C   0  0  0  0  0  0  0  0  0  0  0  0
   32.7670   19.2826    8.7843 C   0  0  0  0  0  0  0  0  0  0  0  0
   32.1771   20.4808    8.4637 N   0  0  0  0  0  0  0  0  0  0  0  0
   35.2397   19.9558    8.4632 N   0  0  0  0  0  0  0  0  0  0  0  0
   36.3493   19.2949    8.6042 C   0  0  0  0  0  0  0  0  0  0  0  0
   36.0887   18.0040    8.9890 N   0  0  0  0  0  0  0  0  0  0  0  0
  1  7  2  0  0  0  0
  1  2  1  0  0  0  0
  2  3  1  0  0  0  0
  2  4  2  0  0  0  0
  4  5  1  0  0  0  0
  5  6  2  0  0  0  0
  5 11  1  0  0  0  0
  6  7  1  0  0  0  0
  6  9  1  0  0  0  0
  7  8  1  0  0  0  0
  9 10  1  0  0  0  0
 10 11  2  0  0  0  0
M  END
>  <CHROM.1>
33.77396481,18.36631912,9.00151424,2.56853010,-0.04893587,2.85724204

>  <Name>
ligand

>  <RI>
0

>  <Rbt.Current_Directory>
/home/itssahil/PROJECTS/Mol_Feturizer/New_Systems/rnas/4FEO

>  <Rbt.Executable>
rbdock ($Id: //depot/dev/client3/rdock/2013.1/src/exe/rbdock.cxx#4 $)

>  <Rbt.Library>
libRbt.so (2013.1, Build901 2013/11/27)

>  <Rbt.Parameter_File>
/export/apps/rDock/src/rDock_2013.1_src/data/scripts/dock_solv.prm

>  <Rbt.Receptor>
prm/blind_docking_60.prm

>  <SCORE>
-7.78871

>  <SCORE.INTER>
-7.78871

>  <SCORE.INTER.CONST>
1

>  <SCORE.INTER.POLAR>
0

>  <SCORE.INTER.ROT>
0

>  <SCORE.INTER.SOLV>
7.59067

>  <SCORE.INTER.VDW>
-11.3227

>  <SCORE.INTER.norm>
-0.708065

>  <SCORE.INTRA>
0

>  <SCORE.INTRA.DIHEDRAL>
0

>  <SCORE.INTRA.DIHEDRAL.0>
0

>  <SCORE.INTRA.POLAR>
0

>  <SCORE.INTRA.POLAR.0>
0

>  <SCORE.INTRA.REPUL>
0

>  <SCORE.INTRA.REPUL.0>
0

>  <SCORE.INTRA.SOLV>
0

>  <SCORE.INTRA.SOLV.lig_0>
-48.9252

>  <SCORE.INTRA.VDW>
0

>  <SCORE.INTRA.VDW.0>
0

>  <SCORE.INTRA.norm>
0

>  <SCORE.RESTR>
0

>  <SCORE.RESTR.CAVITY>
0

>  <SCORE.RESTR.norm>
0

>  <SCORE.SYSTEM>
0

>  <SCORE.SYSTEM.CONST>
0

>  <SCORE.SYSTEM.DIHEDRAL>
0

>  <SCORE.SYSTEM.SOLV>
0

>  <SCORE.SYSTEM.norm>
0

>  <SCORE.heavy>
11

>  <SCORE.norm>
-0.708065

>  <RMSD>
23.333

$$$$
ligand
 OpenBabel11021811493D
libRbt.so/2013.1/901 2013/11/27
 11 12  0  0  0  0  0  0  0  0999 V2000
   32.0243   18.1759    9.0958 N   0  0  0  0  0  0  0  0  0  0  0  0
   32.6083   17.0110    9.4317 C   0  0  0  0  0  0  0  0  0  0  0  0
   31.8141   15.9280    9.7799 N   0  0  0  0  0  0  0  0  0  0  0  0
   33.9435   16.8726    9.4391 N   0  0  0  0  0  0  0  0  0  0  0  0
   34.7532   17.8935    9.1163 C   0  0  0  0  0  0  0  0  0  0  0  0
   34.1928   19.1392    8.7547 C   0  0  0  0  0  0  0  0  0  0  0  0
   32.7670   19.2503    8.7536 C   0  0  0  0  0  0  0  0  0  0  0  0
   32.1545   20.4310    8.4112 N   0  0  0  0  0  0  0  0  0  0  0  0
   35.2285   19.9832    8.4810 N   0  0  0  0  0  0  0  0  0  0  0  0
   36.3510   19.3514    8.6510 C   0  0  0  0  0  0  0  0  0  0  0  0
   36.1144   18.0572    9.0399 N   0  0  0  0  0  0  0  0  0  0  0  0
  1  7  2  0  0  0  0
  1  2  1  0  0  0  0
  2  3  1  0  0  0  0
  2  4  2  0  0  0  0
  4  5  1  0  0  0  0
  5  6  2  0  0  0  0
  5 11  1  0  0  0  0
  6  7  1  0  0  0  0
  6  9  1  0  0  0  0
  7  8  1  0  0  0  0
  9 10  1  0  0  0  0
 10 11  2  0  0  0  0
M  END
>  <CHROM.1>
33.79159322,18.36124567,8.99959830,2.55066361,-0.02097323,2.84920778

>  <Name>
ligand

>  <RI>
0

>  <Rbt.Current_Directory>
/home/itssahil/PROJECTS/Mol_Feturizer/New_Systems/rnas/4FEO

>  <Rbt.Executable>
rbdock ($Id: //depot/dev/client3/rdock/2013.1/src/exe/rbdock.cxx#4 $)

>  <Rbt.Library>
libRbt.so (2013.1, Build901 2013/11/27)

>  <Rbt.Parameter_File>
/export/apps/rDock/src/rDock_2013.1_src/data/scripts/dock_solv.prm

>  <Rbt.Receptor>
prm/blind_docking_60.prm

>  <SCORE>
-7.78108

>  <SCORE.INTER>
-7.78108

>  <SCORE.INTER.CONST>
1

>  <SCORE.INTER.POLAR>
0

>  <SCORE.INTER.ROT>
0

>  <SCORE.INTER.SOLV>
7.58356

>  <SCORE.INTER.VDW>
-11.3152

>  <SCORE.INTER.norm>
-0.707371

>  <SCORE.INTRA>
0

>  <SCORE.INTRA.DIHEDRAL>
0

>  <SCORE.INTRA.DIHEDRAL.0>
0

>  <SCORE.INTRA.POLAR>
0

>  <SCORE.INTRA.POLAR.0>
0

>  <SCORE.INTRA.REPUL>
0

>  <SCORE.INTRA.REPUL.0>
0

>  <SCORE.INTRA.SOLV>
0

>  <SCORE.INTRA.SOLV.lig_0>
-48.9252

>  <SCORE.INTRA.VDW>
0

>  <SCORE.INTRA.VDW.0>
0

>  <SCORE.INTRA.norm>
0

>  <SCORE.RESTR>
0

>  <SCORE.RESTR.CAVITY>
0

>  <SCORE.RESTR.norm>
0

>  <SCORE.SYSTEM>
0

>  <SCORE.SYSTEM.CONST>
0

>  <SCORE.SYSTEM.DIHEDRAL>
0

>  <SCORE.SYSTEM.SOLV>
0

>  <SCORE.SYSTEM.norm>
0

>  <SCORE.heavy>
11

>  <SCORE.norm>
-0.707371

>  <RMSD>
23.349

$$$$
ligand
 OpenBabel11021811493D
libRbt.so/2013.1/901 2013/11/27
 11 12  0  0  0  0  0  0  0  0999 V2000
   32.0527   18.2032    9.0206 N   0  0  0  0  0  0  0  0  0  0  0  0
   32.6185   17.0237    9.3358 C   0  0  0  0  0  0  0  0  0  0  0  0
   31.8070   15.9388    9.6352 N   0  0  0  0  0  0  0  0  0  0  0  0
   33.9519   16.8723    9.3689 N   0  0  0  0  0  0  0  0  0  0  0  0
   34.7778   17.8941    9.0935 C   0  0  0  0  0  0  0  0  0  0  0  0
   34.2368   19.1550    8.7554 C   0  0  0  0  0  0  0  0  0  0  0  0
   32.8125   19.2797    8.7259 C   0  0  0  0  0  0  0  0  0  0  0  0
   32.2184   20.4755    8.4039 N   0  0  0  0  0  0  0  0  0  0  0  0
   35.2859   19.9964    8.5290 N   0  0  0  0  0  0  0  0  0  0  0  0
   36.3986   19.3493    8.7056 C   0  0  0  0  0  0  0  0  0  0  0  0
   36.1417   18.0469    9.0520 N   0  0  0  0  0  0  0  0  0  0  0  0
  1  7  2  0  0  0  0
  1  2  1  0  0  0  0
  2  3  1  0  0  0  0
  2  4  2  0  0  0  0
  4  5  1  0  0  0  0
  5  6  2  0  0  0  0
  5 11  1  0  0  0  0
  6  7  1  0  0  0  0
  6  9  1  0  0  0  0
  7  8  1  0  0  0  0
  9 10  1  0  0  0  0
 10 11  2  0  0  0  0
M  END
>  <CHROM.1>
33.82324076,18.37423690,8.96893404,2.56571274,-0.00207798,2.87793948

>  <Name>
ligand

>  <RI>
0

>  <Rbt.Current_Directory>
/home/itssahil/PROJECTS/Mol_Feturizer/New_Systems/rnas/4FEO

>  <Rbt.Executable>
rbdock ($Id: //depot/dev/client3/rdock/2013.1/src/exe/rbdock.cxx#4 $)

>  <Rbt.Library>
libRbt.so (2013.1, Build901 2013/11/27)

>  <Rbt.Parameter_File>
/export/apps/rDock/src/rDock_2013.1_src/data/scripts/dock_solv.prm

>  <Rbt.Receptor>
prm/blind_docking_60.prm

>  <SCORE>
-7.7394

>  <SCORE.INTER>
-7.7394

>  <SCORE.INTER.CONST>
1

>  <SCORE.INTER.POLAR>
0

>  <SCORE.INTER.ROT>
0

>  <SCORE.INTER.SOLV>
7.6133

>  <SCORE.INTER.VDW>
-11.2974

>  <SCORE.INTER.norm>
-0.703582

>  <SCORE.INTRA>
0

>  <SCORE.INTRA.DIHEDRAL>
0

>  <SCORE.INTRA.DIHEDRAL.0>
0

>  <SCORE.INTRA.POLAR>
0

>  <SCORE.INTRA.POLAR.0>
0

>  <SCORE.INTRA.REPUL>
0

>  <SCORE.INTRA.REPUL.0>
0

>  <SCORE.INTRA.SOLV>
0

>  <SCORE.INTRA.SOLV.lig_0>
-48.9252

>  <SCORE.INTRA.VDW>
0

>  <SCORE.INTRA.VDW.0>
0

>  <SCORE.INTRA.norm>
0

>  <SCORE.RESTR>
0

>  <SCORE.RESTR.CAVITY>
0

>  <SCORE.RESTR.norm>
0

>  <SCORE.SYSTEM>
0

>  <SCORE.SYSTEM.CONST>
0

>  <SCORE.SYSTEM.DIHEDRAL>
0

>  <SCORE.SYSTEM.SOLV>
0

>  <SCORE.SYSTEM.norm>
0

>  <SCORE.heavy>
11

>  <SCORE.norm>
-0.703582

>  <RMSD>
23.386

$$$$
ligand
 OpenBabel11021811493D
libRbt.so/2013.1/901 2013/11/27
 11 12  0  0  0  0  0  0  0  0999 V2000
   32.0600   18.2515    9.0580 N   0  0  0  0  0  0  0  0  0  0  0  0
   32.6350   17.0872    9.4108 C   0  0  0  0  0  0  0  0  0  0  0  0
   31.8322   16.0119    9.7631 N   0  0  0  0  0  0  0  0  0  0  0  0
   33.9694   16.9421    9.4313 N   0  0  0  0  0  0  0  0  0  0  0  0
   34.7871   17.9554    9.1051 C   0  0  0  0  0  0  0  0  0  0  0  0
   34.2363   19.2003    8.7259 C   0  0  0  0  0  0  0  0  0  0  0  0
   32.8112   19.3186    8.7112 C   0  0  0  0  0  0  0  0  0  0  0  0
   32.2078   20.4988    8.3514 N   0  0  0  0  0  0  0  0  0  0  0  0
   35.2787   20.0361    8.4526 N   0  0  0  0  0  0  0  0  0  0  0  0
   36.3964   19.4004    8.6388 C   0  0  0  0  0  0  0  0  0  0  0  0
   36.1497   18.1114    9.0389 N   0  0  0  0  0  0  0  0  0  0  0  0
  1  7  2  0  0  0  0
  1  2  1  0  0  0  0
  2  3  1  0  0  0  0
  2  4  2  0  0  0  0
  4  5  1  0  0  0  0
  5  6  2  0  0  0  0
  5 11  1  0  0  0  0
  6  7  1  0  0  0  0
  6  9  1  0  0  0  0
  7  8  1  0  0  0  0
  9 10  1  0  0  0  0
 10 11  2  0  0  0  0
M  END
>  <CHROM.1>
33.82896186,18.42689800,8.97523739,2.55812986,-0.01417146,2.83907633

>  <Name>
ligand

>  <RI>
0

>  <Rbt.Current_Directory>
/home/itssahil/PROJECTS/Mol_Feturizer/New_Systems/rnas/4FEO

>  <Rbt.Executable>
rbdock ($Id: //depot/dev/client3/rdock/2013.1/src/exe/rbdock.cxx#4 $)

>  <Rbt.Library>
libRbt.so (2013.1, Build901 2013/11/27)

>  <Rbt.Parameter_File>
/export/apps/rDock/src/rDock_2013.1_src/data/scripts/dock_solv.prm

>  <Rbt.Receptor>
prm/blind_docking_100.prm

>  <SCORE>
-7.80538

>  <SCORE.INTER>
-7.80538

>  <SCORE.INTER.CONST>
1

>  <SCORE.INTER.POLAR>
0

>  <SCORE.INTER.ROT>
0

>  <SCORE.INTER.SOLV>
7.79186

>  <SCORE.INTER.VDW>
-11.4009

>  <SCORE.INTER.norm>
-0.70958

>  <SCORE.INTRA>
0

>  <SCORE.INTRA.DIHEDRAL>
0

>  <SCORE.INTRA.DIHEDRAL.0>
0

>  <SCORE.INTRA.POLAR>
0

>  <SCORE.INTRA.POLAR.0>
0

>  <SCORE.INTRA.REPUL>
0

>  <SCORE.INTRA.REPUL.0>
0

>  <SCORE.INTRA.SOLV>
0

>  <SCORE.INTRA.SOLV.lig_0>
-48.9252

>  <SCORE.INTRA.VDW>
0

>  <SCORE.INTRA.VDW.0>
0

>  <SCORE.INTRA.norm>
0

>  <SCORE.RESTR>
0

>  <SCORE.RESTR.CAVITY>
0

>  <SCORE.RESTR.norm>
0

>  <SCORE.SYSTEM>
0

>  <SCORE.SYSTEM.CONST>
0

>  <SCORE.SYSTEM.DIHEDRAL>
0

>  <SCORE.SYSTEM.SOLV>
0

>  <SCORE.SYSTEM.norm>
0

>  <SCORE.heavy>
11

>  <SCORE.norm>
-0.70958

>  <RMSD>
23.401

$$$$
ligand
 OpenBabel11021811493D
libRbt.so/2013.1/901 2013/11/27
 11 12  0  0  0  0  0  0  0  0999 V2000
   32.0635   18.2478    9.0786 N   0  0  0  0  0  0  0  0  0  0  0  0
   32.6331   17.0804    9.4302 C   0  0  0  0  0  0  0  0  0  0  0  0
   31.8255   16.0102    9.7872 N   0  0  0  0  0  0  0  0  0  0  0  0
   33.9666   16.9274    9.4450 N   0  0  0  0  0  0  0  0  0  0  0  0
   34.7890   17.9356    9.1141 C   0  0  0  0  0  0  0  0  0  0  0  0
   34.2439   19.1832    8.7360 C   0  0  0  0  0  0  0  0  0  0  0  0
   32.8194   19.3100    8.7274 C   0  0  0  0  0  0  0  0  0  0  0  0
   32.2215   20.4934    8.3689 N   0  0  0  0  0  0  0  0  0  0  0  0
   35.2900   20.0126    8.4572 N   0  0  0  0  0  0  0  0  0  0  0  0
   36.4047   19.3704    8.6392 C   0  0  0  0  0  0  0  0  0  0  0  0
   36.1522   18.0834    9.0418 N   0  0  0  0  0  0  0  0  0  0  0  0
  1  7  2  0  0  0  0
  1  2  1  0  0  0  0
  2  3  1  0  0  0  0
  2  4  2  0  0  0  0
  4  5  1  0  0  0  0
  5  6  2  0  0  0  0
  5 11  1  0  0  0  0
  6  7  1  0  0  0  0
  6  9  1  0  0  0  0
  7  8  1  0  0  0  0
  9 10  1  0  0  0  0
 10 11  2  0  0  0  0
M  END
>  <CHROM.1>
33.83305436,18.41253864,8.98793307,2.56248111,-0.02012024,2.83806492

>  <Name>
ligand

>  <RI>
0

>  <Rbt.Current_Directory>
/home/itssahil/PROJECTS/Mol_Feturizer/New_Systems/rnas/4FEO

>  <Rbt.Executable>
rbdock ($Id: //depot/dev/client3/rdock/2013.1/src/exe/rbdock.cxx#4 $)

>  <Rbt.Library>
libRbt.so (2013.1, Build901 2013/11/27)

>  <Rbt.Parameter_File>
/export/apps/rDock/src/rDock_2013.1_src/data/scripts/dock_solv.prm

>  <Rbt.Receptor>
prm/blind_docking_80.prm

>  <SCORE>
-7.77703

>  <SCORE.INTER>
-7.77703

>  <SCORE.INTER.CONST>
1

>  <SCORE.INTER.POLAR>
0

>  <SCORE.INTER.ROT>
0

>  <SCORE.INTER.SOLV>
7.82736

>  <SCORE.INTER.VDW>
-11.3938

>  <SCORE.INTER.norm>
-0.707003

>  <SCORE.INTRA>
0

>  <SCORE.INTRA.DIHEDRAL>
0

>  <SCORE.INTRA.DIHEDRAL.0>
0

>  <SCORE.INTRA.POLAR>
0

>  <SCORE.INTRA.POLAR.0>
0

>  <SCORE.INTRA.REPUL>
0

>  <SCORE.INTRA.REPUL.0>
0

>  <SCORE.INTRA.SOLV>
0

>  <SCORE.INTRA.SOLV.lig_0>
-48.9252

>  <SCORE.INTRA.VDW>
0

>  <SCORE.INTRA.VDW.0>
0

>  <SCORE.INTRA.norm>
0

>  <SCORE.RESTR>
0

>  <SCORE.RESTR.CAVITY>
0

>  <SCORE.RESTR.norm>
0

>  <SCORE.SYSTEM>
0

>  <SCORE.SYSTEM.CONST>
0

>  <SCORE.SYSTEM.DIHEDRAL>
0

>  <SCORE.SYSTEM.SOLV>
0

>  <SCORE.SYSTEM.norm>
0

>  <SCORE.heavy>
11

>  <SCORE.norm>
-0.707003

>  <RMSD>
23.401

$$$$
ligand
 OpenBabel11021811493D
libRbt.so/2013.1/901 2013/11/27
 11 12  0  0  0  0  0  0  0  0999 V2000
   32.0606   18.2550    9.0577 N   0  0  0  0  0  0  0  0  0  0  0  0
   32.6344   17.0910    9.4134 C   0  0  0  0  0  0  0  0  0  0  0  0
   31.8304   16.0170    9.7674 N   0  0  0  0  0  0  0  0  0  0  0  0
   33.9686   16.9447    9.4353 N   0  0  0  0  0  0  0  0  0  0  0  0
   34.7874   17.9568    9.1076 C   0  0  0  0  0  0  0  0  0  0  0  0
   34.2380   19.2012    8.7254 C   0  0  0  0  0  0  0  0  0  0  0  0
   32.8129   19.3207    8.7093 C   0  0  0  0  0  0  0  0  0  0  0  0
   32.2108   20.5006    8.3465 N   0  0  0  0  0  0  0  0  0  0  0  0
   35.2813   20.0356    8.4511 N   0  0  0  0  0  0  0  0  0  0  0  0
   36.3982   19.3994    8.6396 C   0  0  0  0  0  0  0  0  0  0  0  0
   36.1502   18.1115    9.0422 N   0  0  0  0  0  0  0  0  0  0  0  0
  1  7  2  0  0  0  0
  1  2  1  0  0  0  0
  2  3  1  0  0  0  0
  2  4  2  0  0  0  0
  4  5  1  0  0  0  0
  5  6  2  0  0  0  0
  5 11  1  0  0  0  0
  6  7  1  0  0  0  0
  6  9  1  0  0  0  0
  7  8  1  0  0  0  0
  9 10  1  0  0  0  0
 10 11  2  0  0  0  0
M  END
>  <CHROM.1>
33.82976020,18.42871680,8.97600541,2.55915087,-0.01365957,2.83698367

>  <Name>
ligand

>  <RI>
0

>  <Rbt.Current_Directory>
/home/itssahil/PROJECTS/Mol_Feturizer/New_Systems/rnas/4FEO

>  <Rbt.Executable>
rbdock ($Id: //depot/dev/client3/rdock/2013.1/src/exe/rbdock.cxx#4 $)

>  <Rbt.Library>
libRbt.so (2013.1, Build901 2013/11/27)

>  <Rbt.Parameter_File>
/export/apps/rDock/src/rDock_2013.1_src/data/scripts/dock_solv.prm

>  <Rbt.Receptor>
prm/blind_docking_80.prm

>  <SCORE>
-7.79874

>  <SCORE.INTER>
-7.79874

>  <SCORE.INTER.CONST>
1

>  <SCORE.INTER.POLAR>
0

>  <SCORE.INTER.ROT>
0

>  <SCORE.INTER.SOLV>
7.80343

>  <SCORE.INTER.VDW>
-11.4003

>  <SCORE.INTER.norm>
-0.708977

>  <SCORE.INTRA>
0

>  <SCORE.INTRA.DIHEDRAL>
0

>  <SCORE.INTRA.DIHEDRAL.0>
0

>  <SCORE.INTRA.POLAR>
0

>  <SCORE.INTRA.POLAR.0>
0

>  <SCORE.INTRA.REPUL>
0

>  <SCORE.INTRA.REPUL.0>
0

>  <SCORE.INTRA.SOLV>
0

>  <SCORE.INTRA.SOLV.lig_0>
-48.9252

>  <SCORE.INTRA.VDW>
0

>  <SCORE.INTRA.VDW.0>
0

>  <SCORE.INTRA.norm>
0

>  <SCORE.RESTR>
0

>  <SCORE.RESTR.CAVITY>
0

>  <SCORE.RESTR.norm>
0

>  <SCORE.SYSTEM>
0

>  <SCORE.SYSTEM.CONST>
0

>  <SCORE.SYSTEM.DIHEDRAL>
0

>  <SCORE.SYSTEM.SOLV>
0

>  <SCORE.SYSTEM.norm>
0

>  <SCORE.heavy>
11

>  <SCORE.norm>
-0.708977

>  <RMSD>
23.402

$$$$
ligand
 OpenBabel11021811493D
libRbt.so/2013.1/901 2013/11/27
 11 12  0  0  0  0  0  0  0  0999 V2000
   34.1996   12.7605   19.4949 N   0  0  0  0  0  0  0  0  0  0  0  0
   33.0732   12.6269   20.2189 C   0  0  0  0  0  0  0  0  0  0  0  0
   32.9594   13.2964   21.4288 N   0  0  0  0  0  0  0  0  0  0  0  0
   32.0561   11.8587   19.7979 N   0  0  0  0  0  0  0  0  0  0  0  0
   32.1223   11.1866   18.6377 C   0  0  0  0  0  0  0  0  0  0  0  0
   33.2820   11.2919   17.8372 C   0  0  0  0  0  0  0  0  0  0  0  0
   34.3445   12.1219   18.3141 C   0  0  0  0  0  0  0  0  0  0  0  0
   35.5000   12.2712   17.5868 N   0  0  0  0  0  0  0  0  0  0  0  0
   33.0817   10.5168   16.7331 N   0  0  0  0  0  0  0  0  0  0  0  0
   31.9105    9.9597   16.8089 C   0  0  0  0  0  0  0  0  0  0  0  0
   31.2753   10.3423   17.9632 N   0  0  0  0  0  0  0  0  0  0  0  0
  1  7  2  0  0  0  0
  1  2  1  0  0  0  0
  2  3  1  0  0  0  0
  2  4  2  0  0  0  0
  4  5  1  0  0  0  0
  5  6  2  0  0  0  0
  5 11  1  0  0  0  0
  6  7  1  0  0  0  0
  6  9  1  0  0  0  0
  7  8  1  0  0  0  0
  9 10  1  0  0  0  0
 10 11  2  0  0  0  0
M  END
>  <CHROM.1>
33.08192618,11.67278243,18.63792640,-1.29169195,-0.41149651,-2.11569276

>  <Name>
ligand

>  <RI>
0

>  <Rbt.Current_Directory>
/home/itssahil/PROJECTS/Mol_Feturizer/New_Systems/rnas/4FEO

>  <Rbt.Executable>
rbdock ($Id: //depot/dev/client3/rdock/2013.1/src/exe/rbdock.cxx#4 $)

>  <Rbt.Library>
libRbt.so (2013.1, Build901 2013/11/27)

>  <Rbt.Parameter_File>
/export/apps/rDock/src/rDock_2013.1_src/data/scripts/dock_solv.prm

>  <Rbt.Receptor>
prm/blind_docking_60.prm

>  <SCORE>
-5.59155

>  <SCORE.INTER>
-5.59155

>  <SCORE.INTER.CONST>
1

>  <SCORE.INTER.POLAR>
0

>  <SCORE.INTER.ROT>
0

>  <SCORE.INTER.SOLV>
4.22186

>  <SCORE.INTER.VDW>
-8.73498

>  <SCORE.INTER.norm>
-0.508322

>  <SCORE.INTRA>
0

>  <SCORE.INTRA.DIHEDRAL>
0

>  <SCORE.INTRA.DIHEDRAL.0>
0

>  <SCORE.INTRA.POLAR>
0

>  <SCORE.INTRA.POLAR.0>
0

>  <SCORE.INTRA.REPUL>
0

>  <SCORE.INTRA.REPUL.0>
0

>  <SCORE.INTRA.SOLV>
0

>  <SCORE.INTRA.SOLV.lig_0>
-48.9252

>  <SCORE.INTRA.VDW>
0

>  <SCORE.INTRA.VDW.0>
0

>  <SCORE.INTRA.norm>
0

>  <SCORE.RESTR>
0

>  <SCORE.RESTR.CAVITY>
0

>  <SCORE.RESTR.norm>
0

>  <SCORE.SYSTEM>
0

>  <SCORE.SYSTEM.CONST>
0

>  <SCORE.SYSTEM.DIHEDRAL>
0

>  <SCORE.SYSTEM.SOLV>
0

>  <SCORE.SYSTEM.norm>
0

>  <SCORE.heavy>
11

>  <SCORE.norm>
-0.508322

>  <RMSD>
24.165

$$$$
ligand
 OpenBabel11021811493D
libRbt.so/2013.1/901 2013/11/27
 11 12  0  0  0  0  0  0  0  0999 V2000
   34.5213   11.6226   19.6922 N   0  0  0  0  0  0  0  0  0  0  0  0
   33.3778   11.7305   20.3933 C   0  0  0  0  0  0  0  0  0  0  0  0
   33.4338   12.0710   21.7371 N   0  0  0  0  0  0  0  0  0  0  0  0
   32.1822   11.5146   19.8223 N   0  0  0  0  0  0  0  0  0  0  0  0
   32.0777   11.1766   18.5273 C   0  0  0  0  0  0  0  0  0  0  0  0
   33.2469   11.0503   17.7440 C   0  0  0  0  0  0  0  0  0  0  0  0
   34.5033   11.2912   18.3834 C   0  0  0  0  0  0  0  0  0  0  0  0
   35.6798   11.1878   17.6822 N   0  0  0  0  0  0  0  0  0  0  0  0
   32.8537   10.7024   16.4854 N   0  0  0  0  0  0  0  0  0  0  0  0
   31.5583   10.6080   16.4532 C   0  0  0  0  0  0  0  0  0  0  0  0
   31.0296   10.8938   17.6865 N   0  0  0  0  0  0  0  0  0  0  0  0
  1  7  2  0  0  0  0
  1  2  1  0  0  0  0
  2  3  1  0  0  0  0
  2  4  2  0  0  0  0
  4  5  1  0  0  0  0
  5  6  2  0  0  0  0
  5 11  1  0  0  0  0
  6  7  1  0  0  0  0
  6  9  1  0  0  0  0
  7  8  1  0  0  0  0
  9 10  1  0  0  0  0
 10 11  2  0  0  0  0
M  END
>  <CHROM.1>
33.14561245,11.26505591,18.62143257,-1.16033018,-0.06122749,-1.81976792

>  <Name>
ligand

>  <RI>
0

>  <Rbt.Current_Directory>
/home/itssahil/PROJECTS/Mol_Feturizer/New_Systems/rnas/4FEO

>  <Rbt.Executable>
rbdock ($Id: //depot/dev/client3/rdock/2013.1/src/exe/rbdock.cxx#4 $)

>  <Rbt.Library>
libRbt.so (2013.1, Build901 2013/11/27)

>  <Rbt.Parameter_File>
/export/apps/rDock/src/rDock_2013.1_src/data/scripts/dock_solv.prm

>  <Rbt.Receptor>
prm/blind_docking_60.prm

>  <SCORE>
-5.66872

>  <SCORE.INTER>
-5.66872

>  <SCORE.INTER.CONST>
1

>  <SCORE.INTER.POLAR>
0

>  <SCORE.INTER.ROT>
0

>  <SCORE.INTER.SOLV>
2.12301

>  <SCORE.INTER.VDW>
-8.08682

>  <SCORE.INTER.norm>
-0.515338

>  <SCORE.INTRA>
0

>  <SCORE.INTRA.DIHEDRAL>
0

>  <SCORE.INTRA.DIHEDRAL.0>
0

>  <SCORE.INTRA.POLAR>
0

>  <SCORE.INTRA.POLAR.0>
0

>  <SCORE.INTRA.REPUL>
0

>  <SCORE.INTRA.REPUL.0>
0

>  <SCORE.INTRA.SOLV>
0

>  <SCORE.INTRA.SOLV.lig_0>
-48.9252

>  <SCORE.INTRA.VDW>
0

>  <SCORE.INTRA.VDW.0>
0

>  <SCORE.INTRA.norm>
0

>  <SCORE.RESTR>
0

>  <SCORE.RESTR.CAVITY>
0

>  <SCORE.RESTR.norm>
0

>  <SCORE.SYSTEM>
0

>  <SCORE.SYSTEM.CONST>
0

>  <SCORE.SYSTEM.DIHEDRAL>
0

>  <SCORE.SYSTEM.SOLV>
0

>  <SCORE.SYSTEM.norm>
0

>  <SCORE.heavy>
11

>  <SCORE.norm>
-0.515338

>  <RMSD>
24.195

$$$$
ligand
 OpenBabel11021811493D
libRbt.so/2013.1/901 2013/11/27
 11 12  0  0  0  0  0  0  0  0999 V2000
   33.3512   20.8286    8.4372 N   0  0  0  0  0  0  0  0  0  0  0  0
   32.6107   19.7133    8.5730 C   0  0  0  0  0  0  0  0  0  0  0  0
   31.2326   19.7909    8.4324 N   0  0  0  0  0  0  0  0  0  0  0  0
   33.1751   18.5256    8.8432 N   0  0  0  0  0  0  0  0  0  0  0  0
   34.5032   18.4018    8.9946 C   0  0  0  0  0  0  0  0  0  0  0  0
   35.3283   19.5412    8.8615 C   0  0  0  0  0  0  0  0  0  0  0  0
   34.6943   20.7894    8.5695 C   0  0  0  0  0  0  0  0  0  0  0  0
   35.4351   21.9369    8.4253 N   0  0  0  0  0  0  0  0  0  0  0  0
   36.6142   19.1337    9.0625 N   0  0  0  0  0  0  0  0  0  0  0  0
   36.6249   17.8575    9.3059 C   0  0  0  0  0  0  0  0  0  0  0  0
   35.3483   17.3560    9.2726 N   0  0  0  0  0  0  0  0  0  0  0  0
  1  7  2  0  0  0  0
  1  2  1  0  0  0  0
  2  3  1  0  0  0  0
  2  4  2  0  0  0  0
  4  5  1  0  0  0  0
  5  6  2  0  0  0  0
  5 11  1  0  0  0  0
  6  7  1  0  0  0  0
  6  9  1  0  0  0  0
  7  8  1  0  0  0  0
  9 10  1  0  0  0  0
 10 11  2  0  0  0  0
M  END
>  <CHROM.1>
34.42594759,19.45580901,8.79360877,-2.69778086,0.09305383,2.95717528

>  <Name>
ligand

>  <RI>
0

>  <Rbt.Current_Directory>
/home/itssahil/PROJECTS/Mol_Feturizer/New_Systems/rnas/4FEO

>  <Rbt.Executable>
rbdock ($Id: //depot/dev/client3/rdock/2013.1/src/exe/rbdock.cxx#4 $)

>  <Rbt.Library>
libRbt.so (2013.1, Build901 2013/11/27)

>  <Rbt.Parameter_File>
/export/apps/rDock/src/rDock_2013.1_src/data/scripts/dock_solv.prm

>  <Rbt.Receptor>
prm/blind_docking_60.prm

>  <SCORE>
-7.21389

>  <SCORE.INTER>
-7.22842

>  <SCORE.INTER.CONST>
1

>  <SCORE.INTER.POLAR>
0

>  <SCORE.INTER.ROT>
0

>  <SCORE.INTER.SOLV>
9.45734

>  <SCORE.INTER.VDW>
-11.5714

>  <SCORE.INTER.norm>
-0.657129

>  <SCORE.INTRA>
0

>  <SCORE.INTRA.DIHEDRAL>
0

>  <SCORE.INTRA.DIHEDRAL.0>
0

>  <SCORE.INTRA.POLAR>
0

>  <SCORE.INTRA.POLAR.0>
0

>  <SCORE.INTRA.REPUL>
0

>  <SCORE.INTRA.REPUL.0>
0

>  <SCORE.INTRA.SOLV>
0

>  <SCORE.INTRA.SOLV.lig_0>
-48.9252

>  <SCORE.INTRA.VDW>
0

>  <SCORE.INTRA.VDW.0>
0

>  <SCORE.INTRA.norm>
0

>  <SCORE.RESTR>
0.014528

>  <SCORE.RESTR.CAVITY>
0.014528

>  <SCORE.RESTR.norm>
0.00132073

>  <SCORE.SYSTEM>
0

>  <SCORE.SYSTEM.CONST>
0

>  <SCORE.SYSTEM.DIHEDRAL>
0

>  <SCORE.SYSTEM.SOLV>
0

>  <SCORE.SYSTEM.norm>
0

>  <SCORE.heavy>
11

>  <SCORE.norm>
-0.655808

>  <RMSD>
24.250

$$$$
ligand
 OpenBabel11021811493D
libRbt.so/2013.1/901 2013/11/27
 11 12  0  0  0  0  0  0  0  0999 V2000
   32.3669   20.9005    7.8907 N   0  0  0  0  0  0  0  0  0  0  0  0
   32.9419   22.0764    7.5786 C   0  0  0  0  0  0  0  0  0  0  0  0
   32.2127   23.0241    6.8749 N   0  0  0  0  0  0  0  0  0  0  0  0
   34.2069   22.3539    7.9316 N   0  0  0  0  0  0  0  0  0  0  0  0
   34.9541   21.4665    8.6071 C   0  0  0  0  0  0  0  0  0  0  0  0
   34.3996   20.2160    8.9614 C   0  0  0  0  0  0  0  0  0  0  0  0
   33.0482   19.9552    8.5730 C   0  0  0  0  0  0  0  0  0  0  0  0
   32.4453   18.7614    8.8854 N   0  0  0  0  0  0  0  0  0  0  0  0
   35.3644   19.5220    9.6304 N   0  0  0  0  0  0  0  0  0  0  0  0
   36.4405   20.2465    9.7013 C   0  0  0  0  0  0  0  0  0  0  0  0
   36.2401   21.4574    9.0883 N   0  0  0  0  0  0  0  0  0  0  0  0
  1  7  2  0  0  0  0
  1  2  1  0  0  0  0
  2  3  1  0  0  0  0
  2  4  2  0  0  0  0
  4  5  1  0  0  0  0
  5  6  2  0  0  0  0
  5 11  1  0  0  0  0
  6  7  1  0  0  0  0
  6  9  1  0  0  0  0
  7  8  1  0  0  0  0
  9 10  1  0  0  0  0
 10 11  2  0  0  0  0
M  END
>  <CHROM.1>
34.03560866,20.91523845,8.50886871,2.53091028,-0.32814264,-0.42266858

>  <Name>
ligand

>  <RI>
0

>  <Rbt.Current_Directory>
/home/itssahil/PROJECTS/Mol_Feturizer/New_Systems/rnas/4FEO

>  <Rbt.Executable>
rbdock ($Id: //depot/dev/client3/rdock/2013.1/src/exe/rbdock.cxx#4 $)

>  <Rbt.Library>
libRbt.so (2013.1, Build901 2013/11/27)

>  <Rbt.Parameter_File>
/export/apps/rDock/src/rDock_2013.1_src/data/scripts/dock_solv.prm

>  <Rbt.Receptor>
prm/blind_docking_60.prm

>  <SCORE>
-5.56224

>  <SCORE.INTER>
-5.56224

>  <SCORE.INTER.CONST>
1

>  <SCORE.INTER.POLAR>
0

>  <SCORE.INTER.ROT>
0

>  <SCORE.INTER.SOLV>
7.54999

>  <SCORE.INTER.VDW>
-9.82482

>  <SCORE.INTER.norm>
-0.505658

>  <SCORE.INTRA>
0

>  <SCORE.INTRA.DIHEDRAL>
0

>  <SCORE.INTRA.DIHEDRAL.0>
0

>  <SCORE.INTRA.POLAR>
0

>  <SCORE.INTRA.POLAR.0>
0

>  <SCORE.INTRA.REPUL>
0

>  <SCORE.INTRA.REPUL.0>
0

>  <SCORE.INTRA.SOLV>
0

>  <SCORE.INTRA.SOLV.lig_0>
-48.9252

>  <SCORE.INTRA.VDW>
0

>  <SCORE.INTRA.VDW.0>
0

>  <SCORE.INTRA.norm>
0

>  <SCORE.RESTR>
0

>  <SCORE.RESTR.CAVITY>
0

>  <SCORE.RESTR.norm>
0

>  <SCORE.SYSTEM>
0

>  <SCORE.SYSTEM.CONST>
0

>  <SCORE.SYSTEM.DIHEDRAL>
0

>  <SCORE.SYSTEM.SOLV>
0

>  <SCORE.SYSTEM.norm>
0

>  <SCORE.heavy>
11

>  <SCORE.norm>
-0.505658

>  <RMSD>
24.315

$$$$
ligand
 OpenBabel11021811493D
libRbt.so/2013.1/901 2013/11/27
 11 12  0  0  0  0  0  0  0  0999 V2000
   34.8111   11.6643   18.2635 N   0  0  0  0  0  0  0  0  0  0  0  0
   34.1348   12.8069   18.0451 C   0  0  0  0  0  0  0  0  0  0  0  0
   33.4667   13.4135   19.0990 N   0  0  0  0  0  0  0  0  0  0  0  0
   34.0901   13.3737   16.8291 N   0  0  0  0  0  0  0  0  0  0  0  0
   34.7149   12.8207   15.7775 C   0  0  0  0  0  0  0  0  0  0  0  0
   35.4408   11.6208   15.9509 C   0  0  0  0  0  0  0  0  0  0  0  0
   35.4707   11.0465   17.2603 C   0  0  0  0  0  0  0  0  0  0  0  0
   36.1581    9.8821   17.5013 N   0  0  0  0  0  0  0  0  0  0  0  0
   35.9653   11.2876   14.7369 N   0  0  0  0  0  0  0  0  0  0  0  0
   35.6131   12.1792   13.8600 C   0  0  0  0  0  0  0  0  0  0  0  0
   34.8432   13.1492   14.4504 N   0  0  0  0  0  0  0  0  0  0  0  0
  1  7  2  0  0  0  0
  1  2  1  0  0  0  0
  2  3  1  0  0  0  0
  2  4  2  0  0  0  0
  4  5  1  0  0  0  0
  5  6  2  0  0  0  0
  5 11  1  0  0  0  0
  6  7  1  0  0  0  0
  6  9  1  0  0  0  0
  7  8  1  0  0  0  0
  9 10  1  0  0  0  0
 10 11  2  0  0  0  0
M  END
>  <CHROM.1>
34.96650667,12.11440011,16.54886958,-2.19863335,0.96460691,-1.18895220

>  <Name>
ligand

>  <RI>
0

>  <Rbt.Current_Directory>
/home/itssahil/PROJECTS/Mol_Feturizer/New_Systems/rnas/4FEO

>  <Rbt.Executable>
rbdock ($Id: //depot/dev/client3/rdock/2013.1/src/exe/rbdock.cxx#4 $)

>  <Rbt.Library>
libRbt.so (2013.1, Build901 2013/11/27)

>  <Rbt.Parameter_File>
/export/apps/rDock/src/rDock_2013.1_src/data/scripts/dock_solv.prm

>  <Rbt.Receptor>
prm/blind_docking_80.prm

>  <SCORE>
-5.80204

>  <SCORE.INTER>
-5.80204

>  <SCORE.INTER.CONST>
1

>  <SCORE.INTER.POLAR>
0

>  <SCORE.INTER.ROT>
0

>  <SCORE.INTER.SOLV>
4.14899

>  <SCORE.INTER.VDW>
-8.85102

>  <SCORE.INTER.norm>
-0.527458

>  <SCORE.INTRA>
0

>  <SCORE.INTRA.DIHEDRAL>
0

>  <SCORE.INTRA.DIHEDRAL.0>
0

>  <SCORE.INTRA.POLAR>
0

>  <SCORE.INTRA.POLAR.0>
0

>  <SCORE.INTRA.REPUL>
0

>  <SCORE.INTRA.REPUL.0>
0

>  <SCORE.INTRA.SOLV>
0

>  <SCORE.INTRA.SOLV.lig_0>
-48.9252

>  <SCORE.INTRA.VDW>
0

>  <SCORE.INTRA.VDW.0>
0

>  <SCORE.INTRA.norm>
0

>  <SCORE.RESTR>
0

>  <SCORE.RESTR.CAVITY>
0

>  <SCORE.RESTR.norm>
0

>  <SCORE.SYSTEM>
0

>  <SCORE.SYSTEM.CONST>
0

>  <SCORE.SYSTEM.DIHEDRAL>
0

>  <SCORE.SYSTEM.SOLV>
0

>  <SCORE.SYSTEM.norm>
0

>  <SCORE.heavy>
11

>  <SCORE.norm>
-0.527458

>  <RMSD>
24.996

$$$$
ligand
 OpenBabel11021811493D
libRbt.so/2013.1/901 2013/11/27
 11 12  0  0  0  0  0  0  0  0999 V2000
   34.8748   11.7066   18.2308 N   0  0  0  0  0  0  0  0  0  0  0  0
   34.1835   12.8417   18.0204 C   0  0  0  0  0  0  0  0  0  0  0  0
   33.5322   13.4481   19.0849 N   0  0  0  0  0  0  0  0  0  0  0  0
   34.1078   13.4011   16.8025 N   0  0  0  0  0  0  0  0  0  0  0  0
   34.7154   12.8479   15.7410 C   0  0  0  0  0  0  0  0  0  0  0  0
   35.4559   11.6557   15.9056 C   0  0  0  0  0  0  0  0  0  0  0  0
   35.5188   11.0892   17.2172 C   0  0  0  0  0  0  0  0  0  0  0  0
   36.2219    9.9325   17.4500 N   0  0  0  0  0  0  0  0  0  0  0  0
   35.9577   11.3204   14.6826 N   0  0  0  0  0  0  0  0  0  0  0  0
   35.5787   12.2037   13.8085 C   0  0  0  0  0  0  0  0  0  0  0  0
   34.8125   13.1700   14.4097 N   0  0  0  0  0  0  0  0  0  0  0  0
  1  7  2  0  0  0  0
  1  2  1  0  0  0  0
  2  3  1  0  0  0  0
  2  4  2  0  0  0  0
  4  5  1  0  0  0  0
  5  6  2  0  0  0  0
  5 11  1  0  0  0  0
  6  7  1  0  0  0  0
  6  9  1  0  0  0  0
  7  8  1  0  0  0  0
  9 10  1  0  0  0  0
 10 11  2  0  0  0  0
M  END
>  <CHROM.1>
34.98976235,12.14833124,16.51076120,-2.15818794,0.96346857,-1.22778635

>  <Name>
ligand

>  <RI>
0

>  <Rbt.Current_Directory>
/home/itssahil/PROJECTS/Mol_Feturizer/New_Systems/rnas/4FEO

>  <Rbt.Executable>
rbdock ($Id: //depot/dev/client3/rdock/2013.1/src/exe/rbdock.cxx#4 $)

>  <Rbt.Library>
libRbt.so (2013.1, Build901 2013/11/27)

>  <Rbt.Parameter_File>
/export/apps/rDock/src/rDock_2013.1_src/data/scripts/dock_solv.prm

>  <Rbt.Receptor>
prm/blind_docking_60.prm

>  <SCORE>
-5.78977

>  <SCORE.INTER>
-5.78977

>  <SCORE.INTER.CONST>
1

>  <SCORE.INTER.POLAR>
0

>  <SCORE.INTER.ROT>
0

>  <SCORE.INTER.SOLV>
4.34544

>  <SCORE.INTER.VDW>
-8.90832

>  <SCORE.INTER.norm>
-0.526342

>  <SCORE.INTRA>
0

>  <SCORE.INTRA.DIHEDRAL>
0

>  <SCORE.INTRA.DIHEDRAL.0>
0

>  <SCORE.INTRA.POLAR>
0

>  <SCORE.INTRA.POLAR.0>
0

>  <SCORE.INTRA.REPUL>
0

>  <SCORE.INTRA.REPUL.0>
0

>  <SCORE.INTRA.SOLV>
0

>  <SCORE.INTRA.SOLV.lig_0>
-48.9252

>  <SCORE.INTRA.VDW>
0

>  <SCORE.INTRA.VDW.0>
0

>  <SCORE.INTRA.norm>
0

>  <SCORE.RESTR>
0

>  <SCORE.RESTR.CAVITY>
0

>  <SCORE.RESTR.norm>
0

>  <SCORE.SYSTEM>
0

>  <SCORE.SYSTEM.CONST>
0

>  <SCORE.SYSTEM.DIHEDRAL>
0

>  <SCORE.SYSTEM.SOLV>
0

>  <SCORE.SYSTEM.norm>
0

>  <SCORE.heavy>
11

>  <SCORE.norm>
-0.526342

>  <RMSD>
25.002

$$$$
ligand
 OpenBabel11021811493D
libRbt.so/2013.1/901 2013/11/27
 11 12  0  0  0  0  0  0  0  0999 V2000
   34.9233   11.5982   18.2675 N   0  0  0  0  0  0  0  0  0  0  0  0
   34.2182   12.7318   18.0987 C   0  0  0  0  0  0  0  0  0  0  0  0
   33.5783   13.3030   19.1893 N   0  0  0  0  0  0  0  0  0  0  0  0
   34.1181   13.3230   16.8978 N   0  0  0  0  0  0  0  0  0  0  0  0
   34.7139   12.8045   15.8123 C   0  0  0  0  0  0  0  0  0  0  0  0
   35.4679   11.6155   15.9330 C   0  0  0  0  0  0  0  0  0  0  0  0
   35.5568   11.0145   17.2277 C   0  0  0  0  0  0  0  0  0  0  0  0
   36.2741    9.8589   17.4181 N   0  0  0  0  0  0  0  0  0  0  0  0
   35.9533   11.3181   14.6937 N   0  0  0  0  0  0  0  0  0  0  0  0
   35.5525   12.2209   13.8498 C   0  0  0  0  0  0  0  0  0  0  0  0
   34.7870   13.1633   14.4889 N   0  0  0  0  0  0  0  0  0  0  0  0
  1  7  2  0  0  0  0
  1  2  1  0  0  0  0
  2  3  1  0  0  0  0
  2  4  2  0  0  0  0
  4  5  1  0  0  0  0
  5  6  2  0  0  0  0
  5 11  1  0  0  0  0
  6  7  1  0  0  0  0
  6  9  1  0  0  0  0
  7  8  1  0  0  0  0
  9 10  1  0  0  0  0
 10 11  2  0  0  0  0
M  END
>  <CHROM.1>
35.00690239,12.08714169,16.55849536,-2.12676493,0.95986947,-1.22656106

>  <Name>
ligand

>  <RI>
0

>  <Rbt.Current_Directory>
/home/itssahil/PROJECTS/Mol_Feturizer/New_Systems/rnas/4FEO

>  <Rbt.Executable>
rbdock ($Id: //depot/dev/client3/rdock/2013.1/src/exe/rbdock.cxx#4 $)

>  <Rbt.Library>
libRbt.so (2013.1, Build901 2013/11/27)

>  <Rbt.Parameter_File>
/export/apps/rDock/src/rDock_2013.1_src/data/scripts/dock_solv.prm

>  <Rbt.Receptor>
prm/blind_docking_80.prm

>  <SCORE>
-5.84832

>  <SCORE.INTER>
-5.84832

>  <SCORE.INTER.CONST>
1

>  <SCORE.INTER.POLAR>
0

>  <SCORE.INTER.ROT>
0

>  <SCORE.INTER.SOLV>
3.92209

>  <SCORE.INTER.VDW>
-8.80624

>  <SCORE.INTER.norm>
-0.531665

>  <SCORE.INTRA>
0

>  <SCORE.INTRA.DIHEDRAL>
0

>  <SCORE.INTRA.DIHEDRAL.0>
0

>  <SCORE.INTRA.POLAR>
0

>  <SCORE.INTRA.POLAR.0>
0

>  <SCORE.INTRA.REPUL>
0

>  <SCORE.INTRA.REPUL.0>
0

>  <SCORE.INTRA.SOLV>
0

>  <SCORE.INTRA.SOLV.lig_0>
-48.9252

>  <SCORE.INTRA.VDW>
0

>  <SCORE.INTRA.VDW.0>
0

>  <SCORE.INTRA.norm>
0

>  <SCORE.RESTR>
0

>  <SCORE.RESTR.CAVITY>
0

>  <SCORE.RESTR.norm>
0

>  <SCORE.SYSTEM>
0

>  <SCORE.SYSTEM.CONST>
0

>  <SCORE.SYSTEM.DIHEDRAL>
0

>  <SCORE.SYSTEM.SOLV>
0

>  <SCORE.SYSTEM.norm>
0

>  <SCORE.heavy>
11

>  <SCORE.norm>
-0.531665

>  <RMSD>
25.034

$$$$
ligand
 OpenBabel11021811493D
libRbt.so/2013.1/901 2013/11/27
 11 12  0  0  0  0  0  0  0  0999 V2000
   34.2606   21.7785    8.1094 N   0  0  0  0  0  0  0  0  0  0  0  0
   35.5765   21.9357    7.8762 C   0  0  0  0  0  0  0  0  0  0  0  0
   36.0464   23.1638    7.4333 N   0  0  0  0  0  0  0  0  0  0  0  0
   36.4464   20.9302    8.0610 N   0  0  0  0  0  0  0  0  0  0  0  0
   36.0385   19.7225    8.4819 C   0  0  0  0  0  0  0  0  0  0  0  0
   34.6673   19.5025    8.7428 C   0  0  0  0  0  0  0  0  0  0  0  0
   33.7691   20.5966    8.5392 C   0  0  0  0  0  0  0  0  0  0  0  0
   32.4235   20.4542    8.7746 N   0  0  0  0  0  0  0  0  0  0  0  0
   34.5368   18.2074    9.1497 N   0  0  0  0  0  0  0  0  0  0  0  0
   35.7054   17.6398    9.1501 C   0  0  0  0  0  0  0  0  0  0  0  0
   36.6678   18.5317    8.7492 N   0  0  0  0  0  0  0  0  0  0  0  0
  1  7  2  0  0  0  0
  1  2  1  0  0  0  0
  2  3  1  0  0  0  0
  2  4  2  0  0  0  0
  4  5  1  0  0  0  0
  5  6  2  0  0  0  0
  5 11  1  0  0  0  0
  6  7  1  0  0  0  0
  6  9  1  0  0  0  0
  7  8  1  0  0  0  0
  9 10  1  0  0  0  0
 10 11  2  0  0  0  0
M  END
>  <CHROM.1>
35.10017240,20.24774874,8.45390815,1.59160639,0.13569268,-0.29343904

>  <Name>
ligand

>  <RI>
0

>  <Rbt.Current_Directory>
/home/itssahil/PROJECTS/Mol_Feturizer/New_Systems/rnas/4FEO

>  <Rbt.Executable>
rbdock ($Id: //depot/dev/client3/rdock/2013.1/src/exe/rbdock.cxx#4 $)

>  <Rbt.Library>
libRbt.so (2013.1, Build901 2013/11/27)

>  <Rbt.Parameter_File>
/export/apps/rDock/src/rDock_2013.1_src/data/scripts/dock_solv.prm

>  <Rbt.Receptor>
prm/blind_docking_60.prm

>  <SCORE>
-6.14387

>  <SCORE.INTER>
-6.14387

>  <SCORE.INTER.CONST>
1

>  <SCORE.INTER.POLAR>
0

>  <SCORE.INTER.ROT>
0

>  <SCORE.INTER.SOLV>
12.2516

>  <SCORE.INTER.VDW>
-11.7798

>  <SCORE.INTER.norm>
-0.558534

>  <SCORE.INTRA>
0

>  <SCORE.INTRA.DIHEDRAL>
0

>  <SCORE.INTRA.DIHEDRAL.0>
0

>  <SCORE.INTRA.POLAR>
0

>  <SCORE.INTRA.POLAR.0>
0

>  <SCORE.INTRA.REPUL>
0

>  <SCORE.INTRA.REPUL.0>
0

>  <SCORE.INTRA.SOLV>
0

>  <SCORE.INTRA.SOLV.lig_0>
-48.9252

>  <SCORE.INTRA.VDW>
0

>  <SCORE.INTRA.VDW.0>
0

>  <SCORE.INTRA.norm>
0

>  <SCORE.RESTR>
0

>  <SCORE.RESTR.CAVITY>
0

>  <SCORE.RESTR.norm>
0

>  <SCORE.SYSTEM>
0

>  <SCORE.SYSTEM.CONST>
0

>  <SCORE.SYSTEM.DIHEDRAL>
0

>  <SCORE.SYSTEM.SOLV>
0

>  <SCORE.SYSTEM.norm>
0

>  <SCORE.heavy>
11

>  <SCORE.norm>
-0.558534

>  <RMSD>
25.073

$$$$
ligand
 OpenBabel11021811493D
libRbt.so/2013.1/901 2013/11/27
 11 12  0  0  0  0  0  0  0  0999 V2000
   35.8457   10.6181   17.7071 N   0  0  0  0  0  0  0  0  0  0  0  0
   36.4918    9.8266   16.8314 C   0  0  0  0  0  0  0  0  0  0  0  0
   37.1382    8.6886   17.2922 N   0  0  0  0  0  0  0  0  0  0  0  0
   36.5269   10.1135   15.5205 N   0  0  0  0  0  0  0  0  0  0  0  0
   35.9223   11.2064   15.0285 C   0  0  0  0  0  0  0  0  0  0  0  0
   35.2285   12.0720   15.9038 C   0  0  0  0  0  0  0  0  0  0  0  0
   35.2080   11.7339   17.2932 C   0  0  0  0  0  0  0  0  0  0  0  0
   34.5513   12.5293   18.2002 N   0  0  0  0  0  0  0  0  0  0  0  0
   34.7190   13.0864   15.1480 N   0  0  0  0  0  0  0  0  0  0  0  0
   35.0511   12.9020   13.9056 C   0  0  0  0  0  0  0  0  0  0  0  0
   35.7915   11.7542   13.7762 N   0  0  0  0  0  0  0  0  0  0  0  0
  1  7  2  0  0  0  0
  1  2  1  0  0  0  0
  2  3  1  0  0  0  0
  2  4  2  0  0  0  0
  4  5  1  0  0  0  0
  5  6  2  0  0  0  0
  5 11  1  0  0  0  0
  6  7  1  0  0  0  0
  6  9  1  0  0  0  0
  7  8  1  0  0  0  0
  9 10  1  0  0  0  0
 10 11  2  0  0  0  0
M  END
>  <CHROM.1>
35.68633711,11.30526557,16.07333986,0.93253342,-0.99155827,1.83275049

>  <Name>
ligand

>  <RI>
0

>  <Rbt.Current_Directory>
/home/itssahil/PROJECTS/Mol_Feturizer/New_Systems/rnas/4FEO

>  <Rbt.Executable>
rbdock ($Id: //depot/dev/client3/rdock/2013.1/src/exe/rbdock.cxx#4 $)

>  <Rbt.Library>
libRbt.so (2013.1, Build901 2013/11/27)

>  <Rbt.Parameter_File>
/export/apps/rDock/src/rDock_2013.1_src/data/scripts/dock_solv.prm

>  <Rbt.Receptor>
prm/blind_docking_60.prm

>  <SCORE>
-6.26609

>  <SCORE.INTER>
-6.26609

>  <SCORE.INTER.CONST>
1

>  <SCORE.INTER.POLAR>
0

>  <SCORE.INTER.ROT>
0

>  <SCORE.INTER.SOLV>
4.36428

>  <SCORE.INTER.VDW>
-9.23215

>  <SCORE.INTER.norm>
-0.569645

>  <SCORE.INTRA>
0

>  <SCORE.INTRA.DIHEDRAL>
0

>  <SCORE.INTRA.DIHEDRAL.0>
0

>  <SCORE.INTRA.POLAR>
0

>  <SCORE.INTRA.POLAR.0>
0

>  <SCORE.INTRA.REPUL>
0

>  <SCORE.INTRA.REPUL.0>
0

>  <SCORE.INTRA.SOLV>
0

>  <SCORE.INTRA.SOLV.lig_0>
-48.9252

>  <SCORE.INTRA.VDW>
0

>  <SCORE.INTRA.VDW.0>
0

>  <SCORE.INTRA.norm>
0

>  <SCORE.RESTR>
0

>  <SCORE.RESTR.CAVITY>
0

>  <SCORE.RESTR.norm>
0

>  <SCORE.SYSTEM>
0

>  <SCORE.SYSTEM.CONST>
0

>  <SCORE.SYSTEM.DIHEDRAL>
0

>  <SCORE.SYSTEM.SOLV>
0

>  <SCORE.SYSTEM.norm>
0

>  <SCORE.heavy>
11

>  <SCORE.norm>
-0.569645

>  <RMSD>
25.638

$$$$
ligand
 OpenBabel11021811493D
libRbt.so/2013.1/901 2013/11/27
 11 12  0  0  0  0  0  0  0  0999 V2000
   35.8274   10.6156   17.7356 N   0  0  0  0  0  0  0  0  0  0  0  0
   36.5259    9.8388   16.8873 C   0  0  0  0  0  0  0  0  0  0  0  0
   37.1907    8.7239   17.3773 N   0  0  0  0  0  0  0  0  0  0  0  0
   36.5958   10.1187   15.5763 N   0  0  0  0  0  0  0  0  0  0  0  0
   35.9751   11.1897   15.0568 C   0  0  0  0  0  0  0  0  0  0  0  0
   35.2268   12.0390   15.9026 C   0  0  0  0  0  0  0  0  0  0  0  0
   35.1703   11.7089   17.2929 C   0  0  0  0  0  0  0  0  0  0  0  0
   34.4601   12.4894   18.1721 N   0  0  0  0  0  0  0  0  0  0  0  0
   34.7122   13.0328   15.1232 N   0  0  0  0  0  0  0  0  0  0  0  0
   35.0908   12.8510   13.8937 C   0  0  0  0  0  0  0  0  0  0  0  0
   35.8695   11.7255   13.7970 N   0  0  0  0  0  0  0  0  0  0  0  0
  1  7  2  0  0  0  0
  1  2  1  0  0  0  0
  2  3  1  0  0  0  0
  2  4  2  0  0  0  0
  4  5  1  0  0  0  0
  5  6  2  0  0  0  0
  5 11  1  0  0  0  0
  6  7  1  0  0  0  0
  6  9  1  0  0  0  0
  7  8  1  0  0  0  0
  9 10  1  0  0  0  0
 10 11  2  0  0  0  0
M  END
>  <CHROM.1>
35.70170127,11.28763801,16.09260384,0.97445468,-0.95329073,1.86078494

>  <Name>
ligand

>  <RI>
0

>  <Rbt.Current_Directory>
/home/itssahil/PROJECTS/Mol_Feturizer/New_Systems/rnas/4FEO

>  <Rbt.Executable>
rbdock ($Id: //depot/dev/client3/rdock/2013.1/src/exe/rbdock.cxx#4 $)

>  <Rbt.Library>
libRbt.so (2013.1, Build901 2013/11/27)

>  <Rbt.Parameter_File>
/export/apps/rDock/src/rDock_2013.1_src/data/scripts/dock_solv.prm

>  <Rbt.Receptor>
prm/blind_docking_60.prm

>  <SCORE>
-6.26469

>  <SCORE.INTER>
-6.26469

>  <SCORE.INTER.CONST>
1

>  <SCORE.INTER.POLAR>
0

>  <SCORE.INTER.ROT>
0

>  <SCORE.INTER.SOLV>
4.04815

>  <SCORE.INTER.VDW>
-9.12585

>  <SCORE.INTER.norm>
-0.569518

>  <SCORE.INTRA>
0

>  <SCORE.INTRA.DIHEDRAL>
0

>  <SCORE.INTRA.DIHEDRAL.0>
0

>  <SCORE.INTRA.POLAR>
0

>  <SCORE.INTRA.POLAR.0>
0

>  <SCORE.INTRA.REPUL>
0

>  <SCORE.INTRA.REPUL.0>
0

>  <SCORE.INTRA.SOLV>
0

>  <SCORE.INTRA.SOLV.lig_0>
-48.9252

>  <SCORE.INTRA.VDW>
0

>  <SCORE.INTRA.VDW.0>
0

>  <SCORE.INTRA.norm>
0

>  <SCORE.RESTR>
0

>  <SCORE.RESTR.CAVITY>
0

>  <SCORE.RESTR.norm>
0

>  <SCORE.SYSTEM>
0

>  <SCORE.SYSTEM.CONST>
0

>  <SCORE.SYSTEM.DIHEDRAL>
0

>  <SCORE.SYSTEM.SOLV>
0

>  <SCORE.SYSTEM.norm>
0

>  <SCORE.heavy>
11

>  <SCORE.norm>
-0.569518

>  <RMSD>
25.658

$$$$
ligand
 OpenBabel11021811493D
libRbt.so/2013.1/901 2013/11/27
 11 12  0  0  0  0  0  0  0  0999 V2000
   35.7588   10.2306   17.6720 N   0  0  0  0  0  0  0  0  0  0  0  0
   36.5115    9.5291   16.8049 C   0  0  0  0  0  0  0  0  0  0  0  0
   37.1702    8.3895   17.2438 N   0  0  0  0  0  0  0  0  0  0  0  0
   36.6415    9.9074   15.5235 N   0  0  0  0  0  0  0  0  0  0  0  0
   36.0291   11.0060   15.0542 C   0  0  0  0  0  0  0  0  0  0  0  0
   35.2254   11.7794   15.9217 C   0  0  0  0  0  0  0  0  0  0  0  0
   35.1058   11.3452   17.2791 C   0  0  0  0  0  0  0  0  0  0  0  0
   34.3398   12.0481   18.1767 N   0  0  0  0  0  0  0  0  0  0  0  0
   34.7332   12.8220   15.1932 N   0  0  0  0  0  0  0  0  0  0  0  0
   35.1752   12.7380   13.9744 C   0  0  0  0  0  0  0  0  0  0  0  0
   35.9768   11.6334   13.8340 N   0  0  0  0  0  0  0  0  0  0  0  0
  1  7  2  0  0  0  0
  1  2  1  0  0  0  0
  2  3  1  0  0  0  0
  2  4  2  0  0  0  0
  4  5  1  0  0  0  0
  5  6  2  0  0  0  0
  5 11  1  0  0  0  0
  6  7  1  0  0  0  0
  6  9  1  0  0  0  0
  7  8  1  0  0  0  0
  9 10  1  0  0  0  0
 10 11  2  0  0  0  0
M  END
>  <CHROM.1>
35.70310375,11.02229950,16.07923714,1.04492169,-0.92155710,1.99237448

>  <Name>
ligand

>  <RI>
0

>  <Rbt.Current_Directory>
/home/itssahil/PROJECTS/Mol_Feturizer/New_Systems/rnas/4FEO

>  <Rbt.Executable>
rbdock ($Id: //depot/dev/client3/rdock/2013.1/src/exe/rbdock.cxx#4 $)

>  <Rbt.Library>
libRbt.so (2013.1, Build901 2013/11/27)

>  <Rbt.Parameter_File>
/export/apps/rDock/src/rDock_2013.1_src/data/scripts/dock_solv.prm

>  <Rbt.Receptor>
prm/blind_docking_100.prm

>  <SCORE>
-6.15959

>  <SCORE.INTER>
-6.15959

>  <SCORE.INTER.CONST>
1

>  <SCORE.INTER.POLAR>
0

>  <SCORE.INTER.ROT>
0

>  <SCORE.INTER.SOLV>
4.26263

>  <SCORE.INTER.VDW>
-9.12727

>  <SCORE.INTER.norm>
-0.559963

>  <SCORE.INTRA>
0

>  <SCORE.INTRA.DIHEDRAL>
0

>  <SCORE.INTRA.DIHEDRAL.0>
0

>  <SCORE.INTRA.POLAR>
0

>  <SCORE.INTRA.POLAR.0>
0

>  <SCORE.INTRA.REPUL>
0

>  <SCORE.INTRA.REPUL.0>
0

>  <SCORE.INTRA.SOLV>
0

>  <SCORE.INTRA.SOLV.lig_0>
-48.9252

>  <SCORE.INTRA.VDW>
0

>  <SCORE.INTRA.VDW.0>
0

>  <SCORE.INTRA.norm>
0

>  <SCORE.RESTR>
0

>  <SCORE.RESTR.CAVITY>
0

>  <SCORE.RESTR.norm>
0

>  <SCORE.SYSTEM>
0

>  <SCORE.SYSTEM.CONST>
0

>  <SCORE.SYSTEM.DIHEDRAL>
0

>  <SCORE.SYSTEM.SOLV>
0

>  <SCORE.SYSTEM.norm>
0

>  <SCORE.heavy>
11

>  <SCORE.norm>
-0.559963

>  <RMSD>
25.669

$$$$
ligand
 OpenBabel11021811493D
libRbt.so/2013.1/901 2013/11/27
 11 12  0  0  0  0  0  0  0  0999 V2000
   36.4242   10.1915   17.4347 N   0  0  0  0  0  0  0  0  0  0  0  0
   37.0328    9.6120   16.3837 C   0  0  0  0  0  0  0  0  0  0  0  0
   37.8501    8.5107   16.5939 N   0  0  0  0  0  0  0  0  0  0  0  0
   36.8685   10.0763   15.1349 N   0  0  0  0  0  0  0  0  0  0  0  0
   36.0932   11.1427   14.8827 C   0  0  0  0  0  0  0  0  0  0  0  0
   35.4296   11.7891   15.9497 C   0  0  0  0  0  0  0  0  0  0  0  0
   35.6237   11.2658   17.2664 C   0  0  0  0  0  0  0  0  0  0  0  0
   35.0083   11.8435   18.3499 N   0  0  0  0  0  0  0  0  0  0  0  0
   34.7225   12.8260   15.4160 N   0  0  0  0  0  0  0  0  0  0  0  0
   34.9099   12.8542   14.1307 C   0  0  0  0  0  0  0  0  0  0  0  0
   35.7452   11.8349   13.7491 N   0  0  0  0  0  0  0  0  0  0  0  0
  1  7  2  0  0  0  0
  1  2  1  0  0  0  0
  2  3  1  0  0  0  0
  2  4  2  0  0  0  0
  4  5  1  0  0  0  0
  5  6  2  0  0  0  0
  5 11  1  0  0  0  0
  6  7  1  0  0  0  0
  6  9  1  0  0  0  0
  7  8  1  0  0  0  0
  9 10  1  0  0  0  0
 10 11  2  0  0  0  0
M  END
>  <CHROM.1>
35.98421635,11.06898838,15.95037319,0.68422292,-0.90635402,1.77452882

>  <Name>
ligand

>  <RI>
0

>  <Rbt.Current_Directory>
/home/itssahil/PROJECTS/Mol_Feturizer/New_Systems/rnas/4FEO

>  <Rbt.Executable>
rbdock ($Id: //depot/dev/client3/rdock/2013.1/src/exe/rbdock.cxx#4 $)

>  <Rbt.Library>
libRbt.so (2013.1, Build901 2013/11/27)

>  <Rbt.Parameter_File>
/export/apps/rDock/src/rDock_2013.1_src/data/scripts/dock_solv.prm

>  <Rbt.Receptor>
prm/blind_docking_100.prm

>  <SCORE>
-6.13428

>  <SCORE.INTER>
-6.13428

>  <SCORE.INTER.CONST>
1

>  <SCORE.INTER.POLAR>
0

>  <SCORE.INTER.ROT>
0

>  <SCORE.INTER.SOLV>
4.74608

>  <SCORE.INTER.VDW>
-9.27155

>  <SCORE.INTER.norm>
-0.557662

>  <SCORE.INTRA>
0

>  <SCORE.INTRA.DIHEDRAL>
0

>  <SCORE.INTRA.DIHEDRAL.0>
0

>  <SCORE.INTRA.POLAR>
0

>  <SCORE.INTRA.POLAR.0>
0

>  <SCORE.INTRA.REPUL>
0

>  <SCORE.INTRA.REPUL.0>
0

>  <SCORE.INTRA.SOLV>
0

>  <SCORE.INTRA.SOLV.lig_0>
-48.9252

>  <SCORE.INTRA.VDW>
0

>  <SCORE.INTRA.VDW.0>
0

>  <SCORE.INTRA.norm>
0

>  <SCORE.RESTR>
0

>  <SCORE.RESTR.CAVITY>
0

>  <SCORE.RESTR.norm>
0

>  <SCORE.SYSTEM>
0

>  <SCORE.SYSTEM.CONST>
0

>  <SCORE.SYSTEM.DIHEDRAL>
0

>  <SCORE.SYSTEM.SOLV>
0

>  <SCORE.SYSTEM.norm>
0

>  <SCORE.heavy>
11

>  <SCORE.norm>
-0.557662

>  <RMSD>
25.889

$$$$
