@<TRIPOS>MOLECULE
4FEO_rdock.pdb
 1425 1593 0 0 0
SMALL
GASTEIGER

@<TRIPOS>ATOM
      1  C5'        3.8620    3.9840   21.6910 C.3    15  G15         0.2141
      2  O5'        2.8090    4.2120   20.7470 O.3    15  G15        -0.2176
      3  C4'        4.1900    2.5190   21.8860 C.3    15  G15         0.1802
      4  O4'        2.9810    1.7930   22.2680 O.3    15  G15        -0.3306
      5  C3'        4.6800    1.7760   20.6520 C.3    15  G15         0.1861
      6  O3'        6.0390    2.0920   20.3050 O.3    15  G15        -0.3112
      7  C2'        4.3310    0.3390   21.0180 C.3    15  G15         0.2309
      8  O2'        5.1260   -0.2130   22.0510 O.3    15  G15        -0.2156
      9  C1'        2.9260    0.5510   21.5760 C.3    15  G15         0.2408
     10  N1        -0.0220   -1.9640   18.2760 N.ar   15  G15        -0.1709
     11  C2         0.9100   -2.4540   19.1610 C.ar   15  G15         0.2606
     12  N2         1.0720   -3.7850   19.1700 N.pl3  15  G15        -0.0859
     13  N3         1.6290   -1.6940   19.9760 N.ar   15  G15        -0.1918
     14  C4         1.3390   -0.3830   19.8310 C.ar   15  G15         0.1723
     15  C5         0.4300    0.2090   18.9770 C.ar   15  G15         0.1748
     16  C6        -0.3390   -0.6190   18.1110 C.ar   15  G15         0.3023
     17  O6        -1.2020   -0.2860   17.2870 O.2    15  G15        -0.2633
     18  N7         0.4330    1.5880   19.1330 N.ar   15  G15        -0.2173
     19  C8         1.3220    1.8070   20.0630 C.ar   15  G15         0.1817
     20  N9         1.9080    0.6560   20.5340 N.ar   15  G15        -0.2693
     21  P          7.2480    1.1010   20.7020 P.3    16  G16         0.2141
     22  C5'        7.5960   -1.4750   20.3690 C.3    16  G16         0.1812
     23  O5'        6.8620   -0.2980   20.0440 O.3    16  G16        -0.3114
     24  C4'        7.0700   -2.6540   19.5910 C.3    16  G16         0.1773
     25  O4'        5.6190   -2.6790   19.6600 O.3    16  G16        -0.3307
     26  C3'        7.3330   -2.6250   18.0980 C.3    16  G16         0.1860
     27  O3'        8.6500   -3.0480   17.7870 O.3    16  G16        -0.3112
     28  C2'        6.3020   -3.6200   17.5970 C.3    16  G16         0.2309
     29  O2'        6.6880   -4.9590   17.8340 O.3    16  G16        -0.2156
     30  C1'        5.1010   -3.2520   18.4670 C.3    16  G16         0.2408
     31  N1         1.3620   -2.5150   15.1240 N.ar   16  G16        -0.1709
     32  C2         1.9700   -3.6850   15.5110 C.ar   16  G16         0.2606
     33  N2         1.5260   -4.8060   14.9270 N.pl3  16  G16        -0.0859
     34  N3         2.9410   -3.7500   16.4040 N.ar   16  G16        -0.1918
     35  C4         3.2690   -2.5320   16.8830 C.ar   16  G16         0.1723
     36  C5         2.7290   -1.3050   16.5600 C.ar   16  G16         0.1748
     37  C6         1.6820   -1.2490   15.6060 C.ar   16  G16         0.3023
     38  O6         1.0670   -0.2580   15.1900 O.2    16  G16        -0.2633
     39  N7         3.3500   -0.2900   17.2760 N.ar   16  G16        -0.2173
     40  C8         4.2380   -0.9080   18.0070 C.ar   16  G16         0.1817
     41  N9         4.2400   -2.2690   17.8170 N.ar   16  G16        -0.2693
     42  OP1        7.2670    0.9450   22.1820 O.3    16  G16        -0.4373
     43  OP2        8.4650    1.5940   20.0030 O.co2  16  G16        -0.5172
     44  P          9.3440   -2.5230   16.4400 P.3    17  A17         0.2141
     45  C5'        8.5780   -4.8760   15.5680 C.3    17  A17         0.1812
     46  O5'        8.7830   -3.4930   15.3080 O.3    17  A17        -0.3114
     47  C4'        7.6810   -5.4700   14.5120 C.3    17  A17         0.1773
     48  O4'        6.2950   -5.1480   14.8110 O.3    17  A17        -0.3307
     49  C3'        7.8900   -4.9200   13.1110 C.3    17  A17         0.1860
     50  O3'        8.9710   -5.5910   12.4720 O.3    17  A17        -0.3112
     51  C2'        6.5520   -5.2340   12.4540 C.3    17  A17         0.2309
     52  O2'        6.4330   -6.5860   12.0650 O.3    17  A17        -0.2156
     53  C1'        5.5830   -4.9390   13.6010 C.3    17  A17         0.2408
     54  N1         2.0970   -1.6850   11.6760 N.ar   17  A17        -0.2040
     55  C2         2.3010   -2.9970   11.4970 C.ar   17  A17         0.2016
     56  N3         3.2260   -3.7890   12.0370 N.ar   17  A17        -0.2048
     57  C4         4.0250   -3.0890   12.8610 C.ar   17  A17         0.1692
     58  C5         3.9420   -1.7370   13.1470 C.ar   17  A17         0.1518
     59  C6         2.9150   -1.0110   12.5130 C.ar   17  A17         0.1919
     60  N6         2.7100    0.2960   12.6930 N.pl3  17  A17        -0.1054
     61  N7         4.9350   -1.3620   14.0430 N.ar   17  A17        -0.2193
     62  C8         5.5860   -2.4780   14.2750 C.ar   17  A17         0.1816
     63  N9         5.0910   -3.5610   13.5880 N.ar   17  A17        -0.2693
     64  OP1       10.8130   -2.7170   16.5520 O.3    17  A17        -0.4373
     65  OP2        8.7970   -1.1670   16.1740 O.co2  17  A17        -0.5172
     66  P          9.9230   -4.7830   11.4580 P.3    18  C18         0.2141
     67  C5'        8.4090   -3.8780    9.5530 C.3    18  C18         0.1812
     68  O5'        9.1900   -4.9380   10.0580 O.3    18  C18        -0.3114
     69  C4'        7.4130   -4.3930    8.5500 C.3    18  C18         0.1773
     70  O4'        6.0990   -4.4420    9.1790 O.3    18  C18        -0.3307
     71  C3'        7.2620   -3.4640    7.3560 C.3    18  C18         0.1860
     72  O3'        8.0650   -3.9080    6.2800 O.3    18  C18        -0.3112
     73  C2'        5.7690   -3.5230    7.0590 C.3    18  C18         0.2309
     74  O2'        5.4020   -4.6630    6.3130 O.3    18  C18        -0.2156
     75  C1'        5.2050   -3.5990    8.4740 C.3    18  C18         0.2420
     76  N1         5.1800   -2.2850    9.1430 N.ar   18  C18        -0.2535
     77  C2         4.1930   -1.3790    8.7810 C.ar   18  C18         0.3532
     78  O2         3.3680   -1.7170    7.9190 O.2    18  C18        -0.2443
     79  N3         4.1620   -0.1600    9.3730 N.ar   18  C18        -0.1739
     80  C4         5.0740    0.1590   10.2930 C.ar   18  C18         0.1759
     81  N4         5.0140    1.3740   10.8430 N.pl3  18  C18        -0.1070
     82  C5         6.0900   -0.7550   10.6880 C.ar   18  C18         0.0566
     83  C6         6.1040   -1.9530   10.0950 C.ar   18  C18         0.0850
     84  OP1       11.2330   -5.4740   11.3730 O.2    18  C18        -0.5172
     85  OP2        9.8720   -3.3430   11.8290 O.co2  18  C18        -0.4373
     86  P          8.9320   -2.8370    5.4570 P.3    19  A19         0.2141
     87  C5'        6.9080   -2.6280    3.8100 C.3    19  A19         0.1812
     88  O5'        7.8360   -1.9910    4.6740 O.3    19  A19        -0.3114
     89  C4'        5.8920   -1.6290    3.3270 C.3    19  A19         0.1773
     90  O4'        5.0430   -1.2420    4.4400 O.3    19  A19        -0.3307
     91  C3'        6.4780   -0.3000    2.8860 C.3    19  A19         0.1860
     92  O3'        6.9930   -0.3610    1.5680 O.3    19  A19        -0.3112
     93  C2'        5.2560    0.5960    2.9630 C.3    19  A19         0.2309
     94  O2'        4.3770    0.3420    1.8870 O.3    19  A19        -0.2156
     95  C1'        4.6380    0.1100    4.2730 C.3    19  A19         0.2408
     96  N1         3.9430    4.3720    7.0570 N.ar   19  A19        -0.2040
     97  C2         3.3810    3.9350    5.9200 C.ar   19  A19         0.2016
     98  N3         3.6240    2.8200    5.2360 N.ar   19  A19        -0.2048
     99  C4         4.5820    2.0920    5.8400 C.ar   19  A19         0.1692
    100  C5         5.2560    2.4110    7.0020 C.ar   19  A19         0.1518
    101  C6         4.9000    3.6150    7.6370 C.ar   19  A19         0.1919
    102  N6         5.4450    4.0430    8.7770 N.pl3  19  A19        -0.1054
    103  N7         6.1810    1.4260    7.3180 N.ar   19  A19        -0.2193
    104  C8         6.0380    0.5400    6.3630 C.ar   19  A19         0.1816
    105  N9         5.0790    0.8730    5.4400 N.ar   19  A19        -0.2693
    106  OP1        9.7610   -3.5630    4.4630 O.2    19  A19        -0.5172
    107  OP2        9.5760   -1.9370    6.4460 O.co2  19  A19        -0.4373
    108  P          8.2010    0.6060    1.1540 P.3    20  U20         0.2141
    109  C5'        6.5050    2.2870    0.1110 C.3    20  U20         0.1812
    110  O5'        7.5090    2.0330    1.0840 O.3    20  U20        -0.3114
    111  C4'        5.9010    3.6460    0.3320 C.3    20  U20         0.1773
    112  O4'        5.2850    3.7010    1.6490 O.3    20  U20        -0.3307
    113  C3'        6.9140    4.7760    0.3830 C.3    20  U20         0.1860
    114  O3'        7.3540    5.1390   -0.9180 O.3    20  U20        -0.3112
    115  C2'        6.1140    5.8580    1.0960 C.3    20  U20         0.2309
    116  O2'        5.1630    6.4920    0.2620 O.3    20  U20        -0.2156
    117  C1'        5.3850    5.0260    2.1540 C.3    20  U20         0.2420
    118  N1         6.0900    4.9980    3.4430 N.ar   20  U20        -0.2534
    119  C2         5.8560    6.0470    4.2980 C.ar   20  U20         0.3546
    120  O2         5.1120    6.9580    4.0140 O.2    20  U20        -0.2443
    121  N3         6.5320    5.9920    5.4920 N.ar   20  U20        -0.1530
    122  C4         7.4050    5.0060    5.9030 C.ar   20  U20         0.2846
    123  O4         7.8920    5.0600    7.0320 O.2    20  U20        -0.2650
    124  C5         7.6000    3.9560    4.9580 C.ar   20  U20         0.0814
    125  C6         6.9490    3.9860    3.7850 C.ar   20  U20         0.0870
    126  OP1        8.6090    0.2510   -0.2280 O.2    20  U20        -0.5172
    127  OP2        9.2040    0.5890    2.2500 O.co2  20  U20        -0.4373
    128  P          8.8640    5.6620   -1.1300 P.3    21  A21         0.2141
    129  C5'        8.2460    8.1630   -0.6750 C.3    21  A21         0.1812
    130  O5'        8.8980    6.9780   -0.2460 O.3    21  A21        -0.3114
    131  C4'        8.4320    9.2580    0.3440 C.3    21  A21         0.1773
    132  O4'        7.8630    8.8670    1.6130 O.3    21  A21        -0.3307
    133  C3'        9.8620    9.5860    0.7310 C.3    21  A21         0.1860
    134  O3'       10.4960   10.3750   -0.2760 O.3    21  A21        -0.3112
    135  C2'        9.6580   10.3690    2.0330 C.3    21  A21         0.2309
    136  O2'        9.3760   11.7420    1.8530 O.3    21  A21        -0.2156
    137  C1'        8.4310    9.6730    2.6350 C.3    21  A21         0.2408
    138  N1         9.0530    9.4420    7.7100 N.ar   21  A21        -0.2040
    139  C2         8.5310   10.3770    6.9060 C.ar   21  A21         0.2016
    140  N3         8.3660   10.3550    5.5860 N.ar   21  A21        -0.2048
    141  C4         8.8060    9.1900    5.0750 C.ar   21  A21         0.1692
    142  C5         9.3580    8.1310    5.7690 C.ar   21  A21         0.1518
    143  C6         9.4960    8.2860    7.1600 C.ar   21  A21         0.1919
    144  N6        10.0400    7.3760    7.9580 N.pl3  21  A21        -0.1054
    145  N7         9.6770    7.0950    4.9030 N.ar   21  A21        -0.2193
    146  C8         9.3400    7.5560    3.7220 C.ar   21  A21         0.1816
    147  N9         8.8270    8.8220    3.7520 N.ar   21  A21        -0.2693
    148  OP1        9.0280    6.0440   -2.5460 O.2    21  A21        -0.5172
    149  OP2        9.7990    4.6850   -0.5190 O.co2  21  A21        -0.4373
    150  P         11.7680    9.7920   -1.0680 P.3    22  U22         0.2141
    151  C5'       14.0870    9.0440   -0.0410 C.3    22  U22         0.1812
    152  O5'       12.9250    9.8640    0.0350 O.3    22  U22        -0.3114
    153  C4'       14.6540    8.8240    1.3460 C.3    22  U22         0.1773
    154  O4'       15.0520   10.1130    1.8970 O.3    22  U22        -0.3307
    155  C3'       13.6490    8.2370    2.3400 C.3    22  U22         0.1860
    156  O3'       14.2790    7.4320    3.3370 O.3    22  U22        -0.3112
    157  C2'       13.0870    9.4810    3.0090 C.3    22  U22         0.2309
    158  O2'       12.5340    9.2160    4.2800 O.3    22  U22        -0.2156
    159  C1'       14.3340   10.3690    3.0940 C.3    22  U22         0.2420
    160  N1        13.9700   11.7890    3.1030 N.ar   22  U22        -0.2534
    161  C2        14.2310   12.5410    4.2430 C.ar   22  U22         0.3546
    162  O2        14.8010   12.1010    5.2170 O.2    22  U22        -0.2443
    163  N3        13.7980   13.8390    4.1870 N.ar   22  U22        -0.1530
    164  C4        13.1570   14.4580    3.1300 C.ar   22  U22         0.2846
    165  O4        12.6860   15.5800    3.2920 O.2    22  U22        -0.2650
    166  C5        12.9680   13.6290    1.9790 C.ar   22  U22         0.0814
    167  C6        13.3660   12.3580    2.0070 C.ar   22  U22         0.0870
    168  OP1       12.0620   10.8000   -2.1180 O.2    22  U22        -0.5172
    169  OP2       11.5680    8.3810   -1.4640 O.co2  22  U22        -0.4373
    170  P         14.6800    5.9130    3.0130 P.3    23  A23         0.2141
    171  C5'       17.0670    6.8200    3.5010 C.3    23  A23         0.1812
    172  O5'       16.2260    6.0050    2.6950 O.3    23  A23        -0.3114
    173  C4'       18.2970    7.2030    2.7260 C.3    23  A23         0.1773
    174  O4'       17.8860    7.8020    1.4710 O.3    23  A23        -0.3307
    175  C3'       19.1790    8.2640    3.3700 C.3    23  A23         0.1860
    176  O3'       20.0930    7.6620    4.2840 O.3    23  A23        -0.3112
    177  C2'       19.9280    8.8280    2.1640 C.3    23  A23         0.2309
    178  O2'       21.0380    8.0310    1.7990 O.3    23  A23        -0.2156
    179  C1'       18.8790    8.7190    1.0510 C.3    23  A23         0.2408
    180  N1        17.0280   13.3050    2.5590 N.ar   23  A23        -0.2040
    181  C2        17.6530   12.3340    3.2280 C.ar   23  A23         0.2016
    182  N3        18.1250   11.1680    2.7860 N.ar   23  A23        -0.2048
    183  C4        17.9040   11.0390    1.4670 C.ar   23  A23         0.1692
    184  C5        17.2860   11.9590    0.6370 C.ar   23  A23         0.1518
    185  C6        16.8250   13.1460    1.2300 C.ar   23  A23         0.1919
    186  N6        16.2040   14.1160    0.5600 N.pl3  23  A23        -0.1054
    187  N7        17.2390   11.4870   -0.6700 N.ar   23  A23        -0.2193
    188  C8        17.8030   10.3120   -0.6020 C.ar   23  A23         0.1816
    189  N9        18.2270    9.9700    0.6640 N.ar   23  A23        -0.2693
    190  OP1       13.9770    5.4880    1.7680 O.2    23  A23        -0.5172
    191  OP2       14.5050    5.1170    4.2560 O.co2  23  A23        -0.4373
    192  P         19.9390    7.9180    5.8750 P.3    24  A24         0.2141
    193  C5'       19.6560   10.5430    5.8380 C.3    24  A24         0.1812
    194  O5'       20.4760    9.4050    6.1120 O.3    24  A24        -0.3114
    195  C4'       19.4240   11.3460    7.1030 C.3    24  A24         0.1773
    196  O4'       18.4740   10.6410    7.9430 O.3    24  A24        -0.3307
    197  C3'       20.6220   11.5440    8.0250 C.3    24  A24         0.1860
    198  O3'       21.4120   12.6620    7.6210 O.3    24  A24        -0.3112
    199  C2'       19.9230   11.9250    9.3280 C.3    24  A24         0.2309
    200  O2'       19.5060   13.2710    9.2810 O.3    24  A24        -0.2156
    201  C1'       18.6870   11.0210    9.2940 C.3    24  A24         0.2408
    202  N1        19.0420    9.0350   13.9970 N.ar   24  A24        -0.2040
    203  C2        18.9660   10.2970   13.5560 C.ar   24  A24         0.2016
    204  N3        18.8860   10.7500   12.3120 N.ar   24  A24        -0.2048
    205  C4        18.9070    9.7280   11.4420 C.ar   24  A24         0.1692
    206  C5        18.9890    8.3780   11.7400 C.ar   24  A24         0.1518
    207  C6        19.0420    8.0320   13.0930 C.ar   24  A24         0.1919
    208  N6        19.0700    6.7770   13.5280 N.pl3  24  A24        -0.1054
    209  N7        18.9950    7.6170   10.5820 N.ar   24  A24        -0.2193
    210  C8        18.9130    8.5090    9.6210 C.ar   24  A24         0.1816
    211  N9        18.8420    9.8040   10.0750 N.ar   24  A24        -0.2693
    212  OP1       20.9190    6.9940    6.5120 O.3    24  A24        -0.4373
    213  OP2       18.5140    7.8530    6.2470 O.co2  24  A24        -0.5172
    214  P         22.9090   12.4410    7.0660 P.3    25  A25         0.2141
    215  C5'       22.8510   13.0780    4.5260 C.3    25  A25         0.1812
    216  O5'       22.6750   12.0970    5.5370 O.3    25  A25        -0.3114
    217  C4'       22.5250   12.4630    3.1970 C.3    25  A25         0.1773
    218  O4'       21.0970   12.5270    2.9700 O.3    25  A25        -0.3307
    219  C3'       23.1230   13.1380    1.9800 C.3    25  A25         0.1860
    220  O3'       24.4560   12.7040    1.7620 O.3    25  A25        -0.3112
    221  C2'       22.1970   12.6500    0.8790 C.3    25  A25         0.2309
    222  O2'       22.4830   11.3220    0.4810 O.3    25  A25        -0.2156
    223  C1'       20.8470   12.7260    1.5890 C.3    25  A25         0.2408
    224  N1        18.7130   15.8430   -1.8470 N.ar   25  A25        -0.2040
    225  C2        19.2450   14.6200   -1.9360 C.ar   25  A25         0.2016
    226  N3        19.7950   13.8670   -0.9810 N.ar   25  A25        -0.2048
    227  C4        19.7520   14.5010    0.2060 C.ar   25  A25         0.1692
    228  C5        19.2490   15.7630    0.4590 C.ar   25  A25         0.1518
    229  C6        18.7140   16.4660   -0.6450 C.ar   25  A25         0.1919
    230  N6        18.2280   17.7120   -0.5750 N.pl3  25  A25        -0.1054
    231  N7        19.3760   16.0810    1.8070 N.ar   25  A25        -0.2193
    232  C8        19.9500   15.0200    2.3290 C.ar   25  A25         0.1816
    233  N9        20.2090   14.0260    1.4100 N.ar   25  A25        -0.2693
    234  OP1       23.4990   11.2180    7.6780 O.3    25  A25        -0.4373
    235  OP2       23.6340   13.7240    7.1760 O.co2  25  A25        -0.5172
    236  P         25.6110   13.8050    1.5960 P.3    26  C26         0.2141
    237  C5'       24.9760   14.1690   -0.9230 C.3    26  C26         0.1812
    238  O5'       25.1250   14.7120    0.3800 O.3    26  C26        -0.3114
    239  C4'       24.3190   15.1710   -1.8390 C.3    26  C26         0.1773
    240  O4'       22.9440   15.3860   -1.4260 O.3    26  C26        -0.3307
    241  C3'       24.9180   16.5670   -1.8070 C.3    26  C26         0.1860
    242  O3'       26.0890   16.5920   -2.6050 O.3    26  C26        -0.3112
    243  C2'       23.7670   17.3780   -2.3850 C.3    26  C26         0.2309
    244  O2'       23.5990   17.2140   -3.7790 O.3    26  C26        -0.2156
    245  C1'       22.5900   16.7410   -1.6450 C.3    26  C26         0.2420
    246  N1        22.3630   17.3720   -0.3330 N.ar   26  C26        -0.2535
    247  C2        21.7880   18.6430   -0.2990 C.ar   26  C26         0.3532
    248  O2        21.5010   19.1950   -1.3790 O.2    26  C26        -0.2443
    249  N3        21.5670   19.2440    0.8940 N.ar   26  C26        -0.1739
    250  C4        21.9030   18.6180    2.0270 C.ar   26  C26         0.1759
    251  N4        21.6670   19.2440    3.1910 N.pl3  26  C26        -0.1070
    252  C5        22.5000   17.3230    2.0220 C.ar   26  C26         0.0566
    253  C6        22.7110   16.7420    0.8270 C.ar   26  C26         0.0850
    254  OP1       26.8510   13.0980    1.2170 O.2    26  C26        -0.5172
    255  OP2       25.5910   14.6650    2.8170 O.co2  26  C26        -0.4373
    256  P         27.2990   17.5710   -2.2140 P.3    27  G27         0.2141
    257  C5'       26.3970   19.3770   -3.8800 C.3    27  G27         0.1812
    258  O5'       26.7020   19.0160   -2.5260 O.3    27  G27        -0.3114
    259  C4'       26.0420   20.8340   -3.9490 C.3    27  G27         0.1773
    260  O4'       24.7750   21.0510   -3.2840 O.3    27  G27        -0.3307
    261  C3'       26.9810   21.7530   -3.1990 C.3    27  G27         0.1860
    262  O3'       28.1400   22.0290   -3.9610 O.3    27  G27        -0.3112
    263  C2'       26.1080   22.9850   -3.0220 C.3    27  G27         0.2309
    264  O2'       25.9570   23.7470   -4.2100 O.3    27  G27        -0.2156
    265  C1'       24.7700   22.3350   -2.6830 C.3    27  G27         0.2408
    266  N1        23.4300   24.6830    1.5900 N.ar   27  G27        -0.1709
    267  C2        23.5340   25.1740    0.3100 C.ar   27  G27         0.2606
    268  N2        23.2100   26.4660    0.1310 N.pl3  27  G27        -0.0859
    269  N3        23.9180   24.4480   -0.7300 N.ar   27  G27        -0.1918
    270  C4        24.1810   23.1740   -0.3850 C.ar   27  G27         0.1723
    271  C5        24.1060   22.5820    0.8550 C.ar   27  G27         0.1748
    272  C6        23.6950   23.3600    1.9590 C.ar   27  G27         0.3023
    273  O6        23.5520   23.0040    3.1330 O.2    27  G27        -0.2633
    274  N7        24.4710   21.2450    0.7830 N.ar   27  G27        -0.2173
    275  C8        24.7480   21.0520   -0.4840 C.ar   27  G27         0.1817
    276  N9        24.5790   22.1800   -1.2420 N.ar   27  G27        -0.2693
    277  OP1       28.3770   17.2550   -3.1750 O.2    27  G27        -0.5172
    278  OP2       27.5800   17.4870   -0.7410 O.co2  27  G27        -0.4373
    279  P         29.4580   22.5420   -3.2250 P.3    28  C28         0.2141
    280  C5'       29.4630   24.4650   -1.4610 C.3    28  C28         0.1812
    281  O5'       28.8540   23.8490   -2.5560 O.3    28  C28        -0.3114
    282  C4'       28.7840   25.7750   -1.2210 C.3    28  C28         0.1773
    283  O4'       27.3840   25.5470   -0.9210 O.3    28  C28        -0.3307
    284  C3'       29.2950   26.5720   -0.0440 C.3    28  C28         0.1860
    285  O3'       30.4460   27.2760   -0.4400 O.3    28  C28        -0.3112
    286  C2'       28.0920   27.4640    0.2180 C.3    28  C28         0.2309
    287  O2'       27.9040   28.4420   -0.7940 O.3    28  C28        -0.2156
    288  C1'       26.9660   26.4410    0.1000 C.3    28  C28         0.2420
    289  N1        26.7630   25.6790    1.3480 N.ar   28  C28        -0.2535
    290  C2        26.1610   26.3360    2.4240 C.ar   28  C28         0.3532
    291  O2        25.8020   27.5230    2.2720 O.2    28  C28        -0.2443
    292  N3        25.9820   25.6760    3.5920 N.ar   28  C28        -0.1739
    293  C4        26.3890   24.4050    3.7120 C.ar   28  C28         0.1759
    294  N4        26.2090   23.8020    4.8890 N.pl3  28  C28        -0.1070
    295  C5        26.9970   23.7010    2.6270 C.ar   28  C28         0.0566
    296  C6        27.1560   24.3730    1.4680 C.ar   28  C28         0.0850
    297  OP1       30.4030   22.9380   -4.2950 O.2    28  C28        -0.5172
    298  OP2       29.8760   21.5600   -2.1940 O.co2  28  C28        -0.4373
    299  P         31.5510   27.6750    0.6510 P.3    29  G29         0.2141
    300  C5'       30.5160   30.0820    0.7040 C.3    29  G29         0.1812
    301  O5'       30.9360   28.9240    1.4120 O.3    29  G29        -0.3114
    302  C4'       29.8340   31.0300    1.6570 C.3    29  G29         0.1773
    303  O4'       28.5610   30.4350    2.0520 O.3    29  G29        -0.3307
    304  C3'       30.5720   31.2670    2.9710 C.3    29  G29         0.1860
    305  O3'       31.5310   32.3190    2.8290 O.3    29  G29        -0.3112
    306  C2'       29.4060   31.6910    3.8630 C.3    29  G29         0.2309
    307  O2'       28.9230   32.9840    3.5640 O.3    29  G29        -0.2156
    308  C1'       28.3310   30.6880    3.4330 C.3    29  G29         0.2408
    309  N1        27.3530   28.4380    7.8650 N.ar   29  G29        -0.1709
    310  C2        27.1800   29.7430    7.4800 C.ar   29  G29         0.2606
    311  N2        26.7170   30.5750    8.4220 N.pl3  29  G29        -0.0859
    312  N3        27.4600   30.2040    6.2690 N.ar   29  G29        -0.1918
    313  C4        27.9810   29.2490    5.4730 C.ar   29  G29         0.1723
    314  C5        28.2240   27.9220    5.7630 C.ar   29  G29         0.1748
    315  C6        27.8840   27.4320    7.0670 C.ar   29  G29         0.3023
    316  O6        28.0100   26.2820    7.5270 O.2    29  G29        -0.2633
    317  N7        28.7940   27.2750    4.6740 N.ar   29  G29        -0.2173
    318  C8        28.8770   28.2070    3.7520 C.ar   29  G29         0.1817
    319  N9        28.3990   29.4280    4.1730 N.ar   29  G29        -0.2693
    320  OP1       32.7630   28.1080   -0.0590 O.2    29  G29        -0.5172
    321  OP2       31.6720   26.5620    1.6440 O.co2  29  G29        -0.4373
    322  P         33.0480   32.1200    3.3180 P.3    30  U30         0.2141
    323  C5'       32.6630   33.8420    5.2450 C.3    30  U30         0.1812
    324  O5'       32.9890   32.5150    4.8630 O.3    30  U30        -0.3114
    325  C4'       32.3090   33.8730    6.7050 C.3    30  U30         0.1773
    326  O4'       31.0490   33.1870    6.9010 O.3    30  U30        -0.3307
    327  C3'       33.2390   33.1190    7.6370 C.3    30  U30         0.1860
    328  O3'       34.4420   33.8280    7.9160 O.3    30  U30        -0.3112
    329  C2'       32.3490   32.9870    8.8600 C.3    30  U30         0.2309
    330  O2'       32.2260   34.2190    9.5610 O.3    30  U30        -0.2156
    331  C1'       31.0290   32.5880    8.1960 C.3    30  U30         0.2420
    332  N1        30.9750   31.1280    8.0270 N.ar   30  U30        -0.2534
    333  C2        30.6010   30.3970    9.1180 C.ar   30  U30         0.3546
    334  O2        30.3190   30.9330   10.1920 O.2    30  U30        -0.2443
    335  N3        30.5860   29.0310    8.9320 N.ar   30  U30        -0.1530
    336  C4        30.9470   28.3520    7.7690 C.ar   30  U30         0.2846
    337  O4        31.0150   27.1250    7.7740 O.2    30  U30        -0.2650
    338  C5        31.3280   29.1980    6.6740 C.ar   30  U30         0.0814
    339  C6        31.3170   30.5280    6.8370 C.ar   30  U30         0.0870
    340  OP1       33.8920   33.1370    2.6380 O.2    30  U30        -0.5172
    341  OP2       33.4400   30.7010    3.2660 O.co2  30  U30        -0.4373
    342  P         35.8150   33.0230    8.1410 P.3    31  G31         0.2141
    343  C5'       35.5870   33.4590   10.7200 C.3    31  G31         0.1812
    344  O5'       35.7090   32.5210    9.6510 O.3    31  G31        -0.3114
    345  C4'       34.9640   32.7960   11.9260 C.3    31  G31         0.1773
    346  O4'       33.7040   32.1810   11.5450 O.3    31  G31        -0.3307
    347  C3'       35.7270   31.6310   12.5310 C.3    31  G31         0.1860
    348  O3'       36.8000   32.0840   13.3530 O.3    31  G31        -0.3112
    349  C2'       34.6300   30.9580   13.3340 C.3    31  G31         0.2309
    350  O2'       34.2910   31.6710   14.5060 O.3    31  G31        -0.2156
    351  C1'       33.4790   31.0130   12.3300 C.3    31  G31         0.2408
    352  N1        32.9930   25.9840   12.1070 N.ar   31  G31        -0.1709
    353  C2        32.7660   26.8460   13.1550 C.ar   31  G31         0.2606
    354  N2        32.3880   26.2980   14.3360 N.pl3  31  G31        -0.0859
    355  N3        32.8870   28.1610   13.0620 N.ar   31  G31        -0.1918
    356  C4        33.2680   28.5540   11.8290 C.ar   31  G31         0.1723
    357  C5        33.5120   27.7840   10.7150 C.ar   31  G31         0.1748
    358  C6        33.3690   26.3720   10.8200 C.ar   31  G31         0.3023
    359  O6        33.5300   25.5160    9.9450 O.2    31  G31        -0.2633
    360  N7        33.9020   28.5810    9.6420 N.ar   31  G31        -0.2173
    361  C8        33.8830   29.8020   10.1170 C.ar   31  G31         0.1817
    362  N9        33.5300   29.8480   11.4500 N.ar   31  G31        -0.2693
    363  OP1       36.9330   33.9970    8.0700 O.3    31  G31        -0.4373
    364  OP2       35.8410   31.8310    7.2740 O.co2  31  G31        -0.5172
    365  P         38.0970   31.1660   13.5380 P.3    32  G32         0.2141
    366  C5'       37.0140   30.0550   15.6740 C.3    32  G32         0.1812
    367  O5'       37.5730   29.9130   14.3740 O.3    32  G32        -0.3114
    368  C4'       36.6150   28.6970   16.1960 C.3    32  G32         0.1773
    369  O4'       35.5450   28.1600   15.3840 O.3    32  G32        -0.3307
    370  C3'       37.6990   27.6450   16.0800 C.3    32  G32         0.1860
    371  O3'       38.6090   27.7980   17.1620 O.3    32  G32        -0.3112
    372  C2'       36.8710   26.3700   16.1780 C.3    32  G32         0.2309
    373  O2'       36.3760   26.1220   17.4890 O.3    32  G32        -0.2156
    374  C1'       35.6980   26.7480   15.2690 C.3    32  G32         0.2408
    375  N1        36.0990   23.0600   11.8040 N.ar   32  G32        -0.1709
    376  C2        35.8350   22.9780   13.1510 C.ar   32  G32         0.2606
    377  N2        35.6860   21.7250   13.6510 N.pl3  32  G32        -0.0859
    378  N3        35.7450   24.0340   13.9600 N.ar   32  G32        -0.1918
    379  C4        35.9950   25.1870   13.3120 C.ar   32  G32         0.1723
    380  C5        36.3040   25.3800   11.9790 C.ar   32  G32         0.1748
    381  C6        36.3440   24.2480   11.1140 C.ar   32  G32         0.3023
    382  O6        36.5450   24.2210    9.8970 O.2    32  G32        -0.2633
    383  N7        36.5460   26.7200   11.7210 N.ar   32  G32        -0.2173
    384  C8        36.3460   27.3140   12.8700 C.ar   32  G32         0.1817
    385  N9        36.0020   26.4380   13.8730 N.ar   32  G32        -0.2693
    386  OP1       39.0920   31.9530   14.3530 O.3    32  G32        -0.4373
    387  OP2       38.5100   30.6120   12.2230 O.co2  32  G32        -0.5172
    388  P         40.1210   27.3320   16.9990 P.3    33  A33         0.2141
    389  C5'       39.4590   25.1960   18.3440 C.3    33  A33         0.1812
    390  O5'       40.0310   25.7520   17.1560 O.3    33  A33        -0.3114
    391  C4'       39.3430   23.6980   18.2130 C.3    33  A33         0.1773
    392  O4'       38.4350   23.3890   17.1250 O.3    33  A33        -0.3307
    393  C3'       40.6010   22.9890   17.7650 C.3    33  A33         0.1860
    394  O3'       41.5290   22.8350   18.8220 O.3    33  A33        -0.3112
    395  C2'       40.0300   21.6500   17.3150 C.3    33  A33         0.2309
    396  O2'       39.6590   20.8380   18.4290 O.3    33  A33        -0.2156
    397  C1'       38.7600   22.1180   16.5990 C.3    33  A33         0.2408
    398  N1        39.3400   19.5850   12.1840 N.ar   33  A33        -0.2040
    399  C2        39.2490   19.1790   13.4550 C.ar   33  A33         0.2016
    400  N3        39.0900   19.9100   14.5670 N.ar   33  A33        -0.2048
    401  C4        39.0340   21.2170   14.2690 C.ar   33  A33         0.1692
    402  C5        39.1170   21.7930   13.0090 C.ar   33  A33         0.1518
    403  C6        39.2750   20.9160   11.9180 C.ar   33  A33         0.1919
    404  N6        39.3600   21.3290   10.6350 N.pl3  33  A33        -0.1054
    405  N7        39.0630   23.1770   13.0940 N.ar   33  A33        -0.2193
    406  C8        38.9380   23.4090   14.3860 C.ar   33  A33         0.1816
    407  N9        38.9060   22.2580   15.1510 N.ar   33  A33        -0.2693
    408  OP1       40.8200   27.8900   18.1910 O.3    33  A33        -0.4373
    409  OP2       40.6400   27.6170   15.6430 O.co2  33  A33        -0.5172
    410  P         43.0920   22.9190   18.5080 P.3    34  U34         0.2141
    411  C5'       43.0950   20.3140   18.3100 C.3    34  U34         0.1812
    412  O5'       43.4070   21.5660   17.7250 O.3    34  U34        -0.3114
    413  C4'       43.2870   19.2240   17.2900 C.3    34  U34         0.1773
    414  O4'       42.4660   19.5620   16.1360 O.3    34  U34        -0.3307
    415  C3'       44.7160   19.0860   16.7890 C.3    34  U34         0.1860
    416  O3'       45.0240   17.7120   16.6630 O.3    34  U34        -0.3112
    417  C2'       44.6670   19.7220   15.4000 C.3    34  U34         0.2309
    418  O2'       45.5900   19.1570   14.4990 O.3    34  U34        -0.2156
    419  C1'       43.2360   19.4130   14.9640 C.3    34  U34         0.2420
    420  N1        42.7990   20.4140   13.9830 N.ar   34  U34        -0.2534
    421  C2        42.7150   20.0350   12.6610 C.ar   34  U34         0.3546
    422  O2        42.8410   18.8890   12.2880 O.2    34  U34        -0.2443
    423  N3        42.4860   21.0590   11.7870 N.ar   34  U34        -0.1530
    424  C4        42.3080   22.3840   12.0900 C.ar   34  U34         0.2846
    425  O4        42.1640   23.1970   11.1730 O.2    34  U34        -0.2650
    426  C5        42.3250   22.6840   13.4910 C.ar   34  U34         0.0814
    427  C6        42.5570   21.7020   14.3670 C.ar   34  U34         0.0870
    428  OP1       43.7740   22.8430   19.8260 O.3    34  U34        -0.4373
    429  OP2       43.3980   24.0360   17.5730 O.co2  34  U34        -0.5172
    430  P         46.1140   17.0430   17.6160 P.3    35  A35         0.2141
    431  C5'       44.6240   14.8880   17.7680 C.3    35  A35         0.1812
    432  O5'       45.8520   15.4920   17.3960 O.3    35  A35        -0.3114
    433  C4'       44.7290   13.4070   17.5570 C.3    35  A35         0.1773
    434  O4'       44.6530   13.1470   16.1320 O.3    35  A35        -0.3307
    435  C3'       46.0630   12.8380   18.0400 C.3    35  A35         0.1860
    436  O3'       45.8700   11.5620   18.6270 O.3    35  A35        -0.3112
    437  C2'       46.9190   12.7830   16.7700 C.3    35  A35         0.2309
    438  O2'       47.8360   11.7060   16.8100 O.3    35  A35        -0.2156
    439  C1'       45.8700   12.5790   15.6700 C.3    35  A35         0.2408
    440  N1        48.0260   12.0950   10.9900 N.ar   35  A35        -0.2040
    441  C2        47.8590   11.2270   11.9840 C.ar   35  A35         0.2016
    442  N3        47.2930   11.4080   13.1840 N.ar   35  A35        -0.2048
    443  C4        46.8430   12.6690   13.3060 C.ar   35  A35         0.1692
    444  C5        46.9280   13.6770   12.3520 C.ar   35  A35         0.1518
    445  C6        47.5710   13.3620   11.1460 C.ar   35  A35         0.1919
    446  N6        47.7590   14.2450   10.1570 N.pl3  35  A35        -0.1054
    447  N7        46.3210   14.8370   12.8070 N.ar   35  A35        -0.2193
    448  C8        45.9160   14.5260   14.0250 C.ar   35  A35         0.1816
    449  N9        46.1990   13.2290   14.3910 N.ar   35  A35        -0.2693
    450  OP1       45.8020   17.4230   19.0320 O.3    35  A35        -0.4373
    451  OP2       47.4730   17.3280   17.0960 O.co2  35  A35        -0.5172
    452  P         45.8710   11.4160   20.2340 P.3    36  U36         0.2141
    453  C5'       43.3450   11.7350   20.8900 C.3    36  U36         0.1812
    454  O5'       44.6410   12.2990   20.7190 O.3    36  U36        -0.3114
    455  C4'       42.5900   12.4890   21.9550 C.3    36  U36         0.1773
    456  O4'       43.3620   12.5080   23.1900 O.3    36  U36        -0.3307
    457  C3'       42.2960   13.9530   21.6430 C.3    36  U36         0.1860
    458  O3'       41.1210   14.3600   22.3380 O.3    36  U36        -0.3112
    459  C2'       43.4810   14.6510   22.2980 C.3    36  U36         0.2309
    460  O2'       43.2200   16.0100   22.5980 O.3    36  U36        -0.2156
    461  C1'       43.5640   13.8530   23.5970 C.3    36  U36         0.2420
    462  N1        44.8640   13.9520   24.2710 N.ar   36  U36        -0.2534
    463  C2        44.8870   14.4890   25.5520 C.ar   36  U36         0.3546
    464  O2        43.8910   14.8580   26.1300 O.2    36  U36        -0.2443
    465  N3        46.1310   14.5650   26.1310 N.ar   36  U36        -0.1530
    466  C4        47.3200   14.1620   25.5710 C.ar   36  U36         0.2846
    467  O4        48.3580   14.2820   26.2100 O.2    36  U36        -0.2650
    468  C5        47.2090   13.6070   24.2460 C.ar   36  U36         0.0814
    469  C6        46.0110   13.5270   23.6590 C.ar   36  U36         0.0870
    470  OP1       47.1060   12.0320   20.7410 O.3    36  U36        -0.4373
    471  OP2       45.5820    9.9850   20.5510 O.co2  36  U36        -0.5172
    472  P         39.6840   14.1810   21.6640 P.3    37  G37         0.2141
    473  C5'       39.6280   16.6560   20.7640 C.3    37  G37         0.1812
    474  O5'       39.6820   15.2690   20.4960 O.3    37  G37        -0.3114
    475  C4'       39.4560   17.4260   19.4660 C.3    37  G37         0.1773
    476  O4'       40.6870   17.3540   18.6950 O.3    37  G37        -0.3307
    477  C3'       38.3670   16.9220   18.5340 C.3    37  G37         0.1860
    478  O3'       37.1270   17.5300   18.8800 O.3    37  G37        -0.3112
    479  C2'       38.8770   17.3880   17.1710 C.3    37  G37         0.2309
    480  O2'       38.6300   18.7760   16.9690 O.3    37  G37        -0.2156
    481  C1'       40.3780   17.1230   17.3180 C.3    37  G37         0.2408
    482  N1        42.2470   14.0190   13.7440 N.ar   37  G37        -0.1709
    483  C2        41.9980   15.3600   13.6690 C.ar   37  G37         0.2606
    484  N2        42.3010   15.9510   12.4950 N.pl3  37  G37        -0.0859
    485  N3        41.4930   16.0790   14.6760 N.ar   37  G37        -0.1918
    486  C4        41.2760   15.3170   15.7700 C.ar   37  G37         0.1723
    487  C5        41.4940   13.9640   15.9360 C.ar   37  G37         0.1748
    488  C6        42.0050   13.2150   14.8560 C.ar   37  G37         0.3023
    489  O6        42.2280   12.0050   14.8060 O.2    37  G37        -0.2633
    490  N7        41.1510   13.5620   17.2190 N.ar   37  G37        -0.2173
    491  C8        40.7390   14.6570   17.8030 C.ar   37  G37         0.1817
    492  N9        40.7820   15.7580   16.9830 N.ar   37  G37        -0.2693
    493  OP1       38.6610   14.4980   22.6730 O.3    37  G37        -0.4373
    494  OP2       39.6310   12.8700   20.9610 O.co2  37  G37        -0.5172
    495  P         35.7510   16.7450   18.6330 P.3    38  G38         0.2141
    496  C5'       35.3090   17.9490   16.3280 C.3    38  G38         0.1812
    497  O5'       35.5900   16.7510   17.0440 O.3    38  G38        -0.3114
    498  C4'       35.5030   17.6980   14.8530 C.3    38  G38         0.1773
    499  O4'       36.8970   17.3600   14.6000 O.3    38  G38        -0.3307
    500  C3'       34.7240   16.5130   14.3070 C.3    38  G38         0.1860
    501  O3'       33.4000   16.9190   13.9780 O.3    38  G38        -0.3112
    502  C2'       35.5500   16.1410   13.0710 C.3    38  G38         0.2309
    503  O2'       35.2750   16.9510   11.9300 O.3    38  G38        -0.2156
    504  C1'       36.9840   16.3930   13.5620 C.3    38  G38         0.2408
    505  N1        39.7180   12.2480   12.4850 N.ar   38  G38        -0.1709
    506  C2        39.5570   13.3990   11.7560 C.ar   38  G38         0.2606
    507  N2        40.1050   13.3920   10.5400 N.pl3  38  G38        -0.0859
    508  N3        38.9050   14.4730   12.1830 N.ar   38  G38        -0.1918
    509  C4        38.4160   14.3040   13.4270 C.ar   38  G38         0.1723
    510  C5        38.5490   13.2130   14.2590 C.ar   38  G38         0.1748
    511  C6        39.2400   12.0570   13.7740 C.ar   38  G38         0.3023
    512  O6        39.4190   10.9680   14.3370 O.2    38  G38        -0.2633
    513  N7        37.9110   13.4400   15.4720 N.ar   38  G38        -0.2173
    514  C8        37.3840   14.6240   15.3440 C.ar   38  G38         0.1817
    515  N9        37.5980   15.1770   14.1000 N.ar   38  G38        -0.2693
    516  OP1       34.6530   17.5390   19.2450 O.3    38  G38        -0.4373
    517  OP2       35.9180   15.3000   19.0020 O.co2  38  G38        -0.5172
    518  P         32.1420   16.0100   14.3940 P.3    39  C39         0.2141
    519  C5'       30.5890   17.9740   15.1810 C.3    39  C39         0.1812
    520  O5'       31.4100   16.8660   15.5290 O.3    39  C39        -0.3114
    521  C4'       30.9330   19.1660   16.0330 C.3    39  C39         0.1773
    522  O4'       32.2590   19.6510   15.6960 O.3    39  C39        -0.3307
    523  C3'       30.0060   20.3570   15.8680 C.3    39  C39         0.1860
    524  O3'       28.9060   20.2370   16.7690 O.3    39  C39        -0.3112
    525  C2'       30.9260   21.5180   16.2320 C.3    39  C39         0.2309
    526  O2'       31.1380   21.6090   17.6180 O.3    39  C39        -0.2156
    527  C1'       32.2360   21.0640   15.5970 C.3    39  C39         0.2420
    528  N1        32.3920   21.4410   14.1820 N.ar   39  C39        -0.2535
    529  C2        32.4940   22.7930   13.8650 C.ar   39  C39         0.3532
    530  O2        32.4460   23.6320   14.7890 O.2    39  C39        -0.2443
    531  N3        32.6530   23.1580   12.5720 N.ar   39  C39        -0.1739
    532  C4        32.7140   22.2250   11.6200 C.ar   39  C39         0.1759
    533  N4        32.8740   22.6290   10.3460 N.pl3  39  C39        -0.1070
    534  C5        32.6130   20.8340   11.9180 C.ar   39  C39         0.0566
    535  C6        32.4540   20.4900   13.2020 C.ar   39  C39         0.0850
    536  OP1       32.6190   14.7290   14.9930 O.3    39  C39        -0.4373
    537  OP2       31.1960   16.0040   13.2360 O.co2  39  C39        -0.5172
    538  P         27.5220   21.0010   16.4500 P.3    40  A40         0.2141
    539  C5'       28.0220   23.1550   17.8700 C.3    40  A40         0.1812
    540  O5'       27.9120   22.5400   16.5970 O.3    40  A40        -0.3114
    541  C4'       28.1040   24.6580   17.6930 C.3    40  A40         0.1773
    542  O4'       29.2840   24.9880   16.9040 O.3    40  A40        -0.3307
    543  C3'       26.9730   25.2280   16.8510 C.3    40  A40         0.1860
    544  O3'       25.7670   25.3660   17.5940 O.3    40  A40        -0.3112
    545  C2'       27.5740   26.5500   16.3920 C.3    40  A40         0.2309
    546  O2'       27.6150   27.5070   17.4490 O.3    40  A40        -0.2156
    547  C1'       28.9830   26.0870   16.0430 C.3    40  A40         0.2408
    548  N1        29.9570   27.4930   11.2290 N.ar   40  A40        -0.2040
    549  C2        29.7520   28.1940   12.3450 C.ar   40  A40         0.2016
    550  N3        29.4490   27.7610   13.5660 N.ar   40  A40        -0.2048
    551  C4        29.3450   26.4240   13.5720 C.ar   40  A40         0.1692
    552  C5        29.4980   25.5630   12.4980 C.ar   40  A40         0.1518
    553  C6        29.8500   26.1450   11.2660 C.ar   40  A40         0.1919
    554  N6        30.1080   25.4440   10.1340 N.pl3  40  A40        -0.1054
    555  N7        29.2700   24.2490   12.8850 N.ar   40  A40        -0.2193
    556  C8        29.0350   24.3380   14.1750 C.ar   40  A40         0.1816
    557  N9        29.1010   25.6270   14.6600 N.ar   40  A40        -0.2693
    558  OP1       26.5420   20.6670   17.5270 O.3    40  A40        -0.4373
    559  OP2       27.1630   20.7880   15.0180 O.co2  40  A40        -0.5172
    560  P         24.3570   25.2680   16.8510 P.3    41  C41         0.2141
    561  C5'       24.2150   27.8820   16.6090 C.3    41  C41         0.1812
    562  O5'       24.2800   26.6070   15.9780 O.3    41  C41        -0.3114
    563  C4'       24.3780   28.9890   15.5840 C.3    41  C41         0.1773
    564  O4'       25.7110   28.9230   14.9910 O.3    41  C41        -0.3307
    565  C3'       23.4710   28.9490   14.3690 C.3    41  C41         0.1860
    566  O3'       22.1210   29.3430   14.6280 O.3    41  C41        -0.3112
    567  C2'       24.2220   29.8850   13.4300 C.3    41  C41         0.2309
    568  O2'       24.1620   31.2570   13.8070 O.3    41  C41        -0.2156
    569  C1'       25.6460   29.3690   13.6370 C.3    41  C41         0.2420
    570  N1        25.9440   28.2470   12.7240 N.ar   41  C41        -0.2535
    571  C2        26.3660   28.5740   11.4420 C.ar   41  C41         0.3532
    572  O2        26.4810   29.7630   11.1580 O.2    41  C41        -0.2443
    573  N3        26.6330   27.5970   10.5540 N.ar   41  C41        -0.1739
    574  C4        26.4860   26.3140   10.9090 C.ar   41  C41         0.1759
    575  N4        26.7720   25.3760    9.9880 N.pl3  41  C41        -0.1070
    576  C5        26.0480   25.9380   12.2190 C.ar   41  C41         0.0566
    577  C6        25.8000   26.9310   13.0950 C.ar   41  C41         0.0850
    578  OP1       23.2800   25.3100   17.8750 O.3    41  C41        -0.4373
    579  OP2       24.3740   24.1460   15.8640 O.co2  41  C41        -0.5172
    580  P         20.9350   28.6530   13.8210 P.3    42  G42         0.2141
    581  C5'       20.8880   30.6350   12.1130 C.3    42  G42         0.1812
    582  O5'       21.0640   29.2330   12.3420 O.3    42  G42        -0.3114
    583  C4'       21.3540   31.0150   10.7230 C.3    42  G42         0.1773
    584  O4'       22.7350   30.6200   10.5460 O.3    42  G42        -0.3307
    585  C3'       20.6560   30.3240    9.5650 C.3    42  G42         0.1860
    586  O3'       19.3870   30.9080    9.3040 O.3    42  G42        -0.3112
    587  C2'       21.6390   30.6140    8.4440 C.3    42  G42         0.2309
    588  O2'       21.5750   31.9470    8.0030 O.3    42  G42        -0.2156
    589  C1'       22.9690   30.3740    9.1640 C.3    42  G42         0.2408
    590  N1        24.8690   26.9820    5.9590 N.ar   42  G42        -0.1709
    591  C2        24.6320   28.3180    5.7790 C.ar   42  G42         0.2606
    592  N2        24.9140   28.8030    4.5610 N.pl3  42  G42        -0.0859
    593  N3        24.1490   29.1160    6.7210 N.ar   42  G42        -0.1918
    594  C4        23.9100   28.4460    7.8710 C.ar   42  G42         0.1723
    595  C5        24.1100   27.1080    8.1560 C.ar   42  G42         0.1748
    596  C6        24.6380   26.2720    7.1350 C.ar   42  G42         0.3023
    597  O6        24.9070   25.0680    7.1800 O.2    42  G42        -0.2633
    598  N7        23.7240   26.8200    9.4650 N.ar   42  G42        -0.2173
    599  C8        23.3090   27.9700    9.9370 C.ar   42  G42         0.1817
    600  N9        23.3810   28.9890    9.0100 N.ar   42  G42        -0.2693
    601  OP1       19.6800   29.1620   14.4410 O.3    42  G42        -0.4373
    602  OP2       21.2150   27.1760   13.7770 O.co2  42  G42        -0.5172
    603  P         18.3050   30.1240    8.4040 P.3    43  C43         0.2141
    604  C5'       19.0610   31.5510    6.3210 C.3    43  C43         0.1812
    605  O5'       18.8370   30.2710    6.9070 O.3    43  C43        -0.3114
    606  C4'       19.6130   31.3950    4.9190 C.3    43  C43         0.1773
    607  O4'       20.9200   30.7590    4.9570 O.3    43  C43        -0.3307
    608  C3'       18.8000   30.5000    4.0040 C.3    43  C43         0.1860
    609  O3'       17.7210   31.2500    3.4860 O.3    43  C43        -0.3112
    610  C2'       19.8220   30.1280    2.9350 C.3    43  C43         0.2309
    611  O2'       20.0270   31.1560    1.9790 O.3    43  C43        -0.2156
    612  C1'       21.0930   29.9780    3.7790 C.3    43  C43         0.2420
    613  N1        21.3880   28.5900    4.1780 N.ar   43  C43        -0.2535
    614  C2        22.0200   27.7680    3.2580 C.ar   43  C43         0.3532
    615  O2        22.2680   28.2320    2.1440 O.2    43  C43        -0.2443
    616  N3        22.3390   26.4910    3.6070 N.ar   43  C43        -0.1739
    617  C4        22.0240   26.0350    4.8190 C.ar   43  C43         0.1759
    618  N4        22.3360   24.7660    5.1230 N.pl3  43  C43        -0.1070
    619  C5        21.3620   26.8570    5.7780 C.ar   43  C43         0.0566
    620  C6        21.0670   28.1150    5.4170 C.ar   43  C43         0.0850
    621  OP1       17.0420   30.9070    8.5110 O.2    43  C43        -0.5172
    622  OP2       18.3110   28.6790    8.7290 O.co2  43  C43        -0.4373
    623  P         16.4810   30.4960    2.8180 P.3    44  G44         0.2141
    624  C5'       16.7940   28.5500    1.1170 C.3    44  G44         0.1812
    625  O5'       17.1340   29.8530    1.5240 O.3    44  G44        -0.3114
    626  C4'       17.6730   28.1410   -0.0280 C.3    44  G44         0.1773
    627  O4'       19.0320   27.9650    0.4600 O.3    44  G44        -0.3307
    628  C3'       17.3030   26.8160   -0.6580 C.3    44  G44         0.1860
    629  O3'       16.3730   27.0510   -1.6990 O.3    44  G44        -0.3112
    630  C2'       18.6420   26.3660   -1.2110 C.3    44  G44         0.2309
    631  O2'       18.9770   27.0500   -2.4010 O.3    44  G44        -0.2156
    632  C1'       19.5740   26.7840   -0.0760 C.3    44  G44         0.2408
    633  N1        20.7990   22.0350    1.0650 N.ar   44  G44        -0.1709
    634  C2        20.8640   22.6980   -0.1400 C.ar   44  G44         0.2606
    635  N2        21.2940   21.9870   -1.1990 N.pl3  44  G44        -0.0859
    636  N3        20.5220   23.9600   -0.3000 N.ar   44  G44        -0.1918
    637  C4        20.0770   24.5090    0.8460 C.ar   44  G44         0.1723
    638  C5        19.9600   23.9370    2.0870 C.ar   44  G44         0.1748
    639  C6        20.3540   22.5920    2.2570 C.ar   44  G44         0.3023
    640  O6        20.3390   21.9160    3.2900 O.2    44  G44        -0.2633
    641  N7        19.4330   24.8430    2.9990 N.ar   44  G44        -0.2173
    642  C8        19.2640   25.9330    2.3040 C.ar   44  G44         0.1817
    643  N9        19.6340   25.7900    0.9880 N.ar   44  G44        -0.2693
    644  OP1       15.5060   31.5380    2.3630 O.2    44  G44        -0.5172
    645  OP2       16.0150   29.3780    3.6520 O.co2  44  G44        -0.4373
    646  P         15.1840   26.0100   -1.9410 P.3    45  A45         0.2141
    647  C5'       16.6350   24.1040   -3.0250 C.3    45  A45         0.1812
    648  O5'       15.8840   24.5840   -1.9100 O.3    45  A45        -0.3114
    649  C4'       17.0270   22.6610   -2.8090 C.3    45  A45         0.1773
    650  O4'       17.9840   22.5660   -1.7200 O.3    45  A45        -0.3307
    651  C3'       15.9010   21.7170   -2.4050 C.3    45  A45         0.1860
    652  O3'       15.2260   21.2930   -3.5930 O.3    45  A45        -0.3112
    653  C2'       16.6890   20.5790   -1.7550 C.3    45  A45         0.2309
    654  O2'       17.3710   19.7530   -2.6840 O.3    45  A45        -0.2156
    655  C1'       17.7600   21.3630   -0.9960 C.3    45  A45         0.2408
    656  N1        17.8380   19.9700    3.9560 N.ar   45  A45        -0.2040
    657  C2        18.2270   19.3460    2.8400 C.ar   45  A45         0.2016
    658  N3        18.1390   19.7540    1.5680 N.ar   45  A45        -0.2048
    659  C4        17.5780   20.9740    1.4960 C.ar   45  A45         0.1692
    660  C5        17.1180   21.7380    2.5470 C.ar   45  A45         0.1518
    661  C6        17.2610   21.1890    3.8480 C.ar   45  A45         0.1919
    662  N6        16.8630   21.8010    4.9680 N.pl3  45  A45        -0.1054
    663  N7        16.6120   22.9520    2.0840 N.ar   45  A45        -0.2193
    664  C8        16.7860   22.8880    0.7850 C.ar   45  A45         0.1816
    665  N9        17.3790   21.7300    0.3650 N.ar   45  A45        -0.2693
    666  OP1       14.6620   26.2520   -3.3190 O.2    45  A45        -0.5172
    667  OP2       14.2780   26.0690   -0.7850 O.co2  45  A45        -0.4373
    668  P         13.6190   21.1550   -3.6150 P.3    46  G46         0.2141
    669  C5'       14.0120   18.6150   -4.0440 C.3    46  G46         0.1812
    670  O5'       13.3890   19.6240   -3.2530 O.3    46  G46        -0.3114
    671  C4'       14.3380   17.4070   -3.2030 C.3    46  G46         0.1773
    672  O4'       15.2210   17.7850   -2.1150 O.3    46  G46        -0.3307
    673  C3'       13.1460   16.7780   -2.5140 C.3    46  G46         0.1860
    674  O3'       12.5230   15.8820   -3.4210 O.3    46  G46        -0.3112
    675  C2'       13.8180   16.0310   -1.3670 C.3    46  G46         0.2309
    676  O2'       14.4520   14.8610   -1.8350 O.3    46  G46        -0.2156
    677  C1'       14.9200   17.0160   -0.9670 C.3    46  G46         0.2408
    678  N1        15.3440   17.9450    3.9930 N.ar   46  G46        -0.1709
    679  C2        15.8160   16.8850    3.2650 C.ar   46  G46         0.2606
    680  N2        16.5190   15.9510    3.9320 N.pl3  46  G46        -0.0859
    681  N3        15.6220   16.7460    1.9660 N.ar   46  G46        -0.1918
    682  C4        14.9140   17.7740    1.4460 C.ar   46  G46         0.1723
    683  C5        14.3990   18.8790    2.0870 C.ar   46  G46         0.1748
    684  C6        14.6090   19.0170    3.4790 C.ar   46  G46         0.3023
    685  O6        14.2380   19.9400    4.2270 O.2    46  G46        -0.2633
    686  N7        13.7390   19.7080    1.1900 N.ar   46  G46        -0.2173
    687  C8        13.8670   19.1030    0.0380 C.ar   46  G46         0.1817
    688  N9        14.5730   17.9290    0.1210 N.ar   46  G46        -0.2693
    689  OP1       13.2760   21.3300   -5.0550 O.2    46  G46        -0.5172
    690  OP2       12.9500   22.0050   -2.5970 O.co2  46  G46        -0.4373
    691  P         10.9370   15.9830   -3.6800 P.3    47  U47         0.2141
    692  C5'       10.5210   13.8410   -2.2300 C.3    47  U47         0.1812
    693  O5'       10.3060   15.2310   -2.4270 O.3    47  U47        -0.3114
    694  C4'        9.6040   13.3240   -1.1480 C.3    47  U47         0.1773
    695  O4'       10.0550   13.8360    0.1400 O.3    47  U47        -0.3307
    696  C3'        8.1420   13.7510   -1.2790 C.3    47  U47         0.1860
    697  O3'        7.2940   12.7200   -0.7830 O.3    47  U47        -0.3112
    698  C2'        8.0700   14.9550   -0.3460 C.3    47  U47         0.2309
    699  O2'        6.7720   15.1950    0.1400 O.3    47  U47        -0.2156
    700  C1'        8.9850   14.4980    0.7910 C.3    47  U47         0.2420
    701  N1         9.5260   15.6230    1.5700 N.ar   47  U47        -0.2534
    702  C2         9.4830   15.5520    2.9500 C.ar   47  U47         0.3546
    703  O2         9.0780   14.5740    3.5590 O.2    47  U47        -0.2443
    704  N3         9.9600   16.6640    3.6010 N.ar   47  U47        -0.1530
    705  C4        10.5040   17.7910    3.0250 C.ar   47  U47         0.2846
    706  O4        10.9200   18.6960    3.7420 O.2    47  U47        -0.2650
    707  C5        10.5400   17.7740    1.6040 C.ar   47  U47         0.0814
    708  C6        10.0560   16.7200    0.9410 C.ar   47  U47         0.0870
    709  OP1       10.6600   15.1590   -4.8900 O.2    47  U47        -0.5172
    710  OP2       10.5020   17.3990   -3.6370 O.co2  47  U47        -0.4373
    711  P          6.4770   11.7810   -1.8140 P.3    48  U48         0.2141
    712  C5'        4.5040   13.4710   -1.5690 C.3    48  U48         0.1812
    713  O5'        5.3750   12.7480   -2.4220 O.3    48  U48        -0.3114
    714  C4'        3.7570   14.5150   -2.3540 C.3    48  U48         0.1773
    715  O4'        2.9500   13.8760   -3.3820 O.3    48  U48        -0.3307
    716  C3'        2.8010   15.3560   -1.5140 C.3    48  U48         0.1860
    717  O3'        2.9780   16.7320   -1.8000 O.3    48  U48        -0.3112
    718  C2'        1.4160   14.8940   -1.9530 C.3    48  U48         0.2309
    719  O2'        0.4860   15.9540   -1.8910 O.3    48  U48        -0.2156
    720  C1'        1.6690   14.4690   -3.3980 C.3    48  U48         0.2420
    721  N1         0.7000   13.4650   -3.8570 N.ar   48  U48        -0.2534
    722  C2        -0.2160   13.8340   -4.8330 C.ar   48  U48         0.3546
    723  O2        -0.2260   14.9370   -5.3560 O.2    48  U48        -0.2443
    724  N3        -1.1260   12.8590   -5.1730 N.ar   48  U48        -0.1530
    725  C4        -1.2110   11.5880   -4.6480 C.ar   48  U48         0.2846
    726  O4        -2.1130   10.8380   -5.0270 O.2    48  U48        -0.2650
    727  C5        -0.2140   11.2750   -3.6620 C.ar   48  U48         0.0814
    728  C6         0.6850   12.1990   -3.3140 C.ar   48  U48         0.0870
    729  OP1        5.7900   10.7630   -0.9750 O.3    48  U48        -0.4373
    730  OP2        7.3400   11.3480   -2.9340 O.co2  48  U48        -0.5172
    731  P          4.1450   17.5490   -1.0580 P.3    49  U49         0.2141
    732  C5'        3.0110   17.5610    1.3150 C.3    49  U49         0.1812
    733  O5'        4.0320   17.0700    0.4530 O.3    49  U49        -0.3114
    734  C4'        3.4130   17.3480    2.7550 C.3    49  U49         0.1773
    735  O4'        3.4010   15.9300    3.0450 O.3    49  U49        -0.3307
    736  C3'        4.8180   17.8330    3.1100 C.3    49  U49         0.1860
    737  O3'        4.7660   18.5760    4.3120 O.3    49  U49        -0.3112
    738  C2'        5.6150   16.5430    3.3160 C.3    49  U49         0.2309
    739  O2'        6.6380   16.6850    4.2910 O.3    49  U49        -0.2156
    740  C1'        4.5240   15.6120    3.8360 C.3    49  U49         0.2420
    741  N1         4.7820   14.1740    3.6910 N.ar   49  U49        -0.2534
    742  C2         4.5100   13.3820    4.7830 C.ar   49  U49         0.3546
    743  O2         4.1140   13.8390    5.8340 O.2    49  U49        -0.2443
    744  N3         4.7130   12.0330    4.5950 N.ar   49  U49        -0.1530
    745  C4         5.1540   11.4200    3.4380 C.ar   49  U49         0.2846
    746  O4         5.2340   10.1900    3.3940 O.2    49  U49        -0.2650
    747  C5         5.4400   12.3220    2.3610 C.ar   49  U49         0.0814
    748  C6         5.2500   13.6340    2.5250 C.ar   49  U49         0.0870
    749  OP1        3.8080   18.9950   -1.1270 O.3    49  U49        -0.4373
    750  OP2        5.4380   17.0650   -1.6010 O.co2  49  U49        -0.5172
    751  P          5.7550   19.8240    4.5120 P.3    50  C50         0.2141
    752  C5'        4.3840   20.8940    6.4680 C.3    50  C50         0.1812
    753  O5'        5.5450   20.1990    6.0400 O.3    50  C50        -0.3114
    754  C4'        4.1460   20.6240    7.9300 C.3    50  C50         0.1773
    755  O4'        3.6890   19.2520    8.0820 O.3    50  C50        -0.3307
    756  C3'        5.4060   20.6690    8.7770 C.3    50  C50         0.1860
    757  O3'        5.7380   22.0070    9.1340 O.3    50  C50        -0.3112
    758  C2'        5.0080   19.8100    9.9710 C.3    50  C50         0.2309
    759  O2'        4.1830   20.4800   10.9010 O.3    50  C50        -0.2156
    760  C1'        4.1950   18.7110    9.2890 C.3    50  C50         0.2420
    761  N1         4.9870   17.5140    8.9700 N.ar   50  C50        -0.2535
    762  C2         5.4840   16.7450   10.0260 C.ar   50  C50         0.3532
    763  O2         5.2620   17.1110   11.1830 O.2    50  C50        -0.2443
    764  N3         6.1950   15.6230    9.7550 N.ar   50  C50        -0.1739
    765  C4         6.4110   15.2580    8.4890 C.ar   50  C50         0.1759
    766  N4         7.0890   14.1160    8.2690 N.pl3  50  C50        -0.1070
    767  C5         5.9390   16.0310    7.3920 C.ar   50  C50         0.0566
    768  C6         5.2340   17.1450    7.6730 C.ar   50  C50         0.0850
    769  OP1        5.2630   20.9360    3.6550 O.2    50  C50        -0.5172
    770  OP2        7.1510   19.3440    4.3530 O.co2  50  C50        -0.4373
    771  P          7.2810   22.4700    9.1410 P.3    51  U51         0.2141
    772  C5'        7.7870   21.5240   11.5330 C.3    51  U51         0.1812
    773  O5'        7.9770   21.4360   10.1240 O.3    51  U51        -0.3114
    774  C4'        8.3620   20.3030   12.2020 C.3    51  U51         0.1773
    775  O4'        7.7750   19.1150   11.6010 O.3    51  U51        -0.3307
    776  C3'        9.8560   20.0790   12.0180 C.3    51  U51         0.1860
    777  O3'       10.6150   20.8580   12.9430 O.3    51  U51        -0.3112
    778  C2'        9.9610   18.5970   12.3310 C.3    51  U51         0.2309
    779  O2'        9.8620   18.3420   13.7190 O.3    51  U51        -0.2156
    780  C1'        8.7190   18.0650   11.6170 C.3    51  U51         0.2420
    781  N1         8.9720   17.6480   10.2300 N.ar   51  U51        -0.2534
    782  C2         9.5630   16.4230   10.0610 C.ar   51  U51         0.3546
    783  O2         9.9050   15.7310   11.0070 O.2    51  U51        -0.2443
    784  N3         9.7450   16.0360    8.7580 N.ar   51  U51        -0.1530
    785  C4         9.4050   16.7450    7.6250 C.ar   51  U51         0.2846
    786  O4         9.6040   16.2440    6.5220 O.2    51  U51        -0.2650
    787  C5         8.8130   18.0240    7.8780 C.ar   51  U51         0.0814
    788  C6         8.6230   18.4250    9.1440 C.ar   51  U51         0.0870
    789  OP1        7.3570   23.8250    9.7560 O.3    51  U51        -0.4373
    790  OP2        7.8180   22.2570    7.7740 O.co2  51  U51        -0.5172
    791  P         12.1480   21.2390   12.6110 P.3    52  A52         0.2141
    792  C5'       13.1160   19.1020   13.8000 C.3    52  A52         0.1812
    793  O5'       12.9100   19.8380   12.5990 O.3    52  A52        -0.3114
    794  C4'       13.7330   17.7600   13.4890 C.3    52  A52         0.1773
    795  O4'       12.8680   17.0480   12.5630 O.3    52  A52        -0.3307
    796  C3'       15.0890   17.8120   12.7980 C.3    52  A52         0.1860
    797  O3'       16.1230   17.8660   13.7730 O.3    52  A52        -0.3112
    798  C2'       15.1290   16.4770   12.0630 C.3    52  A52         0.2309
    799  O2'       15.5220   15.4280   12.9320 O.3    52  A52        -0.2156
    800  C1'       13.6630   16.3070   11.6450 C.3    52  A52         0.2408
    801  N1        13.8470   15.3630    6.5660 N.ar   52  A52        -0.2040
    802  C2        14.3150   14.6810    7.6240 C.ar   52  A52         0.2016
    803  N3        14.2600   14.9900    8.9220 N.ar   52  A52        -0.2048
    804  C4        13.6340   16.1640    9.1010 C.ar   52  A52         0.1692
    805  C5        13.1100   16.9860    8.1140 C.ar   52  A52         0.1518
    806  C6        13.2180   16.5420    6.7830 C.ar   52  A52         0.1919
    807  N6        12.7250   17.2130    5.7340 N.pl3  52  A52        -0.1054
    808  N7        12.5530   18.1290    8.6700 N.ar   52  A52        -0.2193
    809  C8        12.7300   17.9690    9.9590 C.ar   52  A52         0.1816
    810  N9        13.3630   16.7930   10.2950 N.ar   52  A52        -0.2693
    811  OP1       12.6570   22.0210   13.7700 O.3    52  A52        -0.4373
    812  OP2       12.2370   21.8220   11.2480 O.co2  52  A52        -0.5172
    813  P         17.3170   18.9240   13.6150 P.3    53  C53         0.2141
    814  C5'       18.8720   17.0130   12.6700 C.3    53  C53         0.1812
    815  O5'       18.2480   18.2860   12.4850 O.3    53  C53        -0.3114
    816  C4'       19.2940   16.4290   11.3340 C.3    53  C53         0.1773
    817  O4'       18.0990   16.1060   10.5690 O.3    53  C53        -0.3307
    818  C3'       20.0720   17.3580   10.4060 C.3    53  C53         0.1860
    819  O3'       21.4790   17.3320   10.6820 O.3    53  C53        -0.3112
    820  C2'       19.8360   16.6970    9.0560 C.3    53  C53         0.2309
    821  O2'       20.6890   15.5710    8.8640 O.3    53  C53        -0.2156
    822  C1'       18.3710   16.2590    9.1800 C.3    53  C53         0.2420
    823  N1        17.4360   17.2620    8.6470 N.ar   53  C53        -0.2535
    824  C2        16.9690   17.1250    7.3370 C.ar   53  C53         0.3532
    825  O2        17.3630   16.1800    6.6610 O.2    53  C53        -0.2443
    826  N3        16.1020   18.0370    6.8440 N.ar   53  C53        -0.1739
    827  C4        15.7130   19.0600    7.5950 C.ar   53  C53         0.1759
    828  N4        14.8700   19.9350    7.0560 N.pl3  53  C53        -0.1070
    829  C5        16.1740   19.2330    8.9320 C.ar   53  C53         0.0566
    830  C6        17.0290   18.3150    9.4130 C.ar   53  C53         0.0850
    831  OP1       18.0690   18.9180   14.9020 O.3    53  C53        -0.4373
    832  OP2       16.8190   20.2150   13.0750 O.co2  53  C53        -0.5172
    833  P         22.1940   18.6000   11.3530 P.3    54  C54         0.2141
    834  C5'       23.3410   17.2240   13.2610 C.3    54  C54         0.1812
    835  O5'       22.3710   18.1880   12.8770 O.3    54  C54        -0.3114
    836  C4'       22.7640   16.2980   14.3010 C.3    54  C54         0.1773
    837  O4'       21.7610   15.4470   13.6900 O.3    54  C54        -0.3307
    838  C3'       23.7560   15.3110   14.8900 C.3    54  C54         0.1860
    839  O3'       24.5120   15.9100   15.9270 O.3    54  C54        -0.3112
    840  C2'       22.8430   14.2050   15.3950 C.3    54  C54         0.2309
    841  O2'       22.1960   14.4620   16.6200 O.3    54  C54        -0.2156
    842  C1'       21.8090   14.1510   14.2720 C.3    54  C54         0.2420
    843  N1        22.1780   13.1880   13.2230 N.ar   54  C54        -0.2535
    844  C2        22.1000   11.8390   13.5150 C.ar   54  C54         0.3532
    845  O2        21.7340   11.5010   14.6490 O.2    54  C54        -0.2443
    846  N3        22.4230   10.9320   12.5610 N.ar   54  C54        -0.1739
    847  C4        22.8020   11.3440   11.3490 C.ar   54  C54         0.1759
    848  N4        23.0860   10.4230   10.4330 N.pl3  54  C54        -0.1070
    849  C5        22.8990   12.7270   11.0240 C.ar   54  C54         0.0566
    850  C6        22.5830   13.6060   11.9840 C.ar   54  C54         0.0850
    851  OP1       21.2550   19.7570   11.3340 O.3    54  C54        -0.4373
    852  OP2       23.5370   18.7330   10.7300 O.co2  54  C54        -0.5172
    853  P         25.9730   15.3280   16.2780 P.3    55  G55         0.2141
    854  C5'       25.1630   13.9080   18.3580 C.3    55  G55         0.1812
    855  O5'       25.6810   13.9540   17.0290 O.3    55  G55        -0.3114
    856  C4'       25.1190   12.4800   18.8710 C.3    55  G55         0.1773
    857  O4'       24.2190   11.6710   18.0510 O.3    55  G55        -0.3307
    858  C3'       26.4310   11.7040   18.8470 C.3    55  G55         0.1860
    859  O3'       27.2080   11.9830   20.0100 O.3    55  G55        -0.3112
    860  C2'       25.9350   10.2690   18.8850 C.3    55  G55         0.2309
    861  O2'       25.4740    9.8790   20.1560 O.3    55  G55        -0.2156
    862  C1'       24.7280   10.3510   17.9500 C.3    55  G55         0.2408
    863  N1        25.4520    6.9100   14.3160 N.ar   55  G55        -0.1709
    864  C2        25.2580    6.7170   15.6570 C.ar   55  G55         0.2606
    865  N2        25.2050    5.4450   16.0680 N.pl3  55  G55        -0.0859
    866  N3        25.1200    7.7030   16.5290 N.ar   55  G55        -0.1918
    867  C4        25.2200    8.9060   15.9370 C.ar   55  G55         0.1723
    868  C5        25.4360    9.1970   14.6080 C.ar   55  G55         0.1748
    869  C6        25.5360    8.1390   13.6870 C.ar   55  G55         0.3023
    870  O6        25.6500    8.1950   12.4710 O.2    55  G55        -0.2633
    871  N7        25.4900   10.5660   14.4060 N.ar   55  G55        -0.2173
    872  C8        25.2800   11.0730   15.5880 C.ar   55  G55         0.1817
    873  N9        25.0740   10.1210   16.5530 N.ar   55  G55        -0.2693
    874  OP1       26.5670   16.3180   17.2350 O.3    55  G55        -0.4373
    875  OP2       26.6550   15.0240   15.0190 O.co2  55  G55        -0.5172
    876  P         28.7860   12.1680   19.8620 P.3    56  G56         0.2141
    877  C5'       29.4170    9.9190   21.0360 C.3    56  G56         0.1812
    878  O5'       29.3760   10.6900   19.8480 O.3    56  G56        -0.3114
    879  C4'       29.4180    8.4500   20.7030 C.3    56  G56         0.1773
    880  O4'       28.2830    8.1060   19.8670 O.3    56  G56        -0.3307
    881  C3'       30.6040    7.9190   19.9190 C.3    56  G56         0.1860
    882  O3'       31.7130    7.7390   20.8060 O.3    56  G56        -0.3112
    883  C2'       30.0360    6.5970   19.4390 C.3    56  G56         0.2309
    884  O2'       29.9090    5.6660   20.5040 O.3    56  G56        -0.2156
    885  C1'       28.6460    7.0510   18.9880 C.3    56  G56         0.2408
    886  N1        28.7570    5.8850   14.0660 N.ar   56  G56        -0.1709
    887  C2        28.6970    5.0650   15.1650 C.ar   56  G56         0.2606
    888  N2        28.7240    3.7430   14.9150 N.pl3  56  G56        -0.0859
    889  N3        28.6440    5.4990   16.4080 N.ar   56  G56        -0.1918
    890  C4        28.7030    6.8450   16.4810 C.ar   56  G56         0.1723
    891  C5        28.7910    7.7590   15.4540 C.ar   56  G56         0.1748
    892  C6        28.8250    7.2690   14.1080 C.ar   56  G56         0.3023
    893  O6        28.9120    7.9050   13.0490 O.2    56  G56        -0.2633
    894  N7        28.8290    9.0560   15.9500 N.ar   56  G56        -0.2173
    895  C8        28.7760    8.9070   17.2510 C.ar   56  G56         0.1817
    896  N9        28.7030    7.5850   17.6340 N.ar   56  G56        -0.2693
    897  OP1       29.2380   12.8820   21.1030 O.3    56  G56        -0.4373
    898  OP2       29.0550   12.7430   18.5410 O.co2  56  G56        -0.5172
    899  P         33.2000    7.6520   20.2340 P.3    57  G57         0.2141
    900  C5'       33.2050    5.0080   20.2780 C.3    57  G57         0.1812
    901  O5'       33.3000    6.2210   19.5290 O.3    57  G57        -0.3114
    902  C4'       33.1650    3.8060   19.3450 C.3    57  G57         0.1773
    903  O4'       32.0040    3.8980   18.4800 O.3    57  G57        -0.3307
    904  C3'       34.3170    3.6800   18.3660 C.3    57  G57         0.1860
    905  O3'       35.4470    3.0730   18.9780 O.3    57  G57        -0.3112
    906  C2'       33.7120    2.7580   17.3210 C.3    57  G57         0.2309
    907  O2'       33.5880    1.4160   17.7720 O.3    57  G57        -0.2156
    908  C1'       32.3210    3.3690   17.1940 C.3    57  G57         0.2408
    909  N1        32.1000    4.5480   12.2520 N.ar   57  G57        -0.1709
    910  C2        32.2310    3.3110   12.8460 C.ar   57  G57         0.2606
    911  N2        32.3020    2.2470   12.0290 N.pl3  57  G57        -0.0859
    912  N3        32.2910    3.1270   14.1640 N.ar   57  G57        -0.1918
    913  C4        32.2270    4.2970   14.8350 C.ar   57  G57         0.1723
    914  C5        32.1040    5.5750   14.3290 C.ar   57  G57         0.1748
    915  C6        32.0130    5.7570   12.9280 C.ar   57  G57         0.3023
    916  O6        31.8670    6.8170   12.3080 O.2    57  G57        -0.2633
    917  N7        32.0860    6.5120   15.3490 N.ar   57  G57        -0.2173
    918  C8        32.1820    5.7990   16.4490 C.ar   57  G57         0.1817
    919  N9        32.2550    4.4500   16.2090 N.ar   57  G57        -0.2693
    920  OP1       34.0880    7.7020   21.4270 O.3    57  G57        -0.4373
    921  OP2       33.3960    8.6510   19.1130 O.co2  57  G57        -0.5172
    922  P         36.9120    3.5540   18.5840 P.3    58  C58         0.2141
    923  C5'       37.1330    1.7560   16.6830 C.3    58  C58         0.1812
    924  O5'       37.0780    3.1310   17.0570 O.3    58  C58        -0.3114
    925  C4'       37.0210    1.6220   15.1920 C.3    58  C58         0.1773
    926  O4'       35.7310    2.1270   14.7450 O.3    58  C58        -0.3307
    927  C3'       38.0090    2.4290   14.3740 C.3    58  C58         0.1860
    928  O3'       39.3170    1.8440   14.3320 O.3    58  C58        -0.3112
    929  C2'       37.3130    2.3910   13.0220 C.3    58  C58         0.2309
    930  O2'       37.3510    1.1000   12.4540 O.3    58  C58        -0.2156
    931  C1'       35.8750    2.6890   13.4440 C.3    58  C58         0.2420
    932  N1        35.6300    4.1360   13.5230 N.ar   58  C58        -0.2535
    933  C2        35.3470    4.7930   12.3470 C.ar   58  C58         0.3532
    934  O2        35.3280    4.1140   11.3090 O.2    58  C58        -0.2443
    935  N3        35.1170    6.1250   12.3590 N.ar   58  C58        -0.1739
    936  C4        35.1740    6.8020   13.5180 C.ar   58  C58         0.1759
    937  N4        34.9110    8.1200   13.5040 N.pl3  58  C58        -0.1070
    938  C5        35.4860    6.1520   14.7500 C.ar   58  C58         0.0566
    939  C6        35.6930    4.8210   14.7080 C.ar   58  C58         0.0850
    940  OP1       37.8600    2.7330   19.3890 O.3    58  C58        -0.4373
    941  OP2       37.0010    5.0250   18.6420 O.co2  58  C58        -0.5172
    942  P         40.6120    2.7800   14.1090 P.3    59  A59         0.2141
    943  C5'       40.6680    2.2500   11.5420 C.3    59  A59         0.1812
    944  O5'       40.5480    3.2160   12.5750 O.3    59  A59        -0.3114
    945  C4'       40.2380    2.8500   10.2210 C.3    59  A59         0.1773
    946  O4'       38.9360    3.4620   10.4080 O.3    59  A59        -0.3307
    947  C3'       41.1210    3.9820    9.7120 C.3    59  A59         0.1860
    948  O3'       42.1850    3.4290    8.9530 O.3    59  A59        -0.3112
    949  C2'       40.1630    4.7440    8.8070 C.3    59  A59         0.2309
    950  O2'       40.0130    4.1750    7.5060 O.3    59  A59        -0.2156
    951  C1'       38.8510    4.6330    9.5910 C.3    59  A59         0.2408
    952  N1        37.6200    9.6140    9.8600 N.ar   59  A59        -0.2040
    953  C2        37.8530    8.8070    8.8210 C.ar   59  A59         0.2016
    954  N3        38.2190    7.5360    8.8190 N.ar   59  A59        -0.2048
    955  C4        38.3520    7.0760   10.0770 C.ar   59  A59         0.1692
    956  C5        38.1690    7.7940   11.2390 C.ar   59  A59         0.1518
    957  C6        37.7650    9.1110   11.1130 C.ar   59  A59         0.1919
    958  N6        37.4870    9.9010   12.1720 N.pl3  59  A59        -0.1054
    959  N7        38.4070    6.9980   12.3560 N.ar   59  A59        -0.2193
    960  C8        38.7130    5.8300   11.8420 C.ar   59  A59         0.1816
    961  N9        38.6640    5.7940   10.4740 N.ar   59  A59        -0.2693
    962  OP1       41.8050    1.9130   14.2680 O.2    59  A59        -0.5172
    963  OP2       40.5380    4.0390   14.9090 O.co2  59  A59        -0.4373
    964  P         43.5970    4.1850    8.8670 P.3    60  C60         0.2141
    965  C5'       42.9630    5.7070    6.7960 C.3    60  C60         0.1812
    966  O5'       43.2940    5.5920    8.1740 O.3    60  C60        -0.3114
    967  C4'       42.5570    7.1320    6.5150 C.3    60  C60         0.1773
    968  O4'       41.3600    7.4530    7.2920 O.3    60  C60        -0.3307
    969  C3'       43.5560    8.1820    6.9840 C.3    60  C60         0.1860
    970  O3'       44.6360    8.3250    6.0650 O.3    60  C60        -0.3112
    971  C2'       42.6660    9.4190    7.0560 C.3    60  C60         0.2309
    972  O2'       42.3000    9.8830    5.7600 O.3    60  C60        -0.2156
    973  C1'       41.4210    8.8210    7.7140 C.3    60  C60         0.2420
    974  N1        41.4340    8.8470    9.1950 N.ar   60  C60        -0.2535
    975  C2        41.0390   10.0140    9.8710 C.ar   60  C60         0.3532
    976  O2        40.7670   11.0260    9.2220 O.2    60  C60        -0.2443
    977  N3        40.9750   10.0080   11.2160 N.ar   60  C60        -0.1739
    978  C4        41.3130    8.9030   11.8910 C.ar   60  C60         0.1759
    979  N4        41.1900    8.9180   13.2160 N.pl3  60  C60        -0.1070
    980  C5        41.7710    7.7300   11.2330 C.ar   60  C60         0.0566
    981  C6        41.8090    7.7390    9.9000 C.ar   60  C60         0.0850
    982  OP1       44.4230    3.3670    7.9250 O.2    60  C60        -0.5172
    983  OP2       44.1210    4.5160   10.1980 O.co2  60  C60        -0.4373
    984  P         46.0870    8.7780    6.5950 P.3    61  C61         0.2141
    985  C5'       45.5420   11.1270    5.5560 C.3    61  C61         0.1812
    986  O5'       46.0320   10.3720    6.6660 O.3    61  C61        -0.3114
    987  C4'       45.1370   12.5180    5.9980 C.3    61  C61         0.1773
    988  O4'       43.9980   12.4170    6.9050 O.3    61  C61        -0.3307
    989  C3'       46.1740   13.2980    6.7930 C.3    61  C61         0.1860
    990  O3'       47.0270   14.0110    5.9160 O.3    61  C61        -0.3112
    991  C2'       45.2990   14.2840    7.5690 C.3    61  C61         0.2309
    992  O2'       44.8570   15.3630    6.7500 O.3    61  C61        -0.2156
    993  C1'       44.1040   13.4040    7.9150 C.3    61  C61         0.2420
    994  N1        44.2140   12.7200    9.2140 N.ar   61  C61        -0.2535
    995  C2        43.7490   13.3810   10.3370 C.ar   61  C61         0.3532
    996  O2        43.4250   14.5620   10.2240 O.2    61  C61        -0.2443
    997  N3        43.6720   12.7170   11.5130 N.ar   61  C61        -0.1739
    998  C4        44.0880   11.4440   11.5850 C.ar   61  C61         0.1759
    999  N4        43.9450   10.8060   12.7490 N.pl3  61  C61        -0.1070
   1000  C5        44.6530   10.7740   10.4650 C.ar   61  C61         0.0566
   1001  C6        44.7030   11.4460    9.3080 C.ar   61  C61         0.0850
   1002  OP1       47.0640    8.4060    5.5340 O.2    61  C61        -0.5172
   1003  OP2       46.3010    8.3080    7.9850 O.co2  61  C61        -0.4373
   1004  P         48.5900   13.6990    5.9080 P.3    62  G62         0.2141
   1005  C5'       50.5150   14.9900    7.1210 C.3    62  G62         0.1812
   1006  O5'       49.1320   14.6500    7.0650 O.3    62  G62        -0.3114
   1007  C4'       50.8920   15.3710    8.5230 C.3    62  G62         0.1773
   1008  O4'       50.7070   14.2270    9.4040 O.3    62  G62        -0.3307
   1009  C3'       52.3350   15.8130    8.7050 C.3    62  G62         0.1860
   1010  O3'       52.3140   16.8770    9.6480 O.3    62  G62        -0.3112
   1011  C2'       52.9880   14.5600    9.2850 C.3    62  G62         0.2309
   1012  O2'       54.1470   14.8530   10.0320 O.3    62  G62        -0.2156
   1013  C1'       51.8660   14.0530   10.1900 C.3    62  G62         0.2408
   1014  N1        50.7480   10.6390   13.7880 N.ar   62  G62        -0.1709
   1015  C2        50.5870   12.0050   13.8010 C.ar   62  G62         0.2606
   1016  N2        50.0380   12.5270   14.9080 N.pl3  62  G62        -0.0859
   1017  N3        50.9340   12.8000   12.7970 N.ar   62  G62        -0.1918
   1018  C4        51.4700   12.1120   11.7680 C.ar   62  G62         0.1723
   1019  C5        51.6730   10.7550   11.6570 C.ar   62  G62         0.1748
   1020  C6        51.2840    9.9120   12.7270 C.ar   62  G62         0.3023
   1021  O6        51.3580    8.6820   12.7970 O.2    62  G62        -0.2633
   1022  N7        52.2570   10.4410   10.4370 N.ar   62  G62        -0.2173
   1023  C8        52.3910   11.5940    9.8350 C.ar   62  G62         0.1817
   1024  N9        51.9210   12.6480   10.5810 N.ar   62  G62        -0.2693
   1025  OP1       49.1220   14.1690    4.5910 O.2    62  G62        -0.5172
   1026  OP2       48.7950   12.3020    6.3320 O.co2  62  G62        -0.4373
   1027  P         53.1370   18.2190    9.3590 P.3    63  U63         0.2141
   1028  C5'       50.9050   19.5470    8.8960 C.3    63  U63         0.1812
   1029  O5'       52.1120   19.4000    9.6380 O.3    63  U63        -0.3114
   1030  C4'       49.9310   20.3720    9.6980 C.3    63  U63         0.1773
   1031  O4'       49.1230   19.4620   10.5020 O.3    63  U63        -0.3307
   1032  C3'       50.6010   21.3170   10.6930 C.3    63  U63         0.1860
   1033  O3'       49.7980   22.4710   10.8930 O.3    63  U63        -0.3112
   1034  C2'       50.6390   20.4730   11.9670 C.3    63  U63         0.2309
   1035  O2'       50.7310   21.2370   13.1490 O.3    63  U63        -0.2156
   1036  C1'       49.2880   19.7610   11.8790 C.3    63  U63         0.2420
   1037  N1        49.2170   18.5010   12.6410 N.ar   63  U63        -0.2534
   1038  C2        48.5710   18.5270   13.8660 C.ar   63  U63         0.3546
   1039  O2        48.0680   19.5310   14.3150 O.2    63  U63        -0.2443
   1040  N3        48.5320   17.3260   14.5380 N.ar   63  U63        -0.1530
   1041  C4        49.0610   16.1260   14.1160 C.ar   63  U63         0.2846
   1042  O4        48.9790   15.1350   14.8420 O.2    63  U63        -0.2650
   1043  C5        49.7130   16.1770   12.8380 C.ar   63  U63         0.0814
   1044  C6        49.7650   17.3390   12.1620 C.ar   63  U63         0.0870
   1045  OP1       53.5350   18.2320    7.9270 O.2    63  U63        -0.5172
   1046  OP2       54.1730   18.3270   10.4210 O.co2  63  U63        -0.4373
   1047  P         50.2290   23.8720   10.2400 P.3    64  A64         0.2141
   1048  C5'       48.0420   24.0140    8.8160 C.3    64  A64         0.1812
   1049  O5'       49.4580   23.9200    8.8510 O.3    64  A64        -0.3114
   1050  C4'       47.5230   23.4730    7.5150 C.3    64  A64         0.1773
   1051  O4'       47.7690   22.0430    7.4520 O.3    64  A64        -0.3307
   1052  C3'       46.0300   23.6670    7.3080 C.3    64  A64         0.1860
   1053  O3'       45.8530   24.8460    6.5170 O.3    64  A64        -0.3112
   1054  C2'       45.6240   22.3960    6.5610 C.3    64  A64         0.2309
   1055  O2'       45.8890   22.4610    5.1600 O.3    64  A64        -0.2156
   1056  C1'       46.5640   21.3600    7.1830 C.3    64  A64         0.2408
   1057  N1        46.6940   16.9580    9.7700 N.ar   64  A64        -0.2040
   1058  C2        47.0250   17.2880    8.5090 C.ar   64  A64         0.2016
   1059  N3        46.9090   18.4630    7.8910 N.ar   64  A64        -0.2048
   1060  C4        46.3830   19.3830    8.7120 C.ar   64  A64         0.1692
   1061  C5        45.9920   19.2000   10.0290 C.ar   64  A64         0.1518
   1062  C6        46.1650   17.9150   10.5720 C.ar   64  A64         0.1919
   1063  N6        45.8420   17.5920   11.8340 N.pl3  64  A64        -0.1054
   1064  N7        45.4940   20.3840   10.5610 N.ar   64  A64        -0.2193
   1065  C8        45.6000   21.2450    9.5710 C.ar   64  A64         0.1816
   1066  N9        46.1620   20.7100    8.4320 N.ar   64  A64        -0.2693
   1067  OP1       51.6760   23.8310    9.9480 O.2    64  A64        -0.5172
   1068  OP2       49.6690   24.9180   11.1300 O.co2  64  A64        -0.4373
   1069  P         44.5390   25.7410    6.6900 P.3    65  A65         0.2141
   1070  C5'       43.3310   24.6480    4.6240 C.3    65  A65         0.1812
   1071  O5'       43.3820   24.8520    6.0410 O.3    65  A65        -0.3114
   1072  C4'       42.3160   23.5890    4.2790 C.3    65  A65         0.1773
   1073  O4'       42.6830   22.3260    4.9260 O.3    65  A65        -0.3307
   1074  C3'       40.8660   23.8540    4.6800 C.3    65  A65         0.1860
   1075  O3'       40.0750   23.1660    3.7080 O.3    65  A65        -0.3112
   1076  C2'       40.8070   23.1340    6.0330 C.3    65  A65         0.2309
   1077  O2'       39.5190   22.8230    6.5540 O.3    65  A65        -0.2156
   1078  C1'       41.5780   21.8670    5.6920 C.3    65  A65         0.2408
   1079  N1        43.1250   17.2560    7.3170 N.ar   65  A65        -0.2040
   1080  C2        42.9110   17.7650    6.0880 C.ar   65  A65         0.2016
   1081  N3        42.5700   18.9970    5.7370 N.ar   65  A65        -0.2048
   1082  C4        42.4440   19.7850    6.8230 C.ar   65  A65         0.1692
   1083  C5        42.6330   19.4170    8.1460 C.ar   65  A65         0.1518
   1084  C6        42.9810   18.0770    8.3910 C.ar   65  A65         0.1919
   1085  N6        43.1740   17.5700    9.6120 N.pl3  65  A65        -0.1054
   1086  N7        42.4110   20.5000    8.9910 N.ar   65  A65        -0.2193
   1087  C8        42.0820   21.4770    8.1750 C.ar   65  A65         0.1816
   1088  N9        42.0390   21.1000    6.8520 N.ar   65  A65        -0.2693
   1089  OP1       44.6840   26.9440    5.8030 O.2    65  A65        -0.5172
   1090  OP2       44.2160   25.9310    8.1350 O.co2  65  A65        -0.4373
   1091  P         38.7510   23.8280    3.0930 P.3    66  A66         0.2141
   1092  C5'       37.3130   21.8290    4.0540 C.3    66  A66         0.1812
   1093  O5'       37.7720   22.5800    2.9300 O.3    66  A66        -0.3114
   1094  C4'       37.6660   20.3720    3.8670 C.3    66  A66         0.1773
   1095  O4'       39.0100   20.1040    4.3260 O.3    66  A66        -0.3307
   1096  C3'       36.8530   19.3810    4.6630 C.3    66  A66         0.1860
   1097  O3'       35.5520   19.2360    4.1210 O.3    66  A66        -0.3112
   1098  C2'       37.7120   18.1420    4.4860 C.3    66  A66         0.2309
   1099  O2'       37.6440   17.6460    3.1670 O.3    66  A66        -0.2156
   1100  C1'       39.0940   18.7410    4.7580 C.3    66  A66         0.2408
   1101  N1        39.8490   15.6870    8.7930 N.ar   66  A66        -0.2040
   1102  C2        39.8760   15.4670    7.4810 C.ar   66  A66         0.2016
   1103  N3        39.7320   16.3330    6.4720 N.ar   66  A66        -0.2048
   1104  C4        39.5360   17.5770    6.9430 C.ar   66  A66         0.1692
   1105  C5        39.4980   17.9690    8.2670 C.ar   66  A66         0.1518
   1106  C6        39.6530   16.9580    9.2350 C.ar   66  A66         0.1919
   1107  N6        39.6030   17.1840   10.5560 N.pl3  66  A66        -0.1054
   1108  N7        39.2920   19.3410    8.3660 N.ar   66  A66        -0.2193
   1109  C8        39.1900   19.7370    7.1160 C.ar   66  A66         0.1816
   1110  N9        39.2900   18.7110    6.2060 N.ar   66  A66        -0.2693
   1111  OP1       39.0710   24.2130    1.6680 O.2    66  A66        -0.5172
   1112  OP2       38.1500   24.8300    3.9890 O.co2  66  A66        -0.4373
   1113  P         34.2960   19.2760    5.0840 P.3    67  U67         0.2141
   1114  C5'       34.0150   16.8560    6.0830 C.3    67  U67         0.1812
   1115  O5'       34.6210   18.1330    6.1560 O.3    67  U67        -0.3114
   1116  C4'       34.9270   15.8660    5.3720 C.3    67  U67         0.1773
   1117  O4'       36.2190   15.7140    6.0530 O.3    67  U67        -0.3307
   1118  C3'       34.3450   14.4620    5.3520 C.3    67  U67         0.1860
   1119  O3'       33.4680   14.3290    4.2230 O.3    67  U67        -0.3112
   1120  C2'       35.5940   13.5980    5.2140 C.3    67  U67         0.2309
   1121  O2'       36.0580   13.5750    3.8830 O.3    67  U67        -0.2156
   1122  C1'       36.5860   14.3460    6.1050 C.3    67  U67         0.2420
   1123  N1        36.5710   13.9060    7.5090 N.ar   67  U67        -0.2534
   1124  C2        36.9820   12.6070    7.7950 C.ar   67  U67         0.3546
   1125  O2        37.3720   11.8240    6.9490 O.2    67  U67        -0.2443
   1126  N3        36.9240   12.2620    9.1240 N.ar   67  U67        -0.1530
   1127  C4        36.5180   13.0540   10.1750 C.ar   67  U67         0.2846
   1128  O4        36.4400   12.5610   11.3210 O.2    67  U67        -0.2650
   1129  C5        36.1360   14.3800    9.8040 C.ar   67  U67         0.0814
   1130  C6        36.1680   14.7480    8.5110 C.ar   67  U67         0.0870
   1131  OP1       33.0550   18.9520    4.3250 O.2    67  U67        -0.5172
   1132  OP2       34.3690   20.5530    5.8390 O.co2  67  U67        -0.4373
   1133  P         32.1350   13.4540    4.3430 P.3    68  G68         0.2141
   1134  C5'       33.1980   11.4310    3.0190 C.3    68  G68         0.1812
   1135  O5'       32.6550   11.9470    4.2410 O.3    68  G68        -0.3114
   1136  C4'       33.8340   10.0840    3.2660 C.3    68  G68         0.1773
   1137  O4'       34.8600   10.2020    4.2940 O.3    68  G68        -0.3307
   1138  C3'       32.8660    9.0520    3.8120 C.3    68  G68         0.1860
   1139  O3'       32.1710    8.4260    2.7290 O.3    68  G68        -0.3112
   1140  C2'       33.8130    8.0720    4.4900 C.3    68  G68         0.2309
   1141  O2'       34.4870    7.2640    3.5510 O.3    68  G68        -0.2156
   1142  C1'       34.8480    9.0300    5.0960 C.3    68  G68         0.2408
   1143  N1        34.7940    7.4660    9.8860 N.ar   68  G68        -0.1709
   1144  C2        35.1470    6.7890    8.7410 C.ar   68  G68         0.2606
   1145  N2        35.5430    5.5090    8.8820 N.pl3  68  G68        -0.0859
   1146  N3        35.1070    7.3260    7.5390 N.ar   68  G68        -0.1918
   1147  C4        34.6710    8.6030    7.5620 C.ar   68  G68         0.1723
   1148  C5        34.2810    9.3640    8.6320 C.ar   68  G68         0.1748
   1149  C6        34.3410    8.7830    9.9330 C.ar   68  G68         0.3023
   1150  O6        34.0560    9.2970   11.0170 O.2    68  G68        -0.2633
   1151  N7        33.8540   10.6230    8.2140 N.ar   68  G68        -0.2173
   1152  C8        34.0100   10.5960    6.9190 C.ar   68  G68         0.1817
   1153  N9        34.5190    9.4070    6.4650 N.ar   68  G68        -0.2693
   1154  OP1       31.2960   13.7670    3.1400 O.2    68  G68        -0.5172
   1155  OP2       31.5730   13.5950    5.6970 O.co2  68  G68        -0.4373
   1156  P         30.7040    7.8280    2.9450 P.3    69  U69         0.2141
   1157  C5'       31.6930    5.4190    3.3240 C.3    69  U69         0.1812
   1158  O5'       30.9210    6.5110    3.8140 O.3    69  U69        -0.3114
   1159  C4'       31.9900    4.4590    4.4530 C.3    69  U69         0.1773
   1160  O4'       32.8260    5.1360    5.4320 O.3    69  U69        -0.3307
   1161  C3'       30.7830    4.0150    5.2600 C.3    69  U69         0.1860
   1162  O3'       30.1590    2.9150    4.6090 O.3    69  U69        -0.3112
   1163  C2'       31.4360    3.6100    6.5760 C.3    69  U69         0.2309
   1164  O2'       32.1480    2.3860    6.5330 O.3    69  U69        -0.2156
   1165  C1'       32.4440    4.7330    6.7460 C.3    69  U69         0.2420
   1166  N1        31.9090    5.8930    7.4690 N.ar   69  U69        -0.2534
   1167  C2        31.9530    5.8320    8.8510 C.ar   69  U69         0.3546
   1168  O2        32.2720    4.8090    9.4390 O.2    69  U69        -0.2443
   1169  N3        31.5940    6.9890    9.5060 N.ar   69  U69        -0.1530
   1170  C4        31.1430    8.1620    8.9350 C.ar   69  U69         0.2846
   1171  O4        30.8850    9.1350    9.6560 O.2    69  U69        -0.2650
   1172  C5        31.0420    8.1300    7.4880 C.ar   69  U69         0.0814
   1173  C6        31.4210    7.0150    6.8230 C.ar   69  U69         0.0870
   1174  OP1       30.2350    7.3860    1.5830 O.2    69  U69        -0.5172
   1175  OP2       29.8360    8.7300    3.7600 O.co2  69  U69        -0.4373
   1176  P         28.5740    2.7060    4.7160 P.3    70  C70         0.2141
   1177  C5'       28.9330    0.6800    6.3520 C.3    70  C70         0.1812
   1178  O5'       28.3850    1.9760    6.1170 O.3    70  C70        -0.3114
   1179  C4'       28.9820    0.3880    7.8430 C.3    70  C70         0.1773
   1180  O4'       29.8020    1.3670    8.5200 O.3    70  C70        -0.3307
   1181  C3'       27.6600    0.4370    8.5990 C.3    70  C70         0.1860
   1182  O3'       26.9330   -0.7710    8.4050 O.3    70  C70        -0.3112
   1183  C2'       28.1440    0.6020   10.0320 C.3    70  C70         0.2309
   1184  O2'       28.6960   -0.5920   10.5720 O.3    70  C70        -0.2156
   1185  C1'       29.2940    1.5890    9.8240 C.3    70  C70         0.2420
   1186  N1        28.9130    3.0030    9.9380 N.ar   70  C70        -0.2535
   1187  C2        28.8820    3.5560   11.1980 C.ar   70  C70         0.3532
   1188  O2        28.9900    2.7970   12.1800 O.2    70  C70        -0.2443
   1189  N3        28.7090    4.8920   11.3370 N.ar   70  C70        -0.1739
   1190  C4        28.5080    5.6540   10.2540 C.ar   70  C70         0.1759
   1191  N4        28.3880    6.9660   10.4450 N.pl3  70  C70        -0.1070
   1192  C5        28.4300    5.0930    8.9460 C.ar   70  C70         0.0566
   1193  C6        28.6420    3.7700    8.8320 C.ar   70  C70         0.0850
   1194  OP1       28.2180    1.7700    3.6070 O.2    70  C70        -0.5172
   1195  OP2       27.8730    4.0320    4.8160 O.co2  70  C70        -0.4373
   1196  P         25.3630   -0.7240    8.1020 P.3    71  C71         0.2141
   1197  C5'       24.7050   -1.6310   10.4620 C.3    71  C71         0.1812
   1198  O5'       24.6980   -0.5610    9.5360 O.3    71  C71        -0.3114
   1199  C4'       24.6890   -1.0870   11.8650 C.3    71  C71         0.1773
   1200  O4'       25.7380   -0.1140   12.0140 O.3    71  C71        -0.3307
   1201  C3'       23.4580   -0.2890   12.2530 C.3    71  C71         0.1860
   1202  O3'       22.3600   -1.1270   12.5880 O.3    71  C71        -0.3112
   1203  C2'       23.9720    0.4260   13.4890 C.3    71  C71         0.2309
   1204  O2'       24.0750   -0.4770   14.5680 O.3    71  C71        -0.2156
   1205  C1'       25.3620    0.8350   13.0120 C.3    71  C71         0.2420
   1206  N1        25.3380    2.1620   12.3890 N.ar   71  C71        -0.2535
   1207  C2        25.3920    3.2840   13.2050 C.ar   71  C71         0.3532
   1208  O2        25.4100    3.1260   14.4430 O.2    71  C71        -0.2443
   1209  N3        25.4110    4.5080   12.6430 N.ar   71  C71        -0.1739
   1210  C4        25.3620    4.6380   11.3140 C.ar   71  C71         0.1759
   1211  N4        25.3940    5.8820   10.7940 N.pl3  71  C71        -0.1070
   1212  C5        25.2790    3.5040   10.4470 C.ar   71  C71         0.0566
   1213  C6        25.2680    2.2920   11.0270 C.ar   71  C71         0.0850
   1214  OP1       25.0110   -2.0680    7.5790 O.3    71  C71        -0.4373
   1215  OP2       24.9830    0.4720    7.3270 O.co2  71  C71        -0.5172
   1216  P         20.8620   -0.5750   12.4440 P.3    72  G72         0.2141
   1217  C5'       20.9140    0.2850   14.9010 C.3    72  G72         0.1812
   1218  O5'       20.7920    0.5920   13.5250 O.3    72  G72        -0.3114
   1219  C4'       20.8800    1.5500   15.7090 C.3    72  G72         0.1773
   1220  O4'       22.0560    2.3420   15.4380 O.3    72  G72        -0.3307
   1221  C3'       19.7240    2.4860   15.4050 C.3    72  G72         0.1860
   1222  O3'       18.6110    2.0370   16.1500 O.3    72  G72        -0.3112
   1223  C2'       20.2520    3.7990   15.9590 C.3    72  G72         0.2309
   1224  O2'       20.1600    3.8710   17.3750 O.3    72  G72        -0.2156
   1225  C1'       21.7200    3.7160   15.5370 C.3    72  G72         0.2408
   1226  N1        22.3100    8.1670   13.2780 N.ar   72  G72        -0.1709
   1227  C2        22.1860    7.8520   14.6170 C.ar   72  G72         0.2606
   1228  N2        22.1590    8.8800   15.4810 N.pl3  72  G72        -0.0859
   1229  N3        22.0860    6.6290   15.0740 N.ar   72  G72        -0.1918
   1230  C4        22.0980    5.7130   14.0820 C.ar   72  G72         0.1723
   1231  C5        22.2170    5.9080   12.7240 C.ar   72  G72         0.1748
   1232  C6        22.3320    7.2440   12.2360 C.ar   72  G72         0.3023
   1233  O6        22.4200    7.6450   11.0570 O.2    72  G72        -0.2633
   1234  N7        22.1770    4.6940   12.0520 N.ar   72  G72        -0.2173
   1235  C8        22.0180    3.8050   12.9990 C.ar   72  G72         0.1817
   1236  N9        21.9460    4.3650   14.2490 N.ar   72  G72        -0.2693
   1237  OP1       19.9560   -1.6590   12.8550 O.3    72  G72        -0.4373
   1238  OP2       20.7070    0.0380   11.0700 O.co2  72  G72        -0.5172
   1239  P         17.1400    2.3870   15.6650 P.3    73  A73         0.2141
   1240  C5'       15.6880    4.5080   15.9320 C.3    73  A73         0.1812
   1241  O5'       16.9630    3.9150   16.0230 O.3    73  A73        -0.3114
   1242  C4'       15.7280    5.8620   16.5600 C.3    73  A73         0.1773
   1243  O4'       16.7340    6.6450   15.8690 O.3    73  A73        -0.3307
   1244  C3'       14.4390    6.6430   16.4090 C.3    73  A73         0.1860
   1245  O3'       13.6060    6.3710   17.5190 O.3    73  A73        -0.3112
   1246  C2'       14.9560    8.0670   16.4280 C.3    73  A73         0.2309
   1247  O2'       15.3320    8.4960   17.7260 O.3    73  A73        -0.2156
   1248  C1'       16.2050    7.9140   15.5670 C.3    73  A73         0.2408
   1249  N1        15.5110   11.0150   11.6150 N.ar   73  A73        -0.2040
   1250  C2        15.6430   11.2300   12.9150 C.ar   73  A73         0.2016
   1251  N3        15.7790   10.3520   13.9020 N.ar   73  A73        -0.2048
   1252  C4        15.7690    9.1020   13.4220 C.ar   73  A73         0.1692
   1253  C5        15.6300    8.7140   12.1080 C.ar   73  A73         0.1518
   1254  C6        15.5030    9.7420   11.1630 C.ar   73  A73         0.1919
   1255  N6        15.3840    9.5330    9.8540 N.pl3  73  A73        -0.1054
   1256  N7        15.6510    7.3300   11.9990 N.ar   73  A73        -0.2193
   1257  C8        15.8210    6.9250   13.2360 C.ar   73  A73         0.1816
   1258  N9        15.9300    7.9490   14.1390 N.ar   73  A73        -0.2693
   1259  OP1       16.2130    1.6360   16.5580 O.3    73  A73        -0.4373
   1260  OP2       16.9950    2.2710   14.1950 O.co2  73  A73        -0.5172
   1261  P         12.0330    6.1210   17.2940 P.3    74  U74         0.2141
   1262  C5'       11.8770    8.5870   18.1250 C.3    74  U74         0.1812
   1263  O5'       11.4150    7.5840   17.2510 O.3    74  U74        -0.3114
   1264  C4'       11.8940    9.9030   17.4090 C.3    74  U74         0.1773
   1265  O4'       12.8220    9.8070   16.3000 O.3    74  U74        -0.3307
   1266  C3'       10.6050   10.2830   16.7040 C.3    74  U74         0.1860
   1267  O3'        9.6620   10.8090   17.6240 O.3    74  U74        -0.3112
   1268  C2'       11.1100   11.3490   15.7450 C.3    74  U74         0.2309
   1269  O2'       11.3890   12.5730   16.4110 O.3    74  U74        -0.2156
   1270  C1'       12.4300   10.7150   15.2870 C.3    74  U74         0.2420
   1271  N1        12.3480    9.9690   14.0240 N.ar   74  U74        -0.2534
   1272  C2        12.3640   10.7080   12.8690 C.ar   74  U74         0.3546
   1273  O2        12.3790   11.9170   12.8820 O.2    74  U74        -0.2443
   1274  N3        12.3570    9.9740   11.7070 N.ar   74  U74        -0.1530
   1275  C4        12.3190    8.6000   11.5960 C.ar   74  U74         0.2846
   1276  O4        12.4360    8.0780   10.4820 O.2    74  U74        -0.2650
   1277  C5        12.2610    7.9070   12.8470 C.ar   74  U74         0.0814
   1278  C6        12.2800    8.6020   13.9890 C.ar   74  U74         0.0870
   1279  OP1       11.5660    5.4510   18.5400 O.3    74  U74        -0.4373
   1280  OP2       11.7600    5.4950   15.9720 O.co2  74  U74        -0.5172
   1281  P          8.0940   10.5700   17.3760 P.3    75  U75         0.2141
   1282  C5'        7.8630   12.8810   16.1380 C.3    75  U75         0.1812
   1283  O5'        7.7380   11.4640   16.1030 O.3    75  U75        -0.3114
   1284  C4'        7.6440   13.4650   14.7600 C.3    75  U75         0.1773
   1285  O4'        8.7730   13.1710   13.8920 O.3    75  U75        -0.3307
   1286  C3'        6.4490   12.9390   13.9870 C.3    75  U75         0.1860
   1287  O3'        5.2570   13.5630   14.4530 O.3    75  U75        -0.3112
   1288  C2'        6.8190   13.3580   12.5710 C.3    75  U75         0.2309
   1289  O2'        6.7000   14.7490   12.3790 O.3    75  U75        -0.2156
   1290  C1'        8.3080   13.0070   12.5580 C.3    75  U75         0.2420
   1291  N1         8.5500   11.6190   12.1470 N.ar   75  U75        -0.2534
   1292  C2         8.6400   11.3720   10.7990 C.ar   75  U75         0.3546
   1293  O2         8.4670   12.2460    9.9540 O.2    75  U75        -0.2443
   1294  N3         8.9160   10.0690   10.4670 N.ar   75  U75        -0.1530
   1295  C4         9.0760    9.0140   11.3230 C.ar   75  U75         0.2846
   1296  O4         9.2610    7.8930   10.8620 O.2    75  U75        -0.2650
   1297  C5         8.9480    9.3470   12.7150 C.ar   75  U75         0.0814
   1298  C6         8.6970   10.6070   13.0670 C.ar   75  U75         0.0870
   1299  OP1        7.4150   11.1390   18.5690 O.3    75  U75        -0.4373
   1300  OP2        7.8400    9.1700   16.9850 O.co2  75  U75        -0.5172
   1301  P          3.8490   12.7960   14.3290 P.3    76  A76         0.2141
   1302  C5'        3.1860   14.0590   12.1050 C.3    76  A76         0.1812
   1303  O5'        3.5080   12.8340   12.7670 O.3    76  A76        -0.3114
   1304  C4'        2.9440   13.8240   10.6290 C.3    76  A76         0.1773
   1305  O4'        4.1890   13.4760    9.9500 O.3    76  A76        -0.3307
   1306  C3'        1.9980   12.6870   10.2720 C.3    76  A76         0.1860
   1307  O3'        0.6360   13.1080   10.4280 O.3    76  A76        -0.3112
   1308  C2'        2.3910   12.4340    8.8180 C.3    76  A76         0.2309
   1309  O2'        1.9050   13.4410    7.9490 O.3    76  A76        -0.2156
   1310  C1'        3.9220   12.5490    8.9060 C.3    76  A76         0.2408
   1311  N1         5.9780    8.1770    7.1010 N.ar   76  A76        -0.2040
   1312  C2         5.4150    9.2300    6.4890 C.ar   76  A76         0.2016
   1313  N3         4.9010   10.3430    7.0220 N.ar   76  A76        -0.2048
   1314  C4         4.9940   10.3160    8.3590 C.ar   76  A76         0.1692
   1315  C5         5.5380    9.3100    9.1310 C.ar   76  A76         0.1518
   1316  C6         6.0630    8.1900    8.4510 C.ar   76  A76         0.1919
   1317  N6         6.6410    7.1490    9.0660 N.pl3  76  A76        -0.1054
   1318  N7         5.4600    9.6330   10.4810 N.ar   76  A76        -0.2193
   1319  C8         4.8890   10.8120   10.4890 C.ar   76  A76         0.1816
   1320  N9         4.5750   11.2850    9.2440 N.ar   76  A76        -0.2693
   1321  OP1        2.8370   13.6050   15.0480 O.3    76  A76        -0.4373
   1322  OP2        4.0410   11.3710   14.6990 O.co2  76  A76        -0.5172
   1323  P         -0.4560   12.0880   11.0440 P.3    77  U77         0.2141
   1324  C5'       -1.3390   11.6960    8.6230 C.3    77  U77         0.1812
   1325  O5'       -0.7960   11.1500    9.8100 O.3    77  U77        -0.3114
   1326  C4'       -1.2550   10.6830    7.5190 C.3    77  U77         0.1773
   1327  O4'        0.1450   10.4210    7.2380 O.3    77  U77        -0.3307
   1328  C3'       -1.7790    9.3030    7.8660 C.3    77  U77         0.1860
   1329  O3'       -3.1920    9.2400    7.7730 O.3    77  U77        -0.3112
   1330  C2'       -1.1060    8.4640    6.7990 C.3    77  U77         0.2309
   1331  O2'       -1.7080    8.6390    5.5290 O.3    77  U77        -0.2156
   1332  C1'        0.2900    9.0840    6.7990 C.3    77  U77         0.2420
   1333  N1         1.2240    8.4010    7.7020 N.ar   77  U77        -0.2534
   1334  C2         1.8860    7.3190    7.1910 C.ar   77  U77         0.3546
   1335  O2         1.7040    6.9200    6.0500 O.2    77  U77        -0.2443
   1336  N3         2.7650    6.7150    8.0530 N.ar   77  U77        -0.1530
   1337  C4         3.0340    7.0780    9.3480 C.ar   77  U77         0.2846
   1338  O4         3.8600    6.4240    9.9960 O.2    77  U77        -0.2650
   1339  C5         2.2980    8.2110    9.8170 C.ar   77  U77         0.0814
   1340  C6         1.4330    8.8220    8.9930 C.ar   77  U77         0.0870
   1341  OP1       -1.6750   12.8620   11.4070 O.2    77  U77        -0.5172
   1342  OP2        0.1770   11.2190   12.0650 O.co2  77  U77        -0.4373
   1343  P         -3.9890    8.1410    8.6280 P.3    78  G78         0.2141
   1344  C5'       -4.0980    6.5810    6.5420 C.3    78  G78         0.1812
   1345  O5'       -3.6650    6.7770    7.8800 O.3    78  G78        -0.3114
   1346  C4'       -3.4730    5.3410    5.9750 C.3    78  G78         0.1773
   1347  O4'       -2.0270    5.4690    6.0130 O.3    78  G78        -0.3307
   1348  C3'       -3.7250    4.0710    6.7650 C.3    78  G78         0.1860
   1349  O3'       -5.0090    3.5370    6.4620 O.3    78  G78        -0.3112
   1350  C2'       -2.6090    3.1820    6.2410 C.3    78  G78         0.2309
   1351  O2'       -2.9010    2.6750    4.9560 O.3    78  G78        -0.2156
   1352  C1'       -1.4530    4.1820    6.1510 C.3    78  G78         0.2408
   1353  N1         2.2260    1.7520    8.6290 N.ar   78  G78        -0.1709
   1354  C2         1.6130    1.4410    7.4400 C.ar   78  G78         0.2606
   1355  N2         2.0320    0.3350    6.8260 N.pl3  78  G78        -0.0859
   1356  N3         0.6520    2.1650    6.8940 N.ar   78  G78        -0.1918
   1357  C4         0.3360    3.2380    7.6480 C.ar   78  G78         0.1723
   1358  C5         0.8750    3.6380    8.8490 C.ar   78  G78         0.1748
   1359  C6         1.9190    2.8580    9.4220 C.ar   78  G78         0.3023
   1360  O6         2.5380    3.0550   10.4790 O.2    78  G78        -0.2633
   1361  N7         0.2650    4.8000    9.2990 N.ar   78  G78        -0.2173
   1362  C8        -0.6190    5.0780    8.3800 C.ar   78  G78         0.1817
   1363  N9        -0.6200    4.1730    7.3480 N.ar   78  G78        -0.2693
   1364  OP1       -5.4380    8.4060    8.4450 O.2    78  G78        -0.5172
   1365  OP2       -3.4100    8.0900    9.9960 O.co2  78  G78        -0.4373
   1366  P         -5.6750    2.4450    7.4420 P.3    79  U79         0.2141
   1367  C5'       -4.7450    0.4350    6.0320 C.3    79  U79         0.1812
   1368  O5'       -4.7610    1.1510    7.2660 O.3    79  U79        -0.3114
   1369  C4'       -3.8720   -0.7900    6.1450 C.3    79  U79         0.1773
   1370  O4'       -2.4950   -0.3820    6.3600 O.3    79  U79        -0.3307
   1371  C3'       -4.1670   -1.7100    7.3190 C.3    79  U79         0.1860
   1372  O3'       -5.2230   -2.6070    7.0060 O.3    79  U79        -0.3112
   1373  C2'       -2.8460   -2.4530    7.4720 C.3    79  U79         0.2309
   1374  O2'       -2.6800   -3.5080    6.5460 O.3    79  U79        -0.2156
   1375  C1'       -1.8390   -1.3440    7.1710 C.3    79  U79         0.2420
   1376  N1        -1.3590   -0.6730    8.3840 N.ar   79  U79        -0.2534
   1377  C2        -0.3310   -1.2760    9.0840 C.ar   79  U79         0.3546
   1378  O2         0.1570   -2.3420    8.7560 O.2    79  U79        -0.2443
   1379  N3         0.1000   -0.5840   10.1860 N.ar   79  U79        -0.1530
   1380  C4        -0.3890    0.6150   10.6570 C.ar   79  U79         0.2846
   1381  O4         0.1320    1.1340   11.6460 O.2    79  U79        -0.2650
   1382  C5        -1.4690    1.1620    9.8910 C.ar   79  U79         0.0814
   1383  C6        -1.9050    0.5140    8.8070 C.ar   79  U79         0.0870
   1384  OP1       -7.0190    2.1390    6.8840 O.2    79  U79        -0.5172
   1385  OP2       -5.5510    2.9270    8.8420 O.co2  79  U79        -0.4373
   1386  P         -6.1310   -3.2120    8.1890 P.3    80  C80         0.2141
   1387  C5'       -4.5130   -5.2730    8.3730 C.3    80  C80         0.1812
   1388  O5'       -5.1350   -4.1550    9.0020 O.3    80  C80        -0.3114
   1389  C4'       -3.5970   -5.9810    9.3440 C.3    80  C80         0.1773
   1390  O4'       -2.4460   -5.1490    9.6220 O.3    80  C80        -0.3307
   1391  C3'       -4.1850   -6.2560   10.7170 C.3    80  C80         0.1860
   1392  O3'       -4.9290   -7.4660   10.6870 O.3    80  C80        -0.3112
   1393  C2'       -2.9400   -6.4070   11.5880 C.3    80  C80         0.2309
   1394  O2'       -2.4230   -7.7230   11.5800 O.3    80  C80        -0.2156
   1395  C1'       -1.9550   -5.4440   10.9170 C.3    80  C80         0.2420
   1396  N1        -1.7780   -4.1760   11.6420 N.ar   80  C80        -0.2535
   1397  C2        -0.7100   -4.0560   12.5280 C.ar   80  C80         0.3532
   1398  O2         0.0480   -5.0250   12.6840 O.2    80  C80        -0.2443
   1399  N3        -0.5280   -2.8900   13.1910 N.ar   80  C80        -0.1739
   1400  C4        -1.3700   -1.8740   12.9960 C.ar   80  C80         0.1759
   1401  N4        -1.1510   -0.7410   13.6660 N.pl3  80  C80        -0.1070
   1402  C5        -2.4740   -1.9730   12.1020 C.ar   80  C80         0.0566
   1403  C6        -2.6400   -3.1310   11.4520 C.ar   80  C80         0.0850
   1404  OP1       -7.1780   -4.0640    7.5710 O.2    80  C80        -0.5172
   1405  OP2       -6.5260   -2.0870    9.0740 O.co2  80  C80        -0.4373
   1406  P         -6.2570   -7.6070   11.5810 P.3    81  C81         0.2141
   1407  C5'       -4.9930   -8.3230   13.7710 C.3    81  C81         0.1813
   1408  O5'       -5.7440   -7.3360   13.0680 O.3    81  C81        -0.3114
   1409  C4'       -4.4560   -7.7570   15.0660 C.3    81  C81         0.1801
   1410  O4'       -3.7430   -6.5280   14.8070 O.3    81  C81        -0.3306
   1411  C3'       -5.4840   -7.3140   16.0950 C.3    81  C81         0.2161
   1412  O3'       -6.1430   -8.3930   16.7770 O.3    81  C81        -0.2175
   1413  C2'       -4.6670   -6.3900   17.0010 C.3    81  C81         0.2338
   1414  O2'       -3.9960   -7.0740   18.0430 O.3    81  C81        -0.2155
   1415  C1'       -3.6360   -5.8080   16.0220 C.3    81  C81         0.2421
   1416  N1        -3.8160   -4.3740   15.7410 N.ar   81  C81        -0.2535
   1417  C2        -2.8590   -3.4690   16.2220 C.ar   81  C81         0.3532
   1418  O2        -1.8770   -3.9060   16.8480 O.2    81  C81        -0.2443
   1419  N3        -3.0270   -2.1460   15.9910 N.ar   81  C81        -0.1739
   1420  C4        -4.0930   -1.7190   15.3070 C.ar   81  C81         0.1759
   1421  N4        -4.2230   -0.4050   15.1110 N.pl3  81  C81        -0.1070
   1422  C5        -5.0740   -2.6190   14.7950 C.ar   81  C81         0.0566
   1423  C6        -4.8970   -3.9260   15.0320 C.ar   81  C81         0.0850
   1424  OP1       -6.7080   -9.0220   11.4840 O.3    81  C81        -0.4373
   1425  OP2       -7.1880   -6.5130   11.1990 O.co2  81  C81        -0.5172
@<TRIPOS>BOND
     1   723   722    2
     2   724   722   ar
     3   724   725   ar
     4   689   668    2
     5   726   725    2
     6   709   691    2
     7   722   721   ar
     8   725   727   ar
     9   297   279    2
    10   264   263    1
    11   669   670    1
    12   669   671    1
    13   262   279    1
    14   262   261    1
    15   259   257    1
    16   259   260    1
    17   259   261    1
    18   257   258    1
    19   721   720    1
    20   721   728   ar
    21   244   243    1
    22   691   710    1
    23   691   674    1
    24   691   693    1
    25   727   728   ar
    26   668   652    1
    27   668   670    1
    28   668   690    1
    29   652   651    1
    30   674   673    1
    31   720   715    1
    32   720   718    1
    33   715   714    1
    34   666   646    2
    35   260   265    1
    36   279   281    1
    37   279   298    1
    38   671   673    1
    39   671   672    1
    40   261   263    1
    41   277   256    2
    42   647   649    1
    43   647   648    1
    44   263   265    1
    45   730   711    2
    46   649   651    1
    47   649   650    1
    48   654   653    1
    49   265   276    1
    50   242   256    1
    51   242   241    1
    52   281   280    1
    53   148   128    2
    54   258   256    1
    55   673   675    1
    56   693   692    1
    57   713   711    1
    58   713   712    1
    59   651   653    1
    60   631   630    1
    61   243   241    1
    62   243   245    1
    63   714   712    1
    64   714   716    1
    65   692   694    1
    66   256   278    1
    67   168   150    2
    68   672   677    1
    69   718   719    1
    70   718   716    1
    71   646   648    1
    72   646   629    1
    73   646   667    1
    74   225   224   ar
    75   225   226   ar
    76   224   229   ar
    77   239   241    1
    78   239   240    1
    79   239   237    1
    80   676   675    1
    81   711   729    1
    82   711   697    1
    83   717   716    1
    84   717   731    1
    85   653   655    1
    86   650   655    1
    87   629   628    1
    88   245   240    1
    89   245   246    1
    90   750   731    2
    91   169   150    1
    92   280   282    1
    93   248   247    2
    94   675   677    1
    95   696   694    1
    96   696   697    1
    97   696   698    1
    98   276   275   ar
    99   276   270   ar
   100   282   283    1
   101   282   284    1
   102   630   628    1
   103   630   632    1
   104   635   634    1
   105   694   695    1
   106   128   114    1
   107   128   149    1
   108   128   130    1
   109   749   731    1
   110   150   134    1
   111   150   152    1
   112   731   733    1
   113   655   665    1
   114   226   227   ar
   115   677   688    1
   116   237   238    1
   117   283   288    1
   118   114   113    1
   119   287   286    1
   120   269   270   ar
   121   269   267   ar
   122   129   130    1
   123   129   131    1
   124   187   188   ar
   125   187   184   ar
   126   628   626    1
   127   229   230    1
   128   229   228   ar
   129   188   189   ar
   130   275   274   ar
   131   285   284    1
   132   285   299    1
   133   270   271   ar
   134   698   699    1
   135   698   700    1
   136   246   247   ar
   137   246   253   ar
   138   636   634   ar
   139   636   637   ar
   140   247   249   ar
   141   134   133    1
   142   126   108    2
   143   634   633   ar
   144   632   627    1
   145   632   643    1
   146   320   299    2
   147   284   286    1
   148   151   152    1
   149   151   153    1
   150   626   627    1
   151   626   624    1
   152   687   688   ar
   153   687   686   ar
   154   288   286    1
   155   288   289    1
   156   109   111    1
   157   109   110    1
   158   688   682   ar
   159   268   267    1
   160   695   700    1
   161   227   228   ar
   162   227   233   ar
   163   116   115    1
   164   267   266   ar
   165   111   113    1
   166   111   112    1
   167   131   133    1
   168   131   132    1
   169   665   664   ar
   170   665   659   ar
   171   238   236    1
   172   113   115    1
   173   733   732    1
   174   228   231   ar
   175   222   221    1
   176   186   185    1
   177   184   185   ar
   178   184   183   ar
   179   299   301    1
   180   299   321    1
   181   189   179    1
   182   189   183   ar
   183   300   301    1
   184   300   302    1
   185   133   135    1
   186   274   271   ar
   187   664   663   ar
   188   700   701    1
   189   253   252   ar
   190   637   643   ar
   191   637   638   ar
   192   271   272   ar
   193   221   223    1
   194   221   219    1
   195   249   250   ar
   196   708   701   ar
   197   708   707   ar
   198   643   642   ar
   199   179   174    1
   200   179   177    1
   201   633   639   ar
   202   110   108    1
   203   115   117    1
   204   624   625    1
   205   108    92    1
   206   108   127    1
   207   686   683   ar
   208   254   236    2
   209   185   180   ar
   210   732   734    1
   211   153   154    1
   212   153   155    1
   213   289   296   ar
   214   289   290   ar
   215   233   223    1
   216   233   232   ar
   217   682   681   ar
   218   682   683   ar
   219   183   182   ar
   220   296   295   ar
   221   174   173    1
   222   659   658   ar
   223   659   660   ar
   224   625   623    1
   225    92    91    1
   226   658   657   ar
   227   701   702   ar
   228  1174  1156    2
   229   223   218    1
   230   266   272   ar
   231   236   220    1
   232   236   255    1
   233   707   705   ar
   234   132   137    1
   235   112   117    1
   236   302   303    1
   237   302   304    1
   238  1111  1091    2
   239   220   219    1
   240   190   170    2
   241   178   177    1
   242   231   232   ar
   243   136   135    1
   244    94    93    1
   245   154   159    1
   246   272   273    2
   247   681   679   ar
   248   166   167   ar
   249   166   164   ar
   250   611   610    1
   251   219   217    1
   252   167   160   ar
   253   252   250   ar
   254   250   251    1
   255   135   137    1
   256   303   308    1
   257   663   660   ar
   258   683   684   ar
   259   638   639   ar
   260   638   641   ar
   261   615   614    2
   262   117   118    1
   263   177   175    1
   264   639   640    2
   265   291   290    2
   266   642   641   ar
   267   155   157    1
   268   155   156    1
   269   747   748   ar
   270   747   745   ar
   271   644   623    2
   272   290   292   ar
   273   748   741   ar
   274   660   661   ar
   275   180   181   ar
   276   295   293   ar
   277   137   147    1
   278   340   322    2
   279   172   170    1
   280   172   171    1
   281   173   175    1
   282   173   171    1
   283  1139  1156    1
   284  1139  1138    1
   285   734   735    1
   286   734   736    1
   287   182   181   ar
   288   623   609    1
   289   623   645    1
   290   305   304    1
   291   305   322    1
   292   657   656   ar
   293    91    93    1
   294    91    89    1
   295  1093  1091    1
   296  1093  1092    1
   297   610   612    1
   298   610   608    1
   299  1156  1175    1
   300  1156  1158    1
   301   702   703    2
   302   702   704   ar
   303    93    95    1
   304   218   217    1
   305   304   306    1
   306   157   159    1
   307   157   158    1
   308   170   156    1
   309   170   191    1
   310  1134  1136    1
   311  1134  1135    1
   312   705   704   ar
   313   705   706    2
   314   735   740    1
   315  1091  1075    1
   316  1091  1112    1
   317   159   160    1
   318   160   161   ar
   319   736   738    1
   320   736   737    1
   321   164   165    2
   322   164   163   ar
   323  1154  1133    2
   324  1099  1098    1
   325   217   215    1
   326   614   616   ar
   327   614   613   ar
   328   679   680    1
   329   679   678   ar
   330  1136  1138    1
   331  1136  1137    1
   332   341   322    1
   333   738   740    1
   334   738   739    1
   335   322   324    1
   336  1157  1158    1
   337  1157  1159    1
   338    89    87    1
   339    89    90    1
   340   175   176    1
   341   746   745    2
   342   308   306    1
   343   308   319    1
   344   745   744   ar
   345   118   125   ar
   346   118   119   ar
   347   684   678   ar
   348   684   685    2
   349   609   608    1
   350  1141  1140    1
   351   307   306    1
   352   292   293   ar
   353  1194  1176    2
   354   616   617   ar
   355   769   751    2
   356   741   740    1
   357   741   742   ar
   358  1075  1074    1
   359   293   294    1
   360   146   147   ar
   361   146   145   ar
   362   147   141   ar
   363   318   319   ar
   364   318   317   ar
   365   612   613    1
   366   612   607    1
   367   125   124   ar
   368    87    88    1
   369  1138  1140    1
   370   661   656   ar
   371   661   662    1
   372  1094  1092    1
   373  1094  1095    1
   374  1094  1096    1
   375  1121  1120    1
   376   608   606    1
   377   120   119    2
   378  1097  1096    1
   379  1097  1113    1
   380   319   313   ar
   381   613   620   ar
   382   163   161   ar
   383  1119  1133    1
   384  1119  1118    1
   385  1135  1133    1
   386   161   162    2
   387    95    90    1
   388    95   105    1
   389  1072  1070    1
   390  1072  1074    1
   391  1072  1073    1
   392   176   192    1
   393  1137  1142    1
   394   119   121   ar
   395   737   751    1
   396  1131  1113    2
   397  1095  1100    1
   398  1133  1155    1
   399   770   751    1
   400  1159  1161    1
   401  1159  1160    1
   402   106    86    2
   403  1098  1096    1
   404  1098  1100    1
   405  1140  1142    1
   406   751   753    1
   407   215   216    1
   408   592   591    1
   409  1025  1004    2
   410   744   742   ar
   411  1162  1176    1
   412  1162  1161    1
   413  1070  1071    1
   414   317   314   ar
   415    88    86    1
   416  1074  1076    1
   417  1176  1195    1
   418  1176  1178    1
   419  1100  1110    1
   420   742   743    2
   421   617   618    1
   422   617   619   ar
   423   324   323    1
   424   145   142   ar
   425   606   607    1
   426   606   604    1
   427  1073  1078    1
   428  1351  1350    1
   429   124   122   ar
   430   141   140   ar
   431   141   142   ar
   432  1113  1132    1
   433  1113  1115    1
   434  1142  1153    1
   435  1055  1054    1
   436  1120  1118    1
   437  1120  1122    1
   438    98    99   ar
   439    98    97   ar
   440   323   325    1
   441  1161  1163    1
   442  1118  1116    1
   443  1116  1117    1
   444  1116  1114    1
   445   620   619   ar
   446  1160  1165    1
   447   105    99   ar
   448   105   104   ar
   449    86    72    1
   450    86   107    1
   451   313   314   ar
   452   313   312   ar
   453   121   122   ar
   454  1331  1330    1
   455  1002   984    2
   456   216   214    1
   457   985   987    1
   458   985   986    1
   459   140   139   ar
   460  1078  1076    1
   461  1078  1088    1
   462   807   806    1
   463  1081  1080   ar
   464  1081  1082   ar
   465   972   971    1
   466   314   315   ar
   467   142   143   ar
   468   591   590   ar
   469   591   593   ar
   470  1089  1069    2
   471   193   194    1
   472   193   195    1
   473    99   100   ar
   474   192   194    1
   475   192   213    2
   476   192   212    1
   477   122   123    2
   478  1004   990    1
   479  1004  1026    1
   480  1004  1006    1
   481   990   989    1
   482    97    96   ar
   483   590   596   ar
   484  1346  1347    1
   485  1346  1344    1
   486  1346  1348    1
   487   987   989    1
   488   987   988    1
   489  1347  1352    1
   490  1367  1369    1
   491  1367  1368    1
   492  1076  1077    1
   493   753   752    1
   494  1071  1069    1
   495  1335  1334    2
   496  1117  1122    1
   497   970   984    1
   498   970   969    1
   499  1114  1115    1
   500  1080  1079   ar
   501  1122  1123    1
   502  1178  1177    1
   503  1369  1370    1
   504  1369  1371    1
   505  1352  1350    1
   506  1352  1363    1
   507  1110  1104   ar
   508  1110  1109   ar
   509  1350  1348    1
   510   312   310   ar
   511    72    71    1
   512    74    73    1
   513   604   605    1
   514  1177  1179    1
   515  1370  1375    1
   516   104   103   ar
   517  1349  1348    1
   518  1349  1366    1
   519  1153  1152   ar
   520  1153  1147   ar
   521   752   754    1
   522  1103  1104   ar
   523  1103  1102   ar
   524  1312  1313   ar
   525  1312  1311   ar
   526   967   965    1
   527   967   969    1
   528   967   968    1
   529  1053  1069    1
   530  1053  1052    1
   531   786   785    2
   532  1164  1163    1
   533  1344  1345    1
   534  1374  1373    1
   535  1054  1056    1
   536  1054  1052    1
   537   801   806   ar
   538   801   802   ar
   539  1163  1165    1
   540   984   986    1
   541   984  1003    1
   542   825   824    2
   543   338   339   ar
   544   338   336   ar
   545  1069  1090    1
   546   325   326    1
   547   325   327    1
   548   593   594   ar
   549  1165  1166    1
   550   992   991    1
   551   806   805   ar
   552   989   991    1
   553   965   966    1
   554  1330  1332    1
   555  1330  1328    1
   556  1332  1327    1
   557  1332  1333    1
   558  1173  1166   ar
   559  1173  1172   ar
   560  1082  1088   ar
   561  1082  1083   ar
   562  1355  1354    1
   563   339   332   ar
   564   826   824   ar
   565   826   827   ar
   566  1088  1087   ar
   567  1384  1366    2
   568  1356  1354   ar
   569  1356  1357   ar
   570   326   331    1
   571   988   993    1
   572   139   138   ar
   573   605   603    1
   574  1152  1151   ar
   575  1104  1105   ar
   576  1125  1124    2
   577   969   971    1
   578   100   103   ar
   579   100   101   ar
   580  1372  1371    1
   581  1372  1386    1
   582  1313  1314   ar
   583   828   827    1
   584   971   973    1
   585    96   101   ar
   586    73    71    1
   587    73    75    1
   588  1006  1005    1
   589   214   235    2
   590   214   198    1
   591   214   234    1
   592   315   316    2
   593   315   309   ar
   594  1311  1316   ar
   595   195   196    1
   596   195   197    1
   597  1109  1108   ar
   598  1005  1007    1
   599   596   597    2
   600   596   595   ar
   601   143   138   ar
   602   143   144    1
   603  1375  1373    1
   604  1375  1376    1
   605  1056  1051    1
   606  1056  1066    1
   607  1334  1333   ar
   608  1334  1336   ar
   609  1327  1326    1
   610  1368  1366    1
   611   364   342    2
   612   968   973    1
   613  1052  1050    1
   614  1079  1084   ar
   615  1371  1373    1
   616  1215  1196    2
   617   824   823   ar
   618  1363  1357   ar
   619  1363  1362   ar
   620    71    69    1
   621   767   768   ar
   622   767   765   ar
   623  1354  1353   ar
   624  1366  1385    1
   625  1051  1050    1
   626  1166  1167   ar
   627   310   309   ar
   628   310   311    1
   629  1102  1101   ar
   630  1172  1170   ar
   631   950   949    1
   632  1123  1124   ar
   633  1123  1130   ar
   634  1050  1048    1
   635  1326  1328    1
   636  1326  1324    1
   637  1146  1147   ar
   638  1146  1144   ar
   639  1147  1148   ar
   640   991   993    1
   641  1404  1386    2
   642  1214  1196    1
   643   827   829   ar
   644   198   197    1
   645   802   803   ar
   646   785   787   ar
   647   785   784   ar
   648   101   102    1
   649   327   328    1
   650   327   329    1
   651  1357  1358   ar
   652   768   761   ar
   653  1333  1340   ar
   654   973   974    1
   655   336   337    2
   656   336   335   ar
   657  1329  1328    1
   658  1329  1343    1
   659   790   771    2
   660  1124  1126   ar
   661  1179  1180    1
   662  1179  1181    1
   663   594   595   ar
   664   594   600   ar
   665   787   788   ar
   666  1345  1343    1
   667  1059  1058   ar
   668  1059  1060   ar
   669   993   994    1
   670   328   342    1
   671    78    77    2
   672   982   964    2
   673  1045  1027    2
   674   754   755    1
   675   754   756    1
   676   196   201    1
   677  1309  1308    1
   678   588   587    1
   679   197   199    1
   680   332   331    1
   681   332   333   ar
   682  1336  1337   ar
   683   363   342    1
   684   755   760    1
   685  1196  1182    1
   686  1196  1198    1
   687   805   808   ar
   688   805   804   ar
   689   342   344    1
   690  1083  1084   ar
   691  1083  1086   ar
   692   595   598   ar
   693   966   964    1
   694  1087  1086   ar
   695  1386  1388    1
   696  1386  1405    1
   697   331   329    1
   698  1151  1148   ar
   699  1105  1108   ar
   700  1105  1106   ar
   701   766   765    1
   702  1314  1315   ar
   703  1314  1320   ar
   704  1387  1388    1
   705  1387  1389    1
   706  1362  1361   ar
   707  1376  1383   ar
   708  1376  1377   ar
   709  1084  1085    1
   710   603   621    2
   711   603   622    1
   712   603   586    1
   713  1182  1181    1
   714  1066  1060   ar
   715  1066  1065   ar
   716   587   589    1
   717   587   585    1
   718  1364  1343    2
   719  1316  1317    1
   720  1316  1315   ar
   721    75    76    1
   722    75    70    1
   723   765   764   ar
   724  1058  1057   ar
   725  1130  1129   ar
   726  1180  1185    1
   727  1007  1009    1
   728  1007  1008    1
   729    69    70    1
   730    69    67    1
   731  1181  1183    1
   732  1324  1325    1
   733  1343  1365    1
   734  1353  1359   ar
   735  1148  1149   ar
   736   823   822    1
   737   823   830   ar
   738   808   809   ar
   739  1009  1011    1
   740  1009  1010    1
   741  1060  1061   ar
   742  1144  1145    1
   743  1144  1143   ar
   744  1378  1377    2
   745   784   782   ar
   746   756   757    1
   747   756   758    1
   748    77    76   ar
   749    77    79   ar
   750  1101  1106   ar
   751   949   951    1
   752   949   947    1
   753  1383  1382   ar
   754  1048  1049    1
   755  1308  1310    1
   756  1308  1306    1
   757   954   953   ar
   758   954   955   ar
   759   953   952   ar
   760  1193  1192   ar
   761  1193  1186   ar
   762  1358  1361   ar
   763  1358  1359   ar
   764  1167  1168    2
   765  1167  1169   ar
   766  1049  1047    1
   767   329   330    1
   768   821   820    1
   769   964   948    1
   770   964   983    1
   771  1028  1029    1
   772  1028  1030    1
   773  1310  1320    1
   774  1310  1305    1
   775   803   804   ar
   776   335   333   ar
   777   829   830   ar
   778  1170  1169   ar
   779  1170  1171    2
   780  1192  1190   ar
   781   948   947    1
   782   761   760    1
   783   761   762   ar
   784  1340  1339   ar
   785   600   589    1
   786   600   599   ar
   787   820   822    1
   788   820   818    1
   789  1377  1379   ar
   790   804   810   ar
   791   333   334    2
   792  1126  1127   ar
   793  1315  1318   ar
   794   757   771    1
   795   771   789    1
   796   771   773    1
   797    76    83   ar
   798   788   781   ar
   799   589   584    1
   800   822   817    1
   801   974   975   ar
   802   974   981   ar
   803   994  1001   ar
   804   994   995   ar
   805   976   975    2
   806  1106  1107    1
   807  1320  1319   ar
   808   200   199    1
   809  1011  1012    1
   810  1011  1013    1
   811   760   758    1
   812   201   199    1
   813   201   211    1
   814   586   585    1
   815  1001  1000   ar
   816  1389  1390    1
   817  1389  1391    1
   818  1337  1339   ar
   819  1337  1338    2
   820  1027  1029    1
   821  1027  1010    1
   822  1027  1046    1
   823    79    80   ar
   824  1008  1013    1
   825  1359  1360    2
   826   598   599   ar
   827  1198  1197    1
   828    67    68    1
   829   585   583    1
   830  1065  1064   ar
   831   951   946    1
   832   951   961    1
   833   210   211   ar
   834   210   209   ar
   835  1390  1395    1
   836   360   361   ar
   837   360   357   ar
   838   344   343    1
   839  1030  1031    1
   840  1030  1032    1
   841   947   945    1
   842   764   762   ar
   843  1057  1062   ar
   844  1129  1127   ar
   845  1325  1323    1
   846  1185  1186    1
   847  1185  1183    1
   848  1023  1022   ar
   849  1023  1024   ar
   850  1255  1254    1
   851   952   957   ar
   852   975   977   ar
   853  1143  1149   ar
   854  1382  1380   ar
   855   382   381    2
   856   981   980   ar
   857  1149  1150    2
   858  1186  1187   ar
   859   359   358    2
   860  1067  1047    2
   861  1305  1304    1
   862  1293  1292    2
   863   809   810   ar
   864   758   759    1
   865   575   574    1
   866   762   763    2
   867  1061  1064   ar
   868  1061  1062   ar
   869  1183  1184    1
   870    68    66    1
   871   782   781   ar
   872   782   783    2
   873   211   205   ar
   874   955   961   ar
   875   955   956   ar
   876    83    82   ar
   877   361   362   ar
   878   773   772    1
   879   554   553    1
   880   446   445    1
   881  1127  1128    2
   882  1379  1380   ar
   883  1013  1024    1
   884   945   946    1
   885   945   943    1
   886   996   995    2
   887   781   780    1
   888  1047  1033    1
   889  1047  1068    1
   890  1190  1191    1
   891  1190  1189   ar
   892  1306  1307    1
   893  1306  1304    1
   894    80    82   ar
   895    80    81    1
   896   810   800    1
   897   995   997   ar
   898   533   532    1
   899   818   819    1
   900   818   816    1
   901  1307  1323    1
   902   848   847    1
   903  1022  1019   ar
   904  1212  1213   ar
   905  1212  1210   ar
   906  1197  1199    1
   907  1000   998   ar
   908  1294  1292   ar
   909  1294  1295   ar
   910   961   960   ar
   911  1318  1319   ar
   912  1276  1275    2
   913  1031  1036    1
   914   507   506    1
   915   584   583    1
   916   573   574   ar
   917   573   571   ar
   918   817   816    1
   919  1062  1063    1
   920  1024  1018   ar
   921   209   206   ar
   922  1304  1302    1
   923   404   403    1
   924  1380  1381    2
   925   819   833    1
   926  1392  1391    1
   927  1392  1406    1
   928  1032  1033    1
   929  1032  1034    1
   930   357   358   ar
   931   357   356   ar
   932  1391  1393    1
   933   343   345    1
   934   583   581    1
   935   852   833    2
   936  1211  1210    1
   937  1292  1291   ar
   938   358   352   ar
   939  1296  1295    2
   940   574   576   ar
   941  1395  1393    1
   942  1395  1396    1
   943   440   445   ar
   944   440   441   ar
   945   849   847   ar
   946   849   850   ar
   947  1213  1206   ar
   948  1323  1341    2
   949  1323  1342    1
   950  1233  1232    2
   951  1238  1216    2
   952   957   956   ar
   953   957   958    1
   954   381   375   ar
   955   381   380   ar
   956   445   444   ar
   957   572   571    2
   958  1254  1249   ar
   959  1254  1253   ar
   960   425   424    2
   961  1187  1189   ar
   962  1187  1188    2
   963  1425  1406    2
   964   977   978   ar
   965   548   553   ar
   966   548   549   ar
   967   980   978   ar
   968   956   959   ar
   969   812   791    2
   970   553   552   ar
   971   934   933    2
   972  1210  1209   ar
   973  1295  1297   ar
   974   816   814    1
   975   851   833    1
   976   847   846   ar
   977   833   835    1
   978    84    66    2
   979   205   206   ar
   980   205   204   ar
   981   571   570   ar
   982   362   356   ar
   983   362   351    1
   984  1403  1396   ar
   985  1403  1402   ar
   986    66    85    1
   987    66    50    1
   988  1424  1406    1
   989    55    54   ar
   990    55    56   ar
   991   997   998   ar
   992   772   774    1
   993   943   944    1
   994   346   345    1
   995   346   351    1
   996  1394  1393    1
   997  1406  1408    1
   998   998   999    1
   999  1275  1274   ar
  1000  1275  1277   ar
  1001   775   780    1
  1002   775   774    1
  1003  1249  1250   ar
  1004   780   778    1
  1005   532   534   ar
  1006   532   531   ar
  1007  1396  1397   ar
  1008   800   798    1
  1009   800   795    1
  1010  1019  1018   ar
  1011  1019  1020   ar
  1012    54    59   ar
  1013  1274  1272   ar
  1014   383   380   ar
  1015   383   384   ar
  1016   206   207   ar
  1017   506   508   ar
  1018   506   505   ar
  1019  1018  1017   ar
  1020   423   424   ar
  1021   423   421   ar
  1022   375   376   ar
  1023   356   355   ar
  1024   960   959   ar
  1025  1199  1200    1
  1026  1199  1201    1
  1027  1036  1034    1
  1028  1036  1037    1
  1029   978   979    1
  1030   534   535   ar
  1031   403   398   ar
  1032   403   402   ar
  1033   345   347    1
  1034   503   502    1
  1035  1034  1035    1
  1036   380   379   ar
  1037   850   843   ar
  1038   441   442   ar
  1039  1256  1253   ar
  1040  1256  1257   ar
  1041  1200  1205    1
  1042   776   774    1
  1043   776   778    1
  1044   776   777    1
  1045   911   910    1
  1046    56    57   ar
  1047  1234  1231   ar
  1048  1234  1235   ar
  1049   798   796    1
  1050   798   799    1
  1051    52    51    1
  1052   424   426   ar
  1053  1402  1400   ar
  1054  1302  1303    1
  1055   352   353   ar
  1056  1253  1252   ar
  1057   581   582    1
  1058  1291  1290    1
  1059  1291  1298   ar
  1060  1044  1037   ar
  1061  1044  1043   ar
  1062   508   509   ar
  1063   398   399   ar
  1064   576   577   ar
  1065   387   365    2
  1066  1232  1231   ar
  1067  1232  1226   ar
  1068   909   910   ar
  1069   909   915   ar
  1070  1201  1202    1
  1071  1201  1203    1
  1072   422   421    2
  1073   916   915    2
  1074   204   203   ar
  1075   351   349    1
  1076   778   779    1
  1077   582   580    1
  1078   549   550   ar
  1079   933   935   ar
  1080   933   932   ar
  1081   444   447   ar
  1082   444   443   ar
  1083   935   936   ar
  1084  1289  1288    1
  1085  1206  1205    1
  1086  1206  1207   ar
  1087  1216  1202    1
  1088  1216  1237    1
  1089  1216  1218    1
  1090   930   929    1
  1091    51    49    1
  1092    51    53    1
  1093   870   869    2
  1094    50    49    1
  1095   505   511   ar
  1096   815   814    1
  1097   815   813    1
  1098   484   483    1
  1099   552   555   ar
  1100   552   551   ar
  1101    59    60    1
  1102    59    58   ar
  1103  1397  1398    2
  1104  1397  1399   ar
  1105   347   349    1
  1106   347   348    1
  1107  1290  1288    1
  1108  1290  1285    1
  1109   846   844   ar
  1110   795   794    1
  1111  1288  1286    1
  1112   531   529   ar
  1113   944   942    1
  1114   793   791    1
  1115   793   792    1
  1116   791   777    1
  1117   791   811    1
  1118  1037  1038   ar
  1119  1209  1207   ar
  1120   421   420   ar
  1121  1297  1298   ar
  1122   570   577   ar
  1123   570   569    1
  1124  1231  1230   ar
  1125  1020  1021    2
  1126  1020  1014   ar
  1127  1303  1301    1
  1128  1017  1015   ar
  1129   796   794    1
  1130   796   797    1
  1131   447   448   ar
  1132  1043  1041   ar
  1133   910   912   ar
  1134  1277  1278   ar
  1135    57    58   ar
  1136    57    63   ar
  1137  1272  1273    2
  1138  1272  1271   ar
  1139   384   385   ar
  1140   835   834    1
  1141   555   556   ar
  1142  1250  1251   ar
  1143   915   914   ar
  1144  1400  1399   ar
  1145  1400  1401    1
  1146  1235  1236   ar
  1147   402   405   ar
  1148   402   401   ar
  1149  1205  1203    1
  1150   929   931    1
  1151   929   927    1
  1152   893   892    2
  1153   355   353   ar
  1154  1408  1407    1
  1155   502   504    1
  1156   502   500    1
  1157   832   813    2
  1158   207   208    1
  1159   207   202   ar
  1160   405   406   ar
  1161    49    47    1
  1162    58    61   ar
  1163   376   377    1
  1164   376   378   ar
  1165   353   354    1
  1166   442   443   ar
  1167   535   528   ar
  1168  1207  1208    2
  1169   843   844   ar
  1170   843   842    1
  1171   537   518    2
  1172  1257  1258   ar
  1173   834   836    1
  1174  1226  1227   ar
  1175   443   449   ar
  1176   379   385   ar
  1177   379   378   ar
  1178   349   350    1
  1179   348   365    1
  1180  1252  1251   ar
  1181  1252  1258   ar
  1182   509   515   ar
  1183   509   510   ar
  1184   567   569    1
  1185   567   568    1
  1186   567   565    1
  1187   931   932    1
  1188   931   926    1
  1189   399   400   ar
  1190  1203  1204    1
  1191   794   792    1
  1192   426   427   ar
  1193   937   936    1
  1194   844   845    2
  1195   936   938   ar
  1196   932   939   ar
  1197  1218  1217    1
  1198   365   386    1
  1199   365   367    1
  1200   203   202   ar
  1201   504   515    1
  1202   504   499    1
  1203   550   551   ar
  1204   551   557   ar
  1205    63    53    1
  1206    63    62   ar
  1207    53    48    1
  1208   813   797    1
  1209   813   831    1
  1210   569   564    1
  1211   483   482   ar
  1212   483   485   ar
  1213   869   863   ar
  1214   869   868   ar
  1215   837   842    1
  1216   837   836    1
  1217   482   488   ar
  1218  1407  1409    1
  1219   511   510   ar
  1220   511   512    2
  1221   602   580    2
  1222  1014  1015   ar
  1223  1015  1016    1
  1224   580   601    1
  1225   580   566    1
  1226   529   528   ar
  1227   529   530    2
  1228  1038  1039    2
  1229  1038  1040   ar
  1230   385   374    1
  1231  1285  1284    1
  1232   501   500    1
  1233   501   518    1
  1234   420   427   ar
  1235   420   419    1
  1236  1286  1287    1
  1237  1286  1284    1
  1238  1278  1271   ar
  1239  1271  1270    1
  1240   448   449   ar
  1241    61    62   ar
  1242   886   892   ar
  1243   886   887   ar
  1244  1230  1236   ar
  1245  1230  1229   ar
  1246   515   514   ar
  1247   892   891   ar
  1248   942   962    2
  1249   942   928    1
  1250   942   963    1
  1251  1041  1040   ar
  1252  1041  1042    2
  1253  1258  1248    1
  1254   912   913   ar
  1255   556   557   ar
  1256   528   527    1
  1257  1260  1239    2
  1258  1236  1225    1
  1259   510   513   ar
  1260   401   400   ar
  1261   401   407   ar
  1262   842   840    1
  1263   836   838    1
  1264   500   498    1
  1265   863   864   ar
  1266  1301  1287    1
  1267  1301  1322    2
  1268  1301  1321    1
  1269   914   913   ar
  1270   914   917   ar
  1271   928   927    1
  1272   565   566    1
  1273   565   563    1
  1274   367   366    1
  1275   927   925    1
  1276   406   407   ar
  1277   449   439    1
  1278   518   536    1
  1279   518   520    1
  1280   871   868   ar
  1281   871   872   ar
  1282   418   417    1
  1283    47    48    1
  1284    47    45    1
  1285   499   498    1
  1286   868   867   ar
  1287  1227  1229   ar
  1288  1227  1228    1
  1289   557   547    1
  1290   485   486   ar
  1291   939   938   ar
  1292   926   925    1
  1293  1284  1282    1
  1294  1422  1423   ar
  1295  1422  1420   ar
  1296   489   488    2
  1297  1410  1409    1
  1298  1410  1415    1
  1299   913   919   ar
  1300   498   496    1
  1301   488   487   ar
  1302   838   840    1
  1303   838   839    1
  1304  1217  1219    1
  1305   888   887    1
  1306    33    32    1
  1307   419   417    1
  1308   419   414    1
  1309   564   563    1
  1310   559   538    2
  1311   875   853    2
  1312  1423  1416   ar
  1313  1409  1411    1
  1314  1421  1420    1
  1315    31    32   ar
  1316    31    37   ar
  1317   407   397    1
  1318   887   889   ar
  1319   519   520    1
  1320   519   521    1
  1321    38    37    2
  1322   925   923    1
  1323   374   369    1
  1324   374   372    1
  1325  1270  1268    1
  1326  1270  1265    1
  1327  1420  1419   ar
  1328    46    45    1
  1329    46    44    1
  1330   514   513   ar
  1331   917   918   ar
  1332   369   368    1
  1333   840   841    1
  1334   417   415    1
  1335  1221  1219    1
  1336  1221  1223    1
  1337  1221  1222    1
  1338  1220  1225    1
  1339  1220  1219    1
  1340   891   894   ar
  1341   891   890   ar
  1342    32    34   ar
  1343  1225  1223    1
  1344  1248  1243    1
  1345  1248  1246    1
  1346   563   561    1
  1347   872   873   ar
  1348   527   522    1
  1349   527   525    1
  1350    37    36   ar
  1351   409   388    2
  1352   864   865    1
  1353   864   866   ar
  1354  1239  1241    1
  1355  1239  1222    1
  1356  1239  1259    1
  1357   439   434    1
  1358   439   437    1
  1359   366   368    1
  1360   522   521    1
  1361  1416  1415    1
  1362  1416  1417   ar
  1363  1268  1269    1
  1364  1268  1266    1
  1365   486   487   ar
  1366   486   492   ar
  1367   579   560    2
  1368   523   521    1
  1369   523   525    1
  1370   523   524    1
  1371  1243  1242    1
  1372   839   853    1
  1373  1240  1241    1
  1374  1240  1242    1
  1375   487   490   ar
  1376   867   866   ar
  1377   867   873   ar
  1378   894   895   ar
  1379  1223  1224    1
  1380  1280  1261    2
  1381   562   561    1
  1382   562   560    1
  1383  1419  1417   ar
  1384  1415  1413    1
  1385   547   545    1
  1386   547   542    1
  1387   370   372    1
  1388   370   368    1
  1389   370   371    1
  1390  1411  1412    1
  1391  1411  1413    1
  1392  1283  1282    1
  1393  1283  1281    1
  1394   434   433    1
  1395   414   413    1
  1396    65    44    2
  1397   372   373    1
  1398   919   918   ar
  1399   919   908    1
  1400  1417  1418    2
  1401   525   526    1
  1402   853   855    1
  1403   853   874    1
  1404  1265  1264    1
  1405   496   497    1
  1406   545   543    1
  1407   545   546    1
  1408    34    35   ar
  1409   889   890   ar
  1410  1244  1246    1
  1411  1244  1242    1
  1412  1244  1245    1
  1413  1246  1247    1
  1414    44    64    1
  1415    44    27    1
  1416   538   540    1
  1417   538   524    1
  1418   538   558    1
  1419   890   896   ar
  1420   873   862    1
  1421    36    35   ar
  1422    36    39   ar
  1423   540   539    1
  1424   397   392    1
  1425   397   395    1
  1426   416   415    1
  1427   416   430    1
  1428   923   924    1
  1429  1266  1264    1
  1430  1266  1267    1
  1431   437   438    1
  1432   437   435    1
  1433   415   413    1
  1434   543   544    1
  1435   543   541    1
  1436   560   544    1
  1437   560   578    1
  1438    35    41   ar
  1439   542   541    1
  1440   480   479    1
  1441   492   481    1
  1442   492   491   ar
  1443  1300  1281    2
  1444   388   390    1
  1445   388   371    1
  1446   388   408    1
  1447  1413  1414    1
  1448   855   854    1
  1449   497   495    1
  1450   924   922    1
  1451   451   430    2
  1452   392   391    1
  1453   390   389    1
  1454   479   481    1
  1455   479   477    1
  1456   908   906    1
  1457   908   903    1
  1458   490   491   ar
  1459   895   896   ar
  1460  1263  1261    1
  1461  1263  1262    1
  1462    39    40   ar
  1463    17    16    2
  1464   413   411    1
  1465  1261  1245    1
  1466  1261  1279    1
  1467   395   393    1
  1468   395   396    1
  1469   481   476    1
  1470   906   907    1
  1471   906   904    1
  1472  1281  1267    1
  1473  1281  1299    1
  1474   432   430    1
  1475   432   431    1
  1476  1264  1262    1
  1477   433   431    1
  1478   433   435    1
  1479   429   410    2
  1480    28    29    1
  1481    28    26    1
  1482    28    30    1
  1483   430   450    1
  1484   896   885    1
  1485   541   539    1
  1486   412   411    1
  1487   412   410    1
  1488   393   391    1
  1489   393   394    1
  1490    27    26    1
  1491    41    40   ar
  1492    41    30    1
  1493   862   857    1
  1494   862   860    1
  1495   435   436    1
  1496   857   856    1
  1497    26    24    1
  1498    16    10   ar
  1499    16    15   ar
  1500   391   389    1
  1501    10    11   ar
  1502   854   856    1
  1503   904   905    1
  1504   904   902    1
  1505    30    25    1
  1506   903   902    1
  1507   410   394    1
  1508   410   428    1
  1509   477   478    1
  1510   477   475    1
  1511   898   876    2
  1512   922   941    2
  1513   922   905    1
  1514   922   940    1
  1515   436   452    1
  1516   495   478    1
  1517   495   517    2
  1518   495   516    1
  1519   476   475    1
  1520   858   856    1
  1521   858   860    1
  1522   858   859    1
  1523   860   861    1
  1524    15    18   ar
  1525    15    14   ar
  1526   885   883    1
  1527   885   880    1
  1528   921   899    2
  1529    18    19   ar
  1530    11    12    1
  1531    11    13   ar
  1532   902   900    1
  1533   883   881    1
  1534   883   884    1
  1535   475   473    1
  1536   901   899    1
  1537   901   900    1
  1538    24    25    1
  1539    24    22    1
  1540    14    13   ar
  1541    14    20   ar
  1542   878   876    1
  1543   878   877    1
  1544   876   859    1
  1545   876   897    1
  1546   880   879    1
  1547   881   879    1
  1548   881   882    1
  1549    43    21    2
  1550    23    22    1
  1551    23    21    1
  1552    19    20   ar
  1553   899   882    1
  1554   899   920    1
  1555   452   471    2
  1556   452   454    1
  1557   452   470    1
  1558     6     5    1
  1559     6    21    1
  1560   474   473    1
  1561   474   472    1
  1562    20     9    1
  1563     5     7    1
  1564     5     3    1
  1565    21    42    1
  1566   879   877    1
  1567   454   453    1
  1568     2     1    1
  1569   453   455    1
  1570   494   472    2
  1571     7     9    1
  1572     7     8    1
  1573     9     4    1
  1574   457   455    1
  1575   457   459    1
  1576   457   458    1
  1577   472   458    1
  1578   472   493    1
  1579     1     3    1
  1580     3     4    1
  1581   455   456    1
  1582   459   460    1
  1583   459   461    1
  1584   456   461    1
  1585   461   462    1
  1586   469   468   ar
  1587   469   462   ar
  1588   468   466   ar
  1589   462   463   ar
  1590   463   464    2
  1591   463   465   ar
  1592   466   465   ar
  1593   466   467    2
