2g5q_lig
 OpenBabel02221317003D

 40 42  0  0  1  0  0  0  0  0999 V2000
    3.6640   -7.0950   19.3210 C   0  0  2  0  0  0  0  0  0  0  0  0
    2.5120   -7.8340   19.6620 O   0  0  0  0  0  0  0  0  0  0  0  0
    4.8760   -7.6570   20.1210 C   0  0  1  0  0  0  0  0  0  0  0  0
    4.7310   -7.4010   21.6530 C   0  0  2  0  0  0  0  0  0  0  0  0
    4.6270   -5.8690   21.8700 C   0  0  2  0  0  0  0  0  0  0  0  0
    4.5150   -5.5900   23.2750 O   0  0  0  0  0  0  0  0  0  0  0  0
    3.3610   -5.3410   21.0810 C   0  0  2  0  0  0  0  0  0  0  0  0
    3.4990   -5.6500   19.6290 O   0  0  0  0  0  0  0  0  0  0  0  0
    3.1690   -3.8340   21.2140 C   0  0  0  0  0  0  0  0  0  0  0  0
    1.7880   -3.4820   21.6730 N   0  0  0  0  0  0  0  0  0  0  0  0
   -1.1140   -9.4020   17.7990 C   0  0  2  0  0  0  0  0  0  0  0  0
   -2.2810   -9.5200   16.9330 N   0  0  0  0  0  0  0  0  0  0  0  0
   -1.2200   -8.0920   18.6870 C   0  0  0  0  0  0  0  0  0  0  0  0
    0.0390   -7.9640   19.6320 C   0  0  2  0  0  0  0  0  0  0  0  0
   -0.0780   -6.7380   20.4670 N   0  0  0  0  0  0  0  0  0  0  0  0
    1.3550   -7.9410   18.7570 C   0  0  2  0  0  0  0  0  0  0  0  0
    1.4230   -9.2570   17.8850 C   0  0  2  0  0  0  0  0  0  0  0  0
    2.6120   -9.2310   17.0890 O   0  0  0  0  0  0  0  0  0  0  0  0
    0.1660   -9.3570   16.9390 C   0  0  1  0  0  0  0  0  0  0  0  0
    0.2250  -10.5760   16.1460 O   0  0  0  0  0  0  0  0  0  0  0  0
   -0.1180  -10.6500   14.7840 C   0  0  2  0  0  0  0  0  0  0  0  0
   -0.3960  -12.1550   14.4510 C   0  0  2  0  0  0  0  0  0  0  0  0
   -1.4410  -12.6210   15.2430 O   0  0  0  0  0  0  0  0  0  0  0  0
    0.8980  -13.0310   14.6530 C   0  0  1  0  0  0  0  0  0  0  0  0
    0.6430  -14.4740   14.3320 N   0  0  0  0  0  0  0  0  0  0  0  0
    2.0420  -12.4460   13.7330 C   0  0  2  0  0  0  0  0  0  0  0  0
    3.2440  -13.2070   13.8680 O   0  0  0  0  0  0  0  0  0  0  0  0
    2.2720  -10.9450   14.1160 C   0  0  2  0  0  0  0  0  0  0  0  0
    1.0040  -10.1510   13.9690 O   0  0  0  0  0  0  0  0  0  0  0  0
    3.3280  -10.3080   13.2600 C   0  0  0  0  0  0  0  0  0  0  0  0
    3.3380   -8.8800   13.4200 O   0  0  0  0  0  0  0  0  0  0  0  0
    4.9930   -9.0930   19.8340 O   0  0  0  0  0  0  0  0  0  0  0  0
    5.8330   -7.9050   22.3080 O   0  0  0  0  0  0  0  0  0  0  0  0
   -7.3590  -12.4040   15.5730 N   0  0  0  0  0  0  0  0  0  0  0  0
   -3.5940   -9.6300   17.3690 C   0  0  0  0  0  0  0  0  0  0  0  0
   -3.9230   -9.6480   18.5500 O   0  0  0  0  0  0  0  0  0  0  0  0
   -4.5970   -9.7450   16.1980 C   0  0  1  0  0  0  0  0  0  0  0  0
   -5.5300  -10.9530   16.4180 C   0  0  0  0  0  0  0  0  0  0  0  0
   -6.5840  -11.1890   15.3300 C   0  0  0  0  0  0  0  0  0  0  0  0
   -5.3550   -8.5180   16.1020 O   0  0  0  0  0  0  0  0  0  0  0  0
  1  2  1  1  0  0  0
  1  3  1  0  0  0  0
  1  8  1  0  0  0  0
  3  4  1  0  0  0  0
  3 32  1  1  0  0  0
  4  5  1  0  0  0  0
  4 33  1  6  0  0  0
  5  6  1  1  0  0  0
  5  7  1  0  0  0  0
  7  8  1  0  0  0  0
  7  9  1  6  0  0  0
  9 10  1  0  0  0  0
 11 12  1  6  0  0  0
 11 13  1  0  0  0  0
 11 19  1  0  0  0  0
 12 35  1  0  0  0  0
 13 14  1  0  0  0  0
 14 15  1  6  0  0  0
 14 16  1  0  0  0  0
 16  2  1  1  0  0  0
 16 17  1  0  0  0  0
 17 18  1  6  0  0  0
 17 19  1  0  0  0  0
 19 20  1  1  0  0  0
 21 20  1  1  0  0  0
 21 22  1  0  0  0  0
 21 29  1  0  0  0  0
 22 23  1  1  0  0  0
 22 24  1  0  0  0  0
 24 25  1  6  0  0  0
 24 26  1  0  0  0  0
 26 27  1  1  0  0  0
 26 28  1  0  0  0  0
 28 29  1  0  0  0  0
 28 30  1  6  0  0  0
 30 31  1  0  0  0  0
 34 39  1  0  0  0  0
 35 36  2  0  0  0  0
 37 35  1  1  0  0  0
 37 38  1  0  0  0  0
 37 40  1  0  0  0  0
 38 39  1  0  0  0  0
M  END
$$$$
