2g5q_lig
 OpenBabel11021811433D
libRbt.so/2013.1/901 2013/11/27
 40 42  0  0  0  0  0  0  0  0999 V2000
    4.0503   -7.4328   18.9204 C   0  0  2  0  0  0  0  0  0  0  0  0
    2.8785   -8.1230   19.2947 O   0  0  0  0  0  0  0  0  0  0  0  0
    5.2225   -7.9032   19.8311 C   0  0  1  0  0  0  0  0  0  0  0  0
    5.0154   -7.4712   21.3157 C   0  0  2  0  0  0  0  0  0  0  0  0
    4.9158   -5.9240   21.3499 C   0  0  2  0  0  0  0  0  0  0  0  0
    4.7472   -5.4841   22.7073 O   0  0  0  0  0  0  0  0  0  0  0  0
    3.6888   -5.4859   20.4518 C   0  0  2  0  0  0  0  0  0  0  0  0
    3.8851   -5.9612   19.0524 O   0  0  0  0  0  0  0  0  0  0  0  0
    3.5045   -3.9730   20.4018 C   0  0  0  0  0  0  0  0  0  0  0  0
    3.0493   -3.4187   21.7161 N   0  0  0  0  0  0  0  0  0  0  0  0
   -1.0486   -9.2162   17.7262 C   0  0  2  0  0  0  0  0  0  0  0  0
   -2.2826   -9.1858   16.9503 N   0  0  0  0  0  0  0  0  0  0  0  0
   -0.9181   -7.8996   18.6011 C   0  0  0  0  0  0  0  0  0  0  0  0
    0.4141   -7.9316   19.4488 C   0  0  2  0  0  0  0  0  0  0  0  0
    0.5190   -6.6971   20.2728 N   0  0  0  0  0  0  0  0  0  0  0  0
    1.6529   -8.0832   18.4790 C   0  0  2  0  0  0  0  0  0  0  0  0
    1.4852   -9.4007   17.6230 C   0  0  2  0  0  0  0  0  0  0  0  0
    2.6047   -9.5326   16.7413 O   0  0  0  0  0  0  0  0  0  0  0  0
    0.1585   -9.3412   16.7737 C   0  0  1  0  0  0  0  0  0  0  0  0
    0.0004  -10.5611   15.9957 O   0  0  0  0  0  0  0  0  0  0  0  0
   -0.6059  -10.6167   14.7279 C   0  0  2  0  0  0  0  0  0  0  0  0
   -1.0177  -12.1056   14.4693 C   0  0  2  0  0  0  0  0  0  0  0  0
   -1.9091  -12.5192   15.4546 O   0  0  0  0  0  0  0  0  0  0  0  0
    0.2459  -13.0456   14.4222 C   0  0  1  0  0  0  0  0  0  0  0  0
   -0.1379  -14.4737   14.1703 N   0  0  0  0  0  0  0  0  0  0  0  0
    1.2151  -12.5180   13.2909 C   0  0  2  0  0  0  0  0  0  0  0  0
    2.3812  -13.3385   13.1950 O   0  0  0  0  0  0  0  0  0  0  0  0
    1.5895  -11.0307   13.6079 C   0  0  2  0  0  0  0  0  0  0  0  0
    0.3580  -10.1740   13.7047 O   0  0  0  0  0  0  0  0  0  0  0  0
    2.4875  -10.4469   12.5562 C   0  0  0  0  0  0  0  0  0  0  0  0
    2.8532   -9.0942   12.8746 O   0  0  0  0  0  0  0  0  0  0  0  0
    5.3390   -9.3631   19.7169 O   0  0  0  0  0  0  0  0  0  0  0  0
    6.0844   -7.9004   22.0711 O   0  0  0  0  0  0  0  0  0  0  0  0
   -7.7288  -11.6025   15.7641 N   0  0  0  0  0  0  0  0  0  0  0  0
   -3.5541   -9.4110   17.4588 C   0  0  0  0  0  0  0  0  0  0  0  0
   -3.7839   -9.6722   18.6345 O   0  0  0  0  0  0  0  0  0  0  0  0
   -4.6500   -9.3130   16.3726 C   0  0  1  0  0  0  0  0  0  0  0  0
   -5.6797  -10.4461   16.5569 C   0  0  0  0  0  0  0  0  0  0  0  0
   -6.7489  -10.5605   15.4642 C   0  0  0  0  0  0  0  0  0  0  0  0
   -5.2866   -8.0181   16.4582 O   0  0  0  0  0  0  0  0  0  0  0  0
  1  2  1  1  0  0  0
  1  3  1  0  0  0  0
  1  8  1  0  0  0  0
  3  4  1  0  0  0  0
  3 32  1  1  0  0  0
  4  5  1  0  0  0  0
  4 33  1  1  0  0  0
  5  6  1  1  0  0  0
  5  7  1  0  0  0  0
  7  8  1  0  0  0  0
  7  9  1  6  0  0  0
  9 10  1  0  0  0  0
 11 12  1  6  0  0  0
 11 13  1  0  0  0  0
 11 19  1  0  0  0  0
 12 35  1  0  0  0  0
 13 14  1  0  0  0  0
 14 15  1  6  0  0  0
 14 16  1  0  0  0  0
 16  2  1  1  0  0  0
 16 17  1  0  0  0  0
 17 18  1  6  0  0  0
 17 19  1  0  0  0  0
 19 20  1  1  0  0  0
 21 20  1  1  0  0  0
 21 22  1  0  0  0  0
 21 29  1  0  0  0  0
 22 23  1  1  0  0  0
 22 24  1  0  0  0  0
 24 25  1  6  0  0  0
 24 26  1  0  0  0  0
 26 27  1  1  0  0  0
 26 28  1  0  0  0  0
 28 29  1  0  0  0  0
 28 30  1  6  0  0  0
 30 31  1  0  0  0  0
 34 39  1  0  0  0  0
 35 36  2  0  0  0  0
 37 35  1  1  0  0  0
 37 38  1  0  0  0  0
 37 40  1  0  0  0  0
 38 39  1  0  0  0  0
M  END
>  <CHROM.1>
-168.99934552,-69.08294365,-75.52144738,-138.22301702,93.40464935,-160.75936325
-178.47885952,137.86960198,-174.03046360,-176.33786781,0.65988556,-9.11842285
17.36401327,-0.80299857,-0.00859985,-2.26891440

>  <Name>
2g5q_lig

>  <RI>
0

>  <Rbt.Current_Directory>
/home/itssahil/PROJECTS/Mol_Feturizer/New_Systems/rnas/2g5q

>  <Rbt.Executable>
rbdock ($Id: //depot/dev/client3/rdock/2013.1/src/exe/rbdock.cxx#4 $)

>  <Rbt.Library>
libRbt.so (2013.1, Build901 2013/11/27)

>  <Rbt.Parameter_File>
/export/apps/rDock/src/rDock_2013.1_src/data/scripts/dock_solv.prm

>  <Rbt.Receptor>
prm/pocket_docking_2.prm

>  <SCORE>
-26.2193

>  <SCORE.INTER>
-22.5882

>  <SCORE.INTER.CONST>
1

>  <SCORE.INTER.POLAR>
-1.74296

>  <SCORE.INTER.ROT>
10

>  <SCORE.INTER.SOLV>
19.7701

>  <SCORE.INTER.VDW>
-26.1057

>  <SCORE.INTER.norm>
-0.564705

>  <SCORE.INTRA>
-3.63686

>  <SCORE.INTRA.DIHEDRAL>
-7.62513

>  <SCORE.INTRA.DIHEDRAL.0>
22.5778

>  <SCORE.INTRA.POLAR>
0

>  <SCORE.INTRA.POLAR.0>
0

>  <SCORE.INTRA.REPUL>
0

>  <SCORE.INTRA.REPUL.0>
0

>  <SCORE.INTRA.SOLV>
0.83735

>  <SCORE.INTRA.SOLV.lig_0>
-102.332

>  <SCORE.INTRA.VDW>
-0.242971

>  <SCORE.INTRA.VDW.0>
-5.08747

>  <SCORE.INTRA.norm>
-0.0909215

>  <SCORE.RESTR>
0.0058084

>  <SCORE.RESTR.CAVITY>
0.0058084

>  <SCORE.RESTR.norm>
0.00014521

>  <SCORE.SYSTEM>
0

>  <SCORE.SYSTEM.CONST>
0

>  <SCORE.SYSTEM.DIHEDRAL>
0

>  <SCORE.SYSTEM.SOLV>
0

>  <SCORE.SYSTEM.norm>
0

>  <SCORE.heavy>
40

>  <SCORE.norm>
-0.655482

>  <RMSD>
0.645

$$$$
2g5q_lig
 OpenBabel11021811433D
libRbt.so/2013.1/901 2013/11/27
 40 42  0  0  0  0  0  0  0  0999 V2000
    3.9191   -7.3533   18.9593 C   0  0  2  0  0  0  0  0  0  0  0  0
    2.7207   -7.9825   19.3563 O   0  0  0  0  0  0  0  0  0  0  0  0
    5.0789   -7.8671   19.8625 C   0  0  1  0  0  0  0  0  0  0  0  0
    4.9105   -7.4071   21.3436 C   0  0  2  0  0  0  0  0  0  0  0  0
    4.8844   -5.8566   21.3585 C   0  0  2  0  0  0  0  0  0  0  0  0
    4.7533   -5.3921   22.7118 O   0  0  0  0  0  0  0  0  0  0  0  0
    3.6685   -5.3723   20.4690 C   0  0  2  0  0  0  0  0  0  0  0  0
    3.8251   -5.8740   19.0738 O   0  0  0  0  0  0  0  0  0  0  0  0
    3.5553   -3.8531   20.4012 C   0  0  0  0  0  0  0  0  0  0  0  0
    3.1080   -3.2644   21.7032 N   0  0  0  0  0  0  0  0  0  0  0  0
   -1.2582   -8.9246   17.8209 C   0  0  2  0  0  0  0  0  0  0  0  0
   -2.5002   -8.8423   17.0616 N   0  0  0  0  0  0  0  0  0  0  0  0
   -1.0752   -7.6278   18.7156 C   0  0  0  0  0  0  0  0  0  0  0  0
    0.2658   -7.7161   19.5454 C   0  0  2  0  0  0  0  0  0  0  0  0
    0.4200   -6.4996   20.3882 N   0  0  0  0  0  0  0  0  0  0  0  0
    1.4869   -7.8903   18.5573 C   0  0  2  0  0  0  0  0  0  0  0  0
    1.2669   -9.1873   17.6819 C   0  0  2  0  0  0  0  0  0  0  0  0
    2.3706   -9.3394   16.7837 O   0  0  0  0  0  0  0  0  0  0  0  0
   -0.0676   -9.0716   16.8509 C   0  0  1  0  0  0  0  0  0  0  0  0
   -0.2741  -10.2726   16.0550 O   0  0  0  0  0  0  0  0  0  0  0  0
   -0.3514  -10.2863   14.6508 C   0  0  2  0  0  0  0  0  0  0  0  0
   -0.6884  -11.7520   14.2135 C   0  0  2  0  0  0  0  0  0  0  0  0
   -1.9034  -12.1363   14.7725 O   0  0  0  0  0  0  0  0  0  0  0  0
    0.4613  -12.7474   14.6257 C   0  0  1  0  0  0  0  0  0  0  0  0
    0.1499  -14.1538   14.2069 N   0  0  0  0  0  0  0  0  0  0  0  0
    1.8082  -12.2512   13.9646 C   0  0  2  0  0  0  0  0  0  0  0  0
    2.8909  -13.1222   14.2979 O   0  0  0  0  0  0  0  0  0  0  0  0
    2.0882  -10.7860   14.4416 C   0  0  2  0  0  0  0  0  0  0  0  0
    0.9461   -9.8758   14.0851 O   0  0  0  0  0  0  0  0  0  0  0  0
    3.3411  -10.2312   13.8284 C   0  0  0  0  0  0  0  0  0  0  0  0
    3.2036  -10.0810   12.4059 O   0  0  0  0  0  0  0  0  0  0  0  0
    5.1249   -9.3323   19.7662 O   0  0  0  0  0  0  0  0  0  0  0  0
    5.9672   -7.8768   22.0921 O   0  0  0  0  0  0  0  0  0  0  0  0
   -7.1357  -11.5673   15.0234 N   0  0  0  0  0  0  0  0  0  0  0  0
   -3.7761   -8.8942   17.6051 C   0  0  0  0  0  0  0  0  0  0  0  0
   -4.0043   -9.0248   18.8027 O   0  0  0  0  0  0  0  0  0  0  0  0
   -4.8809   -8.7863   16.5289 C   0  0  1  0  0  0  0  0  0  0  0  0
   -5.4683  -10.1811   16.2327 C   0  0  0  0  0  0  0  0  0  0  0  0
   -6.5590  -10.2311   15.1566 C   0  0  0  0  0  0  0  0  0  0  0  0
   -5.9080   -7.8818   16.9941 O   0  0  0  0  0  0  0  0  0  0  0  0
  1  2  1  1  0  0  0
  1  3  1  0  0  0  0
  1  8  1  0  0  0  0
  3  4  1  0  0  0  0
  3 32  1  1  0  0  0
  4  5  1  0  0  0  0
  4 33  1  1  0  0  0
  5  6  1  1  0  0  0
  5  7  1  0  0  0  0
  7  8  1  0  0  0  0
  7  9  1  6  0  0  0
  9 10  1  0  0  0  0
 11 12  1  6  0  0  0
 11 13  1  0  0  0  0
 11 19  1  0  0  0  0
 12 35  1  0  0  0  0
 13 14  1  0  0  0  0
 14 15  1  6  0  0  0
 14 16  1  0  0  0  0
 16  2  1  1  0  0  0
 16 17  1  0  0  0  0
 17 18  1  6  0  0  0
 17 19  1  0  0  0  0
 19 20  1  1  0  0  0
 21 20  1  1  0  0  0
 21 22  1  0  0  0  0
 21 29  1  0  0  0  0
 22 23  1  1  0  0  0
 22 24  1  0  0  0  0
 24 25  1  6  0  0  0
 24 26  1  0  0  0  0
 26 27  1  1  0  0  0
 26 28  1  0  0  0  0
 28 29  1  0  0  0  0
 28 30  1  6  0  0  0
 30 31  1  0  0  0  0
 34 39  1  0  0  0  0
 35 36  2  0  0  0  0
 37 35  1  1  0  0  0
 37 38  1  0  0  0  0
 37 40  1  0  0  0  0
 38 39  1  0  0  0  0
M  END
>  <CHROM.1>
-169.26414732,-70.57898592,-68.26410510,-139.98741885,121.49073070,-175.68232040
65.75788338,101.82658699,-178.71152558,-175.11701840,0.69248525,-8.92672329
17.45737183,-0.77782750,0.04179280,-2.29743871

>  <Name>
2g5q_lig

>  <RI>
0

>  <Rbt.Current_Directory>
/home/itssahil/PROJECTS/Mol_Feturizer/New_Systems/rnas/2g5q

>  <Rbt.Executable>
rbdock ($Id: //depot/dev/client3/rdock/2013.1/src/exe/rbdock.cxx#4 $)

>  <Rbt.Library>
libRbt.so (2013.1, Build901 2013/11/27)

>  <Rbt.Parameter_File>
/export/apps/rDock/src/rDock_2013.1_src/data/scripts/dock_solv.prm

>  <Rbt.Receptor>
prm/pocket_docking_2.prm

>  <SCORE>
-20.4786

>  <SCORE.INTER>
-17.6297

>  <SCORE.INTER.CONST>
1

>  <SCORE.INTER.POLAR>
-0.882263

>  <SCORE.INTER.ROT>
10

>  <SCORE.INTER.SOLV>
20.0749

>  <SCORE.INTER.VDW>
-25.7706

>  <SCORE.INTER.norm>
-0.440743

>  <SCORE.INTRA>
-2.89695

>  <SCORE.INTRA.DIHEDRAL>
-6.54373

>  <SCORE.INTRA.DIHEDRAL.0>
22.5778

>  <SCORE.INTRA.POLAR>
0

>  <SCORE.INTRA.POLAR.0>
0

>  <SCORE.INTRA.REPUL>
0

>  <SCORE.INTRA.REPUL.0>
0

>  <SCORE.INTRA.SOLV>
1.02504

>  <SCORE.INTRA.SOLV.lig_0>
-102.332

>  <SCORE.INTRA.VDW>
-0.137603

>  <SCORE.INTRA.VDW.0>
-5.08747

>  <SCORE.INTRA.norm>
-0.0724237

>  <SCORE.RESTR>
0.0480327

>  <SCORE.RESTR.CAVITY>
0.0480327

>  <SCORE.RESTR.norm>
0.00120082

>  <SCORE.SYSTEM>
0

>  <SCORE.SYSTEM.CONST>
0

>  <SCORE.SYSTEM.DIHEDRAL>
0

>  <SCORE.SYSTEM.SOLV>
0

>  <SCORE.SYSTEM.norm>
0

>  <SCORE.heavy>
40

>  <SCORE.norm>
-0.511966

>  <RMSD>
0.690

$$$$
2g5q_lig
 OpenBabel11021811433D
libRbt.so/2013.1/901 2013/11/27
 40 42  0  0  0  0  0  0  0  0999 V2000
    3.9782   -7.4201   18.9079 C   0  0  2  0  0  0  0  0  0  0  0  0
    2.8047   -8.0841   19.3220 O   0  0  0  0  0  0  0  0  0  0  0  0
    5.1704   -7.9187   19.7769 C   0  0  1  0  0  0  0  0  0  0  0  0
    5.0248   -7.4847   21.2682 C   0  0  2  0  0  0  0  0  0  0  0  0
    4.9618   -5.9357   21.3072 C   0  0  2  0  0  0  0  0  0  0  0  0
    4.8505   -5.4943   22.6700 O   0  0  0  0  0  0  0  0  0  0  0  0
    3.7147   -5.4682   20.4527 C   0  0  2  0  0  0  0  0  0  0  0  0
    3.8514   -5.9454   19.0468 O   0  0  0  0  0  0  0  0  0  0  0  0
    3.5635   -3.9513   20.4104 C   0  0  0  0  0  0  0  0  0  0  0  0
    2.1268   -3.5296   20.4164 N   0  0  0  0  0  0  0  0  0  0  0  0
   -1.0360   -9.3950   17.7073 C   0  0  2  0  0  0  0  0  0  0  0  0
   -2.2614   -9.4326   16.9181 N   0  0  0  0  0  0  0  0  0  0  0  0
   -0.9908   -8.0765   18.5878 C   0  0  0  0  0  0  0  0  0  0  0  0
    0.3319   -8.0352   19.4499 C   0  0  2  0  0  0  0  0  0  0  0  0
    0.3568   -6.7999   20.2790 N   0  0  0  0  0  0  0  0  0  0  0  0
    1.5876   -8.1116   18.4932 C   0  0  2  0  0  0  0  0  0  0  0  0
    1.5051   -9.4333   17.6311 C   0  0  2  0  0  0  0  0  0  0  0  0
    2.6397   -9.4971   16.7612 O   0  0  0  0  0  0  0  0  0  0  0  0
    0.1864   -9.4468   16.7676 C   0  0  1  0  0  0  0  0  0  0  0  0
    0.1069  -10.6707   15.9840 O   0  0  0  0  0  0  0  0  0  0  0  0
   -0.4637  -10.7519   14.7010 C   0  0  2  0  0  0  0  0  0  0  0  0
   -0.7491  -12.2640   14.4091 C   0  0  2  0  0  0  0  0  0  0  0  0
   -1.6269  -12.7646   15.3657 O   0  0  0  0  0  0  0  0  0  0  0  0
    0.5864  -13.0995   14.3778 C   0  0  1  0  0  0  0  0  0  0  0  0
    0.3239  -14.5490   14.0942 N   0  0  0  0  0  0  0  0  0  0  0  0
    1.5360  -12.4766   13.2789 C   0  0  2  0  0  0  0  0  0  0  0  0
    2.7659  -13.1999   13.1985 O   0  0  0  0  0  0  0  0  0  0  0  0
    1.7829  -10.9701   13.6284 C   0  0  2  0  0  0  0  0  0  0  0  0
    0.4850  -10.2159   13.7087 O   0  0  0  0  0  0  0  0  0  0  0  0
    2.6554  -10.2981   12.6082 C   0  0  0  0  0  0  0  0  0  0  0  0
    3.9551  -10.9082   12.5501 O   0  0  0  0  0  0  0  0  0  0  0  0
    5.2493   -9.3807   19.6574 O   0  0  0  0  0  0  0  0  0  0  0  0
    6.1093   -7.9393   21.9856 O   0  0  0  0  0  0  0  0  0  0  0  0
   -8.0412  -11.6261   16.0515 N   0  0  0  0  0  0  0  0  0  0  0  0
   -3.3947  -10.1691   17.2332 C   0  0  0  0  0  0  0  0  0  0  0  0
   -3.4901  -10.8874   18.2223 O   0  0  0  0  0  0  0  0  0  0  0  0
   -4.5203   -9.9967   16.1874 C   0  0  1  0  0  0  0  0  0  0  0  0
   -5.7382  -10.8597   16.5746 C   0  0  0  0  0  0  0  0  0  0  0  0
   -6.8652  -10.9272   15.5374 C   0  0  0  0  0  0  0  0  0  0  0  0
   -4.8820   -8.5995   16.1075 O   0  0  0  0  0  0  0  0  0  0  0  0
  1  2  1  1  0  0  0
  1  3  1  0  0  0  0
  1  8  1  0  0  0  0
  3  4  1  0  0  0  0
  3 32  1  1  0  0  0
  4  5  1  0  0  0  0
  4 33  1  1  0  0  0
  5  6  1  1  0  0  0
  5  7  1  0  0  0  0
  7  8  1  0  0  0  0
  7  9  1  6  0  0  0
  9 10  1  0  0  0  0
 11 12  1  6  0  0  0
 11 13  1  0  0  0  0
 11 19  1  0  0  0  0
 12 35  1  0  0  0  0
 13 14  1  0  0  0  0
 14 15  1  6  0  0  0
 14 16  1  0  0  0  0
 16  2  1  1  0  0  0
 16 17  1  0  0  0  0
 17 18  1  6  0  0  0
 17 19  1  0  0  0  0
 19 20  1  1  0  0  0
 21 20  1  1  0  0  0
 21 22  1  0  0  0  0
 21 29  1  0  0  0  0
 22 23  1  1  0  0  0
 22 24  1  0  0  0  0
 24 25  1  6  0  0  0
 24 26  1  0  0  0  0
 26 27  1  1  0  0  0
 26 28  1  0  0  0  0
 28 29  1  0  0  0  0
 28 30  1  6  0  0  0
 30 31  1  0  0  0  0
 34 39  1  0  0  0  0
 35 36  2  0  0  0  0
 37 35  1  1  0  0  0
 37 38  1  0  0  0  0
 37 40  1  0  0  0  0
 38 39  1  0  0  0  0
M  END
>  <CHROM.1>
-163.61865200,-144.06337100,-100.43670102,-143.77246031,94.40119326,-162.76103801
-61.76674494,178.79989845,-172.58894649,-172.96906445,0.74425742,-9.30766156
17.28734511,-0.80450116,-0.04163185,-2.27370790

>  <Name>
2g5q_lig

>  <RI>
0

>  <Rbt.Current_Directory>
/home/itssahil/PROJECTS/Mol_Feturizer/New_Systems/rnas/2g5q

>  <Rbt.Executable>
rbdock ($Id: //depot/dev/client3/rdock/2013.1/src/exe/rbdock.cxx#4 $)

>  <Rbt.Library>
libRbt.so (2013.1, Build901 2013/11/27)

>  <Rbt.Parameter_File>
/export/apps/rDock/src/rDock_2013.1_src/data/scripts/dock_solv.prm

>  <Rbt.Receptor>
prm/pocket_docking_2.prm

>  <SCORE>
-19.7747

>  <SCORE.INTER>
-17.7207

>  <SCORE.INTER.CONST>
1

>  <SCORE.INTER.POLAR>
-0.894427

>  <SCORE.INTER.ROT>
10

>  <SCORE.INTER.SOLV>
19.1509

>  <SCORE.INTER.VDW>
-25.4827

>  <SCORE.INTER.norm>
-0.443018

>  <SCORE.INTRA>
-2.07376

>  <SCORE.INTRA.DIHEDRAL>
-5.22498

>  <SCORE.INTRA.DIHEDRAL.0>
22.5778

>  <SCORE.INTRA.POLAR>
0

>  <SCORE.INTRA.POLAR.0>
0

>  <SCORE.INTRA.REPUL>
0

>  <SCORE.INTRA.REPUL.0>
0

>  <SCORE.INTRA.SOLV>
0.716967

>  <SCORE.INTRA.SOLV.lig_0>
-102.332

>  <SCORE.INTRA.VDW>
0.180242

>  <SCORE.INTRA.VDW.0>
-5.08747

>  <SCORE.INTRA.norm>
-0.0518441

>  <SCORE.RESTR>
0.0197677

>  <SCORE.RESTR.CAVITY>
0.0197677

>  <SCORE.RESTR.norm>
0.000494192

>  <SCORE.SYSTEM>
0

>  <SCORE.SYSTEM.CONST>
0

>  <SCORE.SYSTEM.DIHEDRAL>
0

>  <SCORE.SYSTEM.SOLV>
0

>  <SCORE.SYSTEM.norm>
0

>  <SCORE.heavy>
40

>  <SCORE.norm>
-0.494368

>  <RMSD>
0.704

$$$$
2g5q_lig
 OpenBabel11021811433D
libRbt.so/2013.1/901 2013/11/27
 40 42  0  0  0  0  0  0  0  0999 V2000
    3.8520   -7.1666   19.0377 C   0  0  2  0  0  0  0  0  0  0  0  0
    2.6271   -7.7086   19.4794 O   0  0  0  0  0  0  0  0  0  0  0  0
    5.0011   -7.7383   19.9195 C   0  0  1  0  0  0  0  0  0  0  0  0
    4.9048   -7.2410   21.3949 C   0  0  2  0  0  0  0  0  0  0  0  0
    4.9797   -5.6921   21.3791 C   0  0  2  0  0  0  0  0  0  0  0  0
    4.9172   -5.1950   22.7257 O   0  0  0  0  0  0  0  0  0  0  0  0
    3.7732   -5.1459   20.5130 C   0  0  2  0  0  0  0  0  0  0  0  0
    3.8575   -5.6825   19.1245 O   0  0  0  0  0  0  0  0  0  0  0  0
    3.7568   -3.6240   20.4173 C   0  0  0  0  0  0  0  0  0  0  0  0
    3.4274   -2.9822   21.7294 N   0  0  0  0  0  0  0  0  0  0  0  0
   -1.2266   -8.8577   17.7746 C   0  0  2  0  0  0  0  0  0  0  0  0
   -2.4543   -8.8223   16.9890 N   0  0  0  0  0  0  0  0  0  0  0  0
   -1.1703   -7.6166   18.7607 C   0  0  0  0  0  0  0  0  0  0  0  0
    0.1550   -7.6549   19.6190 C   0  0  2  0  0  0  0  0  0  0  0  0
    0.1902   -6.4923   20.5470 N   0  0  0  0  0  0  0  0  0  0  0  0
    1.4076   -7.6600   18.6551 C   0  0  2  0  0  0  0  0  0  0  0  0
    1.3141   -8.9056   17.6873 C   0  0  2  0  0  0  0  0  0  0  0  0
    2.4458   -8.9047   16.8114 O   0  0  0  0  0  0  0  0  0  0  0  0
   -0.0071   -8.8395   16.8299 C   0  0  1  0  0  0  0  0  0  0  0  0
   -0.0967   -9.9942   15.9483 O   0  0  0  0  0  0  0  0  0  0  0  0
   -0.1267   -9.9159   14.5443 C   0  0  2  0  0  0  0  0  0  0  0  0
   -0.4499  -11.3490   14.0011 C   0  0  2  0  0  0  0  0  0  0  0  0
   -1.6833  -11.7653   14.4928 O   0  0  0  0  0  0  0  0  0  0  0  0
    0.6846  -12.3726   14.3857 C   0  0  1  0  0  0  0  0  0  0  0  0
    0.3864  -13.7477   13.8657 N   0  0  0  0  0  0  0  0  0  0  0  0
    2.0533  -11.8382   13.8040 C   0  0  2  0  0  0  0  0  0  0  0  0
    3.1236  -12.7323   14.1158 O   0  0  0  0  0  0  0  0  0  0  0  0
    2.3182  -10.4081   14.3849 C   0  0  2  0  0  0  0  0  0  0  0  0
    1.1895   -9.4732   14.0506 O   0  0  0  0  0  0  0  0  0  0  0  0
    3.5915   -9.8182   13.8516 C   0  0  0  0  0  0  0  0  0  0  0  0
    3.4726   -9.4951   12.4565 O   0  0  0  0  0  0  0  0  0  0  0  0
    4.9493   -9.2049   19.8518 O   0  0  0  0  0  0  0  0  0  0  0  0
    5.9495   -7.7648   22.1240 O   0  0  0  0  0  0  0  0  0  0  0  0
   -7.1796  -11.6415   15.0903 N   0  0  0  0  0  0  0  0  0  0  0  0
   -3.7388   -8.9191   17.5056 C   0  0  0  0  0  0  0  0  0  0  0  0
   -3.9874   -9.0549   18.6986 O   0  0  0  0  0  0  0  0  0  0  0  0
   -4.8236   -8.8541   16.4059 C   0  0  1  0  0  0  0  0  0  0  0  0
   -5.4427  -10.2500   16.1910 C   0  0  0  0  0  0  0  0  0  0  0  0
   -6.4981  -10.3487   15.0834 C   0  0  0  0  0  0  0  0  0  0  0  0
   -5.8337   -7.8956   16.7938 O   0  0  0  0  0  0  0  0  0  0  0  0
  1  2  1  1  0  0  0
  1  3  1  0  0  0  0
  1  8  1  0  0  0  0
  3  4  1  0  0  0  0
  3 32  1  1  0  0  0
  4  5  1  0  0  0  0
  4 33  1  1  0  0  0
  5  6  1  1  0  0  0
  5  7  1  0  0  0  0
  7  8  1  0  0  0  0
  7  9  1  6  0  0  0
  9 10  1  0  0  0  0
 11 12  1  6  0  0  0
 11 13  1  0  0  0  0
 11 19  1  0  0  0  0
 12 35  1  0  0  0  0
 13 14  1  0  0  0  0
 14 15  1  1  0  0  0
 14 16  1  0  0  0  0
 16  2  1  1  0  0  0
 16 17  1  0  0  0  0
 17 18  1  6  0  0  0
 17 19  1  0  0  0  0
 19 20  1  6  0  0  0
 21 20  1  1  0  0  0
 21 22  1  0  0  0  0
 21 29  1  0  0  0  0
 22 23  1  1  0  0  0
 22 24  1  0  0  0  0
 24 25  1  6  0  0  0
 24 26  1  0  0  0  0
 26 27  1  1  0  0  0
 26 28  1  0  0  0  0
 28 29  1  0  0  0  0
 28 30  1  6  0  0  0
 30 31  1  0  0  0  0
 34 39  1  0  0  0  0
 35 36  2  0  0  0  0
 37 35  1  1  0  0  0
 37 38  1  0  0  0  0
 37 40  1  0  0  0  0
 38 39  1  0  0  0  0
M  END
>  <CHROM.1>
-163.45790049,-68.79812651,-63.36016188,-152.10265108,122.24894546,-171.33665820
69.48378206,106.86958813,-177.56732496,-170.90809206,0.77446808,-8.72366472
17.42345693,-0.78021652,0.00277956,-2.25262354

>  <Name>
2g5q_lig

>  <RI>
0

>  <Rbt.Current_Directory>
/home/itssahil/PROJECTS/Mol_Feturizer/New_Systems/rnas/2g5q

>  <Rbt.Executable>
rbdock ($Id: //depot/dev/client3/rdock/2013.1/src/exe/rbdock.cxx#4 $)

>  <Rbt.Library>
libRbt.so (2013.1, Build901 2013/11/27)

>  <Rbt.Parameter_File>
/export/apps/rDock/src/rDock_2013.1_src/data/scripts/dock_solv.prm

>  <Rbt.Receptor>
prm/pocket_docking_2.prm

>  <SCORE>
-20.7181

>  <SCORE.INTER>
-17.2965

>  <SCORE.INTER.CONST>
1

>  <SCORE.INTER.POLAR>
-1.01901

>  <SCORE.INTER.ROT>
10

>  <SCORE.INTER.SOLV>
22.7215

>  <SCORE.INTER.VDW>
-25.9748

>  <SCORE.INTER.norm>
-0.432413

>  <SCORE.INTRA>
-3.53716

>  <SCORE.INTRA.DIHEDRAL>
-7.34476

>  <SCORE.INTRA.DIHEDRAL.0>
22.5778

>  <SCORE.INTRA.POLAR>
0

>  <SCORE.INTRA.POLAR.0>
0

>  <SCORE.INTRA.REPUL>
0

>  <SCORE.INTRA.REPUL.0>
0

>  <SCORE.INTRA.SOLV>
0.278885

>  <SCORE.INTRA.SOLV.lig_0>
-102.332

>  <SCORE.INTRA.VDW>
-0.00422777

>  <SCORE.INTRA.VDW.0>
-5.08747

>  <SCORE.INTRA.norm>
-0.0884291

>  <SCORE.RESTR>
0.115545

>  <SCORE.RESTR.CAVITY>
0.115545

>  <SCORE.RESTR.norm>
0.00288862

>  <SCORE.SYSTEM>
0

>  <SCORE.SYSTEM.CONST>
0

>  <SCORE.SYSTEM.DIHEDRAL>
0

>  <SCORE.SYSTEM.SOLV>
0

>  <SCORE.SYSTEM.norm>
0

>  <SCORE.heavy>
40

>  <SCORE.norm>
-0.517953

>  <RMSD>
0.736

$$$$
2g5q_lig
 OpenBabel11021811433D
libRbt.so/2013.1/901 2013/11/27
 40 42  0  0  0  0  0  0  0  0999 V2000
    3.9820   -7.4240   18.9166 C   0  0  2  0  0  0  0  0  0  0  0  0
    2.8367   -8.1397   19.3233 O   0  0  0  0  0  0  0  0  0  0  0  0
    5.1856   -7.8553   19.8055 C   0  0  1  0  0  0  0  0  0  0  0  0
    5.0001   -7.4137   21.2902 C   0  0  2  0  0  0  0  0  0  0  0  0
    4.8618   -5.8692   21.3117 C   0  0  2  0  0  0  0  0  0  0  0  0
    4.7118   -5.4199   22.6682 O   0  0  0  0  0  0  0  0  0  0  0  0
    3.6047   -5.4714   20.4368 C   0  0  2  0  0  0  0  0  0  0  0  0
    3.7823   -5.9558   19.0380 O   0  0  0  0  0  0  0  0  0  0  0  0
    3.3809   -3.9641   20.3764 C   0  0  0  0  0  0  0  0  0  0  0  0
    2.9432   -3.4079   21.6957 N   0  0  0  0  0  0  0  0  0  0  0  0
   -1.0157   -9.4871   17.7675 C   0  0  2  0  0  0  0  0  0  0  0  0
   -2.2493   -9.5399   16.9922 N   0  0  0  0  0  0  0  0  0  0  0  0
   -0.9665   -8.1571   18.6303 C   0  0  0  0  0  0  0  0  0  0  0  0
    0.3653   -8.0993   19.4774 C   0  0  2  0  0  0  0  0  0  0  0  0
    0.3939   -6.8533   20.2902 N   0  0  0  0  0  0  0  0  0  0  0  0
    1.6109   -8.1829   18.5082 C   0  0  2  0  0  0  0  0  0  0  0  0
    1.5247   -9.5160   17.6641 C   0  0  2  0  0  0  0  0  0  0  0  0
    2.6500   -9.5865   16.7829 O   0  0  0  0  0  0  0  0  0  0  0  0
    0.1967   -9.5460   16.8153 C   0  0  1  0  0  0  0  0  0  0  0  0
    0.1140  -10.7803   16.0484 O   0  0  0  0  0  0  0  0  0  0  0  0
   -0.4808  -10.8829   14.7780 C   0  0  2  0  0  0  0  0  0  0  0  0
   -0.7291  -12.4037   14.4973 C   0  0  2  0  0  0  0  0  0  0  0  0
   -1.5722  -12.9250   15.4740 O   0  0  0  0  0  0  0  0  0  0  0  0
    0.6287  -13.2011   14.4410 C   0  0  1  0  0  0  0  0  0  0  0  0
    0.4016  -14.6586   14.1680 N   0  0  0  0  0  0  0  0  0  0  0  0
    1.5371  -12.5560   13.3203 C   0  0  2  0  0  0  0  0  0  0  0  0
    2.7850  -13.2445   13.2166 O   0  0  0  0  0  0  0  0  0  0  0  0
    1.7483  -11.0417   13.6593 C   0  0  2  0  0  0  0  0  0  0  0  0
    0.4314  -10.3243   13.7641 O   0  0  0  0  0  0  0  0  0  0  0  0
    2.5798  -10.3494   12.6186 C   0  0  0  0  0  0  0  0  0  0  0  0
    3.9139  -10.8818   12.5778 O   0  0  0  0  0  0  0  0  0  0  0  0
    5.3367   -9.3129   19.7028 O   0  0  0  0  0  0  0  0  0  0  0  0
    6.0959   -7.8079   22.0257 O   0  0  0  0  0  0  0  0  0  0  0  0
   -7.2589  -11.3194   15.6800 N   0  0  0  0  0  0  0  0  0  0  0  0
   -3.5148   -9.7661   17.5151 C   0  0  0  0  0  0  0  0  0  0  0  0
   -3.7386   -9.9572   18.7054 O   0  0  0  0  0  0  0  0  0  0  0  0
   -4.6119   -9.7676   16.4257 C   0  0  1  0  0  0  0  0  0  0  0  0
   -6.0065   -9.6958   17.0800 C   0  0  0  0  0  0  0  0  0  0  0  0
   -7.1963   -9.9347   16.1432 C   0  0  0  0  0  0  0  0  0  0  0  0
   -4.3996   -8.6462   15.5387 O   0  0  0  0  0  0  0  0  0  0  0  0
  1  2  1  1  0  0  0
  1  3  1  0  0  0  0
  1  8  1  0  0  0  0
  3  4  1  0  0  0  0
  3 32  1  1  0  0  0
  4  5  1  0  0  0  0
  4 33  1  1  0  0  0
  5  6  1  1  0  0  0
  5  7  1  0  0  0  0
  7  8  1  0  0  0  0
  7  9  1  6  0  0  0
  9 10  1  0  0  0  0
 11 12  1  6  0  0  0
 11 13  1  0  0  0  0
 11 19  1  0  0  0  0
 12 35  1  0  0  0  0
 13 14  1  0  0  0  0
 14 15  1  6  0  0  0
 14 16  1  0  0  0  0
 16  2  1  1  0  0  0
 16 17  1  0  0  0  0
 17 18  1  6  0  0  0
 17 19  1  0  0  0  0
 19 20  1  1  0  0  0
 21 20  1  1  0  0  0
 21 22  1  0  0  0  0
 21 29  1  0  0  0  0
 22 23  1  1  0  0  0
 22 24  1  0  0  0  0
 24 25  1  6  0  0  0
 24 26  1  0  0  0  0
 26 27  1  1  0  0  0
 26 28  1  0  0  0  0
 28 29  1  0  0  0  0
 28 30  1  6  0  0  0
 30 31  1  0  0  0  0
 34 39  1  0  0  0  0
 35 36  2  0  0  0  0
 37 35  1  1  0  0  0
 37 38  1  0  0  0  0
 37 40  1  0  0  0  0
 38 39  1  0  0  0  0
M  END
>  <CHROM.1>
-166.51197759,-68.96958880,-71.77803272,-140.73724657,93.80738741,-163.94228010
-64.41925703,-167.00626841,-169.74425629,68.72750011,0.76296674,-9.24025661
17.37316310,-0.83077106,-0.00956719,-2.28186029

>  <Name>
2g5q_lig

>  <RI>
0

>  <Rbt.Current_Directory>
/home/itssahil/PROJECTS/Mol_Feturizer/New_Systems/rnas/2g5q

>  <Rbt.Executable>
rbdock ($Id: //depot/dev/client3/rdock/2013.1/src/exe/rbdock.cxx#4 $)

>  <Rbt.Library>
libRbt.so (2013.1, Build901 2013/11/27)

>  <Rbt.Parameter_File>
/export/apps/rDock/src/rDock_2013.1_src/data/scripts/dock_solv.prm

>  <Rbt.Receptor>
prm/pocket_docking_2.prm

>  <SCORE>
-21.4399

>  <SCORE.INTER>
-18.3707

>  <SCORE.INTER.CONST>
1

>  <SCORE.INTER.POLAR>
-1.25757

>  <SCORE.INTER.ROT>
10

>  <SCORE.INTER.SOLV>
16.8315

>  <SCORE.INTER.VDW>
-23.9323

>  <SCORE.INTER.norm>
-0.459266

>  <SCORE.INTRA>
-3.06927

>  <SCORE.INTRA.DIHEDRAL>
-8.81004

>  <SCORE.INTRA.DIHEDRAL.0>
22.5778

>  <SCORE.INTRA.POLAR>
0

>  <SCORE.INTRA.POLAR.0>
0

>  <SCORE.INTRA.REPUL>
0

>  <SCORE.INTRA.REPUL.0>
0

>  <SCORE.INTRA.SOLV>
1.90102

>  <SCORE.INTRA.SOLV.lig_0>
-102.332

>  <SCORE.INTRA.VDW>
0.385236

>  <SCORE.INTRA.VDW.0>
-5.08747

>  <SCORE.INTRA.norm>
-0.0767318

>  <SCORE.RESTR>
0

>  <SCORE.RESTR.CAVITY>
0

>  <SCORE.RESTR.norm>
0

>  <SCORE.SYSTEM>
0

>  <SCORE.SYSTEM.CONST>
0

>  <SCORE.SYSTEM.DIHEDRAL>
0

>  <SCORE.SYSTEM.SOLV>
0

>  <SCORE.SYSTEM.norm>
0

>  <SCORE.heavy>
40

>  <SCORE.norm>
-0.535998

>  <RMSD>
0.756

$$$$
2g5q_lig
 OpenBabel11021811433D
libRbt.so/2013.1/901 2013/11/27
 40 42  0  0  0  0  0  0  0  0999 V2000
    4.0048   -7.3864   18.9023 C   0  0  2  0  0  0  0  0  0  0  0  0
    2.8438   -8.0882   19.2882 O   0  0  0  0  0  0  0  0  0  0  0  0
    5.1923   -7.8505   19.7964 C   0  0  1  0  0  0  0  0  0  0  0  0
    5.0000   -7.4265   21.2853 C   0  0  2  0  0  0  0  0  0  0  0  0
    4.8876   -5.8804   21.3273 C   0  0  2  0  0  0  0  0  0  0  0  0
    4.7321   -5.4475   22.6885 O   0  0  0  0  0  0  0  0  0  0  0  0
    3.6458   -5.4491   20.4463 C   0  0  2  0  0  0  0  0  0  0  0  0
    3.8288   -5.9169   19.0426 O   0  0  0  0  0  0  0  0  0  0  0  0
    3.4481   -3.9375   20.4050 C   0  0  0  0  0  0  0  0  0  0  0  0
    3.0040   -3.3927   21.7270 N   0  0  0  0  0  0  0  0  0  0  0  0
   -1.1060   -9.1856   17.7808 C   0  0  2  0  0  0  0  0  0  0  0  0
   -2.3520   -9.1565   17.0242 N   0  0  0  0  0  0  0  0  0  0  0  0
   -0.9634   -7.8690   18.6538 C   0  0  0  0  0  0  0  0  0  0  0  0
    0.3819   -7.8997   19.4807 C   0  0  2  0  0  0  0  0  0  0  0  0
    0.4981   -6.6652   20.3033 N   0  0  0  0  0  0  0  0  0  0  0  0
    1.6055   -8.0496   18.4917 C   0  0  2  0  0  0  0  0  0  0  0  0
    1.4261   -9.3672   17.6381 C   0  0  2  0  0  0  0  0  0  0  0  0
    2.5318   -9.4975   16.7390 O   0  0  0  0  0  0  0  0  0  0  0  0
    0.0862   -9.3090   16.8095 C   0  0  1  0  0  0  0  0  0  0  0  0
   -0.0826  -10.5289   16.0339 O   0  0  0  0  0  0  0  0  0  0  0  0
   -0.6456  -10.5747   14.7458 C   0  0  2  0  0  0  0  0  0  0  0  0
   -1.0826  -12.0545   14.4768 C   0  0  2  0  0  0  0  0  0  0  0  0
   -2.0170  -12.4442   15.4315 O   0  0  0  0  0  0  0  0  0  0  0  0
    0.1598  -13.0236   14.4760 C   0  0  1  0  0  0  0  0  0  0  0  0
   -0.2481  -14.4433   14.2146 N   0  0  0  0  0  0  0  0  0  0  0  0
    1.1796  -12.5223   13.3779 C   0  0  2  0  0  0  0  0  0  0  0  0
    2.3290  -13.3697   13.3247 O   0  0  0  0  0  0  0  0  0  0  0  0
    1.5771  -11.0430   13.7040 C   0  0  2  0  0  0  0  0  0  0  0  0
    0.3632  -10.1577   13.7556 O   0  0  0  0  0  0  0  0  0  0  0  0
    2.5245  -10.4835   12.6827 C   0  0  0  0  0  0  0  0  0  0  0  0
    2.8820   -9.1263   12.9909 O   0  0  0  0  0  0  0  0  0  0  0  0
    5.3197   -9.3089   19.6746 O   0  0  0  0  0  0  0  0  0  0  0  0
    6.0819   -7.8495   22.0255 O   0  0  0  0  0  0  0  0  0  0  0  0
   -7.5822   -9.9783   15.6259 N   0  0  0  0  0  0  0  0  0  0  0  0
   -3.6226   -9.0751   17.5765 C   0  0  0  0  0  0  0  0  0  0  0  0
   -3.8423   -9.0254   18.7818 O   0  0  0  0  0  0  0  0  0  0  0  0
   -4.7342   -9.0714   16.5018 C   0  0  1  0  0  0  0  0  0  0  0  0
   -5.2410  -10.5078   16.2609 C   0  0  0  0  0  0  0  0  0  0  0  0
   -6.3539  -10.6564   15.2169 C   0  0  0  0  0  0  0  0  0  0  0  0
   -5.8104   -8.2104   16.9372 O   0  0  0  0  0  0  0  0  0  0  0  0
  1  2  1  1  0  0  0
  1  3  1  0  0  0  0
  1  8  1  0  0  0  0
  3  4  1  0  0  0  0
  3 32  1  1  0  0  0
  4  5  1  0  0  0  0
  4 33  1  1  0  0  0
  5  6  1  1  0  0  0
  5  7  1  0  0  0  0
  7  8  1  0  0  0  0
  7  9  1  6  0  0  0
  9 10  1  0  0  0  0
 11 12  1  6  0  0  0
 11 13  1  0  0  0  0
 11 19  1  0  0  0  0
 12 35  1  0  0  0  0
 13 14  1  0  0  0  0
 14 15  1  6  0  0  0
 14 16  1  0  0  0  0
 16  2  1  1  0  0  0
 16 17  1  0  0  0  0
 17 18  1  6  0  0  0
 17 19  1  0  0  0  0
 19 20  1  1  0  0  0
 21 20  1  1  0  0  0
 21 22  1  0  0  0  0
 21 29  1  0  0  0  0
 22 23  1  1  0  0  0
 22 24  1  0  0  0  0
 24 25  1  6  0  0  0
 24 26  1  0  0  0  0
 26 27  1  1  0  0  0
 26 28  1  0  0  0  0
 28 29  1  0  0  0  0
 28 30  1  6  0  0  0
 30 31  1  0  0  0  0
 34 39  1  0  0  0  0
 35 36  2  0  0  0  0
 37 35  1  1  0  0  0
 37 38  1  0  0  0  0
 37 40  1  0  0  0  0
 38 39  1  0  0  0  0
M  END
>  <CHROM.1>
-169.33810684,-69.10381528,-59.83996199,-137.61700823,96.86947119,-161.26249377
179.97090960,93.52044757,179.83145760,-64.24606079,0.62978914,-9.03325906
17.39084774,-0.80325554,0.02539302,-2.28610069

>  <Name>
2g5q_lig

>  <RI>
0

>  <Rbt.Current_Directory>
/home/itssahil/PROJECTS/Mol_Feturizer/New_Systems/rnas/2g5q

>  <Rbt.Executable>
rbdock ($Id: //depot/dev/client3/rdock/2013.1/src/exe/rbdock.cxx#4 $)

>  <Rbt.Library>
libRbt.so (2013.1, Build901 2013/11/27)

>  <Rbt.Parameter_File>
/export/apps/rDock/src/rDock_2013.1_src/data/scripts/dock_solv.prm

>  <Rbt.Receptor>
prm/pocket_docking_2.prm

>  <SCORE>
-26.7271

>  <SCORE.INTER>
-23.9028

>  <SCORE.INTER.CONST>
1

>  <SCORE.INTER.POLAR>
-1.73706

>  <SCORE.INTER.ROT>
10

>  <SCORE.INTER.SOLV>
19.1292

>  <SCORE.INTER.VDW>
-26.7881

>  <SCORE.INTER.norm>
-0.597569

>  <SCORE.INTRA>
-2.82436

>  <SCORE.INTRA.DIHEDRAL>
-7.6243

>  <SCORE.INTRA.DIHEDRAL.0>
22.5778

>  <SCORE.INTRA.POLAR>
0

>  <SCORE.INTRA.POLAR.0>
0

>  <SCORE.INTRA.REPUL>
0

>  <SCORE.INTRA.REPUL.0>
0

>  <SCORE.INTRA.SOLV>
2.87008

>  <SCORE.INTRA.SOLV.lig_0>
-102.332

>  <SCORE.INTRA.VDW>
-0.447257

>  <SCORE.INTRA.VDW.0>
-5.08747

>  <SCORE.INTRA.norm>
-0.0706091

>  <SCORE.RESTR>
0

>  <SCORE.RESTR.CAVITY>
0

>  <SCORE.RESTR.norm>
0

>  <SCORE.SYSTEM>
0

>  <SCORE.SYSTEM.CONST>
0

>  <SCORE.SYSTEM.DIHEDRAL>
0

>  <SCORE.SYSTEM.SOLV>
0

>  <SCORE.SYSTEM.norm>
0

>  <SCORE.heavy>
40

>  <SCORE.norm>
-0.668179

>  <RMSD>
0.758

$$$$
2g5q_lig
 OpenBabel11021811433D
libRbt.so/2013.1/901 2013/11/27
 40 42  0  0  0  0  0  0  0  0999 V2000
    3.7017   -7.3948   18.7802 C   0  0  2  0  0  0  0  0  0  0  0  0
    2.5274   -7.9524   19.3278 O   0  0  0  0  0  0  0  0  0  0  0  0
    4.9362   -8.0603   19.4568 C   0  0  1  0  0  0  0  0  0  0  0  0
    5.0401   -7.6914   20.9690 C   0  0  2  0  0  0  0  0  0  0  0  0
    5.1555   -6.1484   21.0738 C   0  0  2  0  0  0  0  0  0  0  0  0
    5.2768   -5.7691   22.4544 O   0  0  0  0  0  0  0  0  0  0  0  0
    3.8653   -5.5088   20.4179 C   0  0  2  0  0  0  0  0  0  0  0  0
    3.7592   -5.9242   18.9900 O   0  0  0  0  0  0  0  0  0  0  0  0
    3.8793   -3.9843   20.4533 C   0  0  0  0  0  0  0  0  0  0  0  0
    2.4987   -3.4082   20.3919 N   0  0  0  0  0  0  0  0  0  0  0  0
   -1.1727   -9.6868   17.7857 C   0  0  2  0  0  0  0  0  0  0  0  0
   -2.4127   -9.8522   17.0368 N   0  0  0  0  0  0  0  0  0  0  0  0
   -1.2632   -8.4092   18.7213 C   0  0  0  0  0  0  0  0  0  0  0  0
    0.0756   -8.2303   19.5399 C   0  0  2  0  0  0  0  0  0  0  0  0
   -0.0263   -7.0358   20.4213 N   0  0  0  0  0  0  0  0  0  0  0  0
    1.2928   -8.1052   18.5395 C   0  0  2  0  0  0  0  0  0  0  0  0
    1.3475   -9.3915   17.6233 C   0  0  2  0  0  0  0  0  0  0  0  0
    2.4463   -9.2732   16.7142 O   0  0  0  0  0  0  0  0  0  0  0  0
    0.0089   -9.5423   16.8044 C   0  0  1  0  0  0  0  0  0  0  0  0
    0.0571  -10.7344   15.9708 O   0  0  0  0  0  0  0  0  0  0  0  0
   -0.4734  -10.8114   14.6705 C   0  0  2  0  0  0  0  0  0  0  0  0
   -0.7438  -12.3230   14.3625 C   0  0  2  0  0  0  0  0  0  0  0  0
   -1.6487  -12.8317   15.2892 O   0  0  0  0  0  0  0  0  0  0  0  0
    0.5953  -13.1533   14.3683 C   0  0  1  0  0  0  0  0  0  0  0  0
    0.3473  -14.6023   14.0696 N   0  0  0  0  0  0  0  0  0  0  0  0
    1.5759  -12.5213   13.3022 C   0  0  2  0  0  0  0  0  0  0  0  0
    2.8104  -13.2395   13.2562 O   0  0  0  0  0  0  0  0  0  0  0  0
    1.8059  -11.0157   13.6666 C   0  0  2  0  0  0  0  0  0  0  0  0
    0.5032  -10.2668   13.7105 O   0  0  0  0  0  0  0  0  0  0  0  0
    2.7067  -10.3353   12.6770 C   0  0  0  0  0  0  0  0  0  0  0  0
    2.9098   -8.9546   13.0197 O   0  0  0  0  0  0  0  0  0  0  0  0
    4.8355   -9.5144   19.2734 O   0  0  0  0  0  0  0  0  0  0  0  0
    6.1533   -8.2941   21.5121 O   0  0  0  0  0  0  0  0  0  0  0  0
   -7.5847  -11.8045   16.0597 N   0  0  0  0  0  0  0  0  0  0  0  0
   -3.5965  -10.3630   17.5505 C   0  0  0  0  0  0  0  0  0  0  0  0
   -3.7310  -10.7450   18.7078 O   0  0  0  0  0  0  0  0  0  0  0  0
   -4.7249  -10.4133   16.4947 C   0  0  1  0  0  0  0  0  0  0  0  0
   -6.0895  -10.1605   17.1672 C   0  0  0  0  0  0  0  0  0  0  0  0
   -7.3212  -10.3843   16.2822 C   0  0  0  0  0  0  0  0  0  0  0  0
   -4.4617   -9.4249   15.4734 O   0  0  0  0  0  0  0  0  0  0  0  0
  1  2  1  1  0  0  0
  1  3  1  0  0  0  0
  1  8  1  0  0  0  0
  3  4  1  0  0  0  0
  3 32  1  1  0  0  0
  4  5  1  0  0  0  0
  4 33  1  6  0  0  0
  5  6  1  1  0  0  0
  5  7  1  0  0  0  0
  7  8  1  0  0  0  0
  7  9  1  6  0  0  0
  9 10  1  0  0  0  0
 11 12  1  6  0  0  0
 11 13  1  0  0  0  0
 11 19  1  0  0  0  0
 12 35  1  0  0  0  0
 13 14  1  0  0  0  0
 14 15  1  6  0  0  0
 14 16  1  0  0  0  0
 16  2  1  1  0  0  0
 16 17  1  0  0  0  0
 17 18  1  6  0  0  0
 17 19  1  0  0  0  0
 19 20  1  6  0  0  0
 21 20  1  1  0  0  0
 21 22  1  0  0  0  0
 21 29  1  0  0  0  0
 22 23  1  1  0  0  0
 22 24  1  0  0  0  0
 24 25  1  6  0  0  0
 24 26  1  0  0  0  0
 26 27  1  1  0  0  0
 26 28  1  0  0  0  0
 28 29  1  0  0  0  0
 28 30  1  6  0  0  0
 30 31  1  0  0  0  0
 34 39  1  0  0  0  0
 35 36  2  0  0  0  0
 37 35  1  1  0  0  0
 37 38  1  0  0  0  0
 37 40  1  0  0  0  0
 38 39  1  0  0  0  0
M  END
>  <CHROM.1>
-148.19400752,-155.72671287,-77.17064790,-159.01214296,98.65034023,-157.48573508
179.93511371,-146.61600225,-171.32889286,74.06769678,0.66134395,-9.33225853
17.30254019,-0.75934666,-0.08453908,-2.25731584

>  <Name>
2g5q_lig

>  <RI>
0

>  <Rbt.Current_Directory>
/home/itssahil/PROJECTS/Mol_Feturizer/New_Systems/rnas/2g5q

>  <Rbt.Executable>
rbdock ($Id: //depot/dev/client3/rdock/2013.1/src/exe/rbdock.cxx#4 $)

>  <Rbt.Library>
libRbt.so (2013.1, Build901 2013/11/27)

>  <Rbt.Parameter_File>
/export/apps/rDock/src/rDock_2013.1_src/data/scripts/dock_solv.prm

>  <Rbt.Receptor>
prm/pocket_docking_2.prm

>  <SCORE>
-24.1828

>  <SCORE.INTER>
-22.0861

>  <SCORE.INTER.CONST>
1

>  <SCORE.INTER.POLAR>
-2.61165

>  <SCORE.INTER.ROT>
10

>  <SCORE.INTER.SOLV>
20.8268

>  <SCORE.INTER.VDW>
-23.2275

>  <SCORE.INTER.norm>
-0.552151

>  <SCORE.INTRA>
-2.22083

>  <SCORE.INTRA.DIHEDRAL>
-4.40218

>  <SCORE.INTRA.DIHEDRAL.0>
22.5778

>  <SCORE.INTRA.POLAR>
0

>  <SCORE.INTRA.POLAR.0>
0

>  <SCORE.INTRA.REPUL>
0

>  <SCORE.INTRA.REPUL.0>
0

>  <SCORE.INTRA.SOLV>
-0.331605

>  <SCORE.INTRA.SOLV.lig_0>
-102.332

>  <SCORE.INTRA.VDW>
0.146058

>  <SCORE.INTRA.VDW.0>
-5.08747

>  <SCORE.INTRA.norm>
-0.0555208

>  <SCORE.RESTR>
0.124119

>  <SCORE.RESTR.CAVITY>
0.124119

>  <SCORE.RESTR.norm>
0.00310298

>  <SCORE.SYSTEM>
0

>  <SCORE.SYSTEM.CONST>
0

>  <SCORE.SYSTEM.DIHEDRAL>
0

>  <SCORE.SYSTEM.SOLV>
0

>  <SCORE.SYSTEM.norm>
0

>  <SCORE.heavy>
40

>  <SCORE.norm>
-0.604569

>  <RMSD>
0.762

$$$$
2g5q_lig
 OpenBabel11021811433D
libRbt.so/2013.1/901 2013/11/27
 40 42  0  0  0  0  0  0  0  0999 V2000
    4.0337   -7.4043   18.8932 C   0  0  2  0  0  0  0  0  0  0  0  0
    2.8609   -8.0820   19.2865 O   0  0  0  0  0  0  0  0  0  0  0  0
    5.2151   -7.8857   19.7860 C   0  0  1  0  0  0  0  0  0  0  0  0
    5.0356   -7.4502   21.2732 C   0  0  2  0  0  0  0  0  0  0  0  0
    4.9524   -5.9020   21.3071 C   0  0  2  0  0  0  0  0  0  0  0  0
    4.8094   -5.4589   22.6664 O   0  0  0  0  0  0  0  0  0  0  0  0
    3.7161   -5.4522   20.4277 C   0  0  2  0  0  0  0  0  0  0  0  0
    3.8857   -5.9310   19.0259 O   0  0  0  0  0  0  0  0  0  0  0  0
    3.5466   -3.9375   20.3787 C   0  0  0  0  0  0  0  0  0  0  0  0
    3.1265   -3.3762   21.7016 N   0  0  0  0  0  0  0  0  0  0  0  0
   -1.0795   -9.1741   17.7508 C   0  0  2  0  0  0  0  0  0  0  0  0
   -2.3220   -9.1407   16.9888 N   0  0  0  0  0  0  0  0  0  0  0  0
   -0.9438   -7.8654   18.6367 C   0  0  0  0  0  0  0  0  0  0  0  0
    0.3977   -7.9008   19.4695 C   0  0  2  0  0  0  0  0  0  0  0  0
    0.5074   -6.6739   20.3041 N   0  0  0  0  0  0  0  0  0  0  0  0
    1.6262   -8.0388   18.4847 C   0  0  2  0  0  0  0  0  0  0  0  0
    1.4537   -9.3487   17.6180 C   0  0  2  0  0  0  0  0  0  0  0  0
    2.5638   -9.4681   16.7228 O   0  0  0  0  0  0  0  0  0  0  0  0
    0.1175   -9.2858   16.7839 C   0  0  1  0  0  0  0  0  0  0  0  0
   -0.0450  -10.4987   15.9961 O   0  0  0  0  0  0  0  0  0  0  0  0
   -0.6170  -10.5360   14.7117 C   0  0  2  0  0  0  0  0  0  0  0  0
   -1.0623  -12.0126   14.4389 C   0  0  2  0  0  0  0  0  0  0  0  0
   -1.9919  -12.4027   15.3981 O   0  0  0  0  0  0  0  0  0  0  0  0
    0.1757  -12.9871   14.4251 C   0  0  1  0  0  0  0  0  0  0  0  0
   -0.2402  -14.4038   14.1598 N   0  0  0  0  0  0  0  0  0  0  0  0
    1.1902  -12.4851   13.3223 C   0  0  2  0  0  0  0  0  0  0  0  0
    2.3355  -13.3374   13.2573 O   0  0  0  0  0  0  0  0  0  0  0  0
    1.5965  -11.0092   13.6526 C   0  0  2  0  0  0  0  0  0  0  0  0
    0.3869  -10.1188   13.7166 O   0  0  0  0  0  0  0  0  0  0  0  0
    2.5393  -10.4490   12.6274 C   0  0  0  0  0  0  0  0  0  0  0  0
    2.9286   -9.1053   12.9556 O   0  0  0  0  0  0  0  0  0  0  0  0
    5.3148   -9.3470   19.6718 O   0  0  0  0  0  0  0  0  0  0  0  0
    6.1118   -7.8894   22.0123 O   0  0  0  0  0  0  0  0  0  0  0  0
   -7.5323   -9.9544   15.4712 N   0  0  0  0  0  0  0  0  0  0  0  0
   -3.5954   -9.0674   17.5360 C   0  0  0  0  0  0  0  0  0  0  0  0
   -3.8207   -9.0295   18.7406 O   0  0  0  0  0  0  0  0  0  0  0  0
   -4.7019   -9.0561   16.4563 C   0  0  1  0  0  0  0  0  0  0  0  0
   -5.2264  -10.4873   16.2221 C   0  0  0  0  0  0  0  0  0  0  0  0
   -6.2876  -10.6381   15.1259 C   0  0  0  0  0  0  0  0  0  0  0  0
   -5.7689   -8.1784   16.8813 O   0  0  0  0  0  0  0  0  0  0  0  0
  1  2  1  1  0  0  0
  1  3  1  0  0  0  0
  1  8  1  0  0  0  0
  3  4  1  0  0  0  0
  3 32  1  1  0  0  0
  4  5  1  0  0  0  0
  4 33  1  1  0  0  0
  5  6  1  1  0  0  0
  5  7  1  0  0  0  0
  7  8  1  0  0  0  0
  7  9  1  6  0  0  0
  9 10  1  0  0  0  0
 11 12  1  6  0  0  0
 11 13  1  0  0  0  0
 11 19  1  0  0  0  0
 12 35  1  0  0  0  0
 13 14  1  0  0  0  0
 14 15  1  6  0  0  0
 14 16  1  0  0  0  0
 16  2  1  1  0  0  0
 16 17  1  0  0  0  0
 17 18  1  6  0  0  0
 17 19  1  0  0  0  0
 19 20  1  1  0  0  0
 21 20  1  1  0  0  0
 21 22  1  0  0  0  0
 21 29  1  0  0  0  0
 22 23  1  1  0  0  0
 22 24  1  0  0  0  0
 24 25  1  6  0  0  0
 24 26  1  0  0  0  0
 26 27  1  1  0  0  0
 26 28  1  0  0  0  0
 28 29  1  0  0  0  0
 28 30  1  6  0  0  0
 30 31  1  0  0  0  0
 34 39  1  0  0  0  0
 35 36  2  0  0  0  0
 37 35  1  1  0  0  0
 37 38  1  0  0  0  0
 37 40  1  0  0  0  0
 38 39  1  0  0  0  0
M  END
>  <CHROM.1>
-168.52825601,-68.69943965,-59.84370988,-139.42513879,96.05433371,-160.36733159
-178.72391196,94.77739258,-177.29030061,-65.70556818,0.66341842,-9.02179471
17.35688193,-0.80191202,0.02808457,-2.28024962

>  <Name>
2g5q_lig

>  <RI>
0

>  <Rbt.Current_Directory>
/home/itssahil/PROJECTS/Mol_Feturizer/New_Systems/rnas/2g5q

>  <Rbt.Executable>
rbdock ($Id: //depot/dev/client3/rdock/2013.1/src/exe/rbdock.cxx#4 $)

>  <Rbt.Library>
libRbt.so (2013.1, Build901 2013/11/27)

>  <Rbt.Parameter_File>
/export/apps/rDock/src/rDock_2013.1_src/data/scripts/dock_solv.prm

>  <Rbt.Receptor>
prm/pocket_docking_2.prm

>  <SCORE>
-26.7563

>  <SCORE.INTER>
-23.8136

>  <SCORE.INTER.CONST>
1

>  <SCORE.INTER.POLAR>
-1.74296

>  <SCORE.INTER.ROT>
10

>  <SCORE.INTER.SOLV>
19.7641

>  <SCORE.INTER.VDW>
-26.9206

>  <SCORE.INTER.norm>
-0.595339

>  <SCORE.INTRA>
-2.98474

>  <SCORE.INTRA.DIHEDRAL>
-7.70878

>  <SCORE.INTRA.DIHEDRAL.0>
22.5778

>  <SCORE.INTRA.POLAR>
0

>  <SCORE.INTRA.POLAR.0>
0

>  <SCORE.INTRA.REPUL>
0

>  <SCORE.INTRA.REPUL.0>
0

>  <SCORE.INTRA.SOLV>
2.6382

>  <SCORE.INTRA.SOLV.lig_0>
-102.332

>  <SCORE.INTRA.VDW>
-0.449448

>  <SCORE.INTRA.VDW.0>
-5.08747

>  <SCORE.INTRA.norm>
-0.0746184

>  <SCORE.RESTR>
0.0419613

>  <SCORE.RESTR.CAVITY>
0.0419613

>  <SCORE.RESTR.norm>
0.00104903

>  <SCORE.SYSTEM>
0

>  <SCORE.SYSTEM.CONST>
0

>  <SCORE.SYSTEM.DIHEDRAL>
0

>  <SCORE.SYSTEM.SOLV>
0

>  <SCORE.SYSTEM.norm>
0

>  <SCORE.heavy>
40

>  <SCORE.norm>
-0.668909

>  <RMSD>
0.775

$$$$
2g5q_lig
 OpenBabel11021811433D
libRbt.so/2013.1/901 2013/11/27
 40 42  0  0  0  0  0  0  0  0999 V2000
    4.0685   -7.5458   18.9167 C   0  0  2  0  0  0  0  0  0  0  0  0
    2.8811   -8.2026   19.3017 O   0  0  0  0  0  0  0  0  0  0  0  0
    5.2332   -8.0419   19.8234 C   0  0  1  0  0  0  0  0  0  0  0  0
    5.0462   -7.5962   21.3067 C   0  0  2  0  0  0  0  0  0  0  0  0
    4.9877   -6.0468   21.3325 C   0  0  2  0  0  0  0  0  0  0  0  0
    4.8386   -5.5949   22.6882 O   0  0  0  0  0  0  0  0  0  0  0  0
    3.7675   -5.5815   20.4388 C   0  0  2  0  0  0  0  0  0  0  0  0
    3.9430   -6.0697   19.0411 O   0  0  0  0  0  0  0  0  0  0  0  0
    3.6230   -4.0644   20.3811 C   0  0  0  0  0  0  0  0  0  0  0  0
    3.2434   -3.4854   21.7086 N   0  0  0  0  0  0  0  0  0  0  0  0
   -1.0935   -9.1776   17.7754 C   0  0  2  0  0  0  0  0  0  0  0  0
   -2.3332   -9.1116   17.0109 N   0  0  0  0  0  0  0  0  0  0  0  0
   -0.9129   -7.8619   18.6426 C   0  0  0  0  0  0  0  0  0  0  0  0
    0.4256   -7.9323   19.4780 C   0  0  2  0  0  0  0  0  0  0  0  0
    0.5774   -6.6981   20.2950 N   0  0  0  0  0  0  0  0  0  0  0  0
    1.6496   -8.1276   18.4973 C   0  0  2  0  0  0  0  0  0  0  0  0
    1.4321   -9.4431   17.6493 C   0  0  2  0  0  0  0  0  0  0  0  0
    2.5383   -9.6144   16.7577 O   0  0  0  0  0  0  0  0  0  0  0  0
    0.0999   -9.3453   16.8122 C   0  0  1  0  0  0  0  0  0  0  0  0
   -0.1043  -10.5630   16.0417 O   0  0  0  0  0  0  0  0  0  0  0  0
   -0.6611  -10.5971   14.7506 C   0  0  2  0  0  0  0  0  0  0  0  0
   -0.9757  -12.0942   14.4144 C   0  0  2  0  0  0  0  0  0  0  0  0
   -1.8756  -12.6009   15.3471 O   0  0  0  0  0  0  0  0  0  0  0  0
    0.3416  -12.9578   14.3757 C   0  0  1  0  0  0  0  0  0  0  0  0
    0.0511  -14.3929   14.0499 N   0  0  0  0  0  0  0  0  0  0  0  0
    1.3176  -12.3266   13.3050 C   0  0  2  0  0  0  0  0  0  0  0  0
    2.5324  -13.0743   13.2190 O   0  0  0  0  0  0  0  0  0  0  0  0
    1.5929  -10.8358   13.6981 C   0  0  2  0  0  0  0  0  0  0  0  0
    0.3108  -10.0556   13.7840 O   0  0  0  0  0  0  0  0  0  0  0  0
    2.4919  -10.1560   12.7064 C   0  0  0  0  0  0  0  0  0  0  0  0
    3.8388  -10.6477   12.8006 O   0  0  0  0  0  0  0  0  0  0  0  0
    5.3103   -9.5050   19.7170 O   0  0  0  0  0  0  0  0  0  0  0  0
    6.1079   -8.0492   22.0584 O   0  0  0  0  0  0  0  0  0  0  0  0
   -6.5864  -12.7514   16.5625 N   0  0  0  0  0  0  0  0  0  0  0  0
   -3.5644   -9.5881   17.4390 C   0  0  0  0  0  0  0  0  0  0  0  0
   -3.7477  -10.1330   18.5220 O   0  0  0  0  0  0  0  0  0  0  0  0
   -4.6787   -9.3707   16.3895 C   0  0  1  0  0  0  0  0  0  0  0  0
   -5.8139  -10.3921   16.6046 C   0  0  0  0  0  0  0  0  0  0  0  0
   -5.4463  -11.8600   16.3587 C   0  0  0  0  0  0  0  0  0  0  0  0
   -5.1744   -8.0174   16.4990 O   0  0  0  0  0  0  0  0  0  0  0  0
  1  2  1  1  0  0  0
  1  3  1  0  0  0  0
  1  8  1  0  0  0  0
  3  4  1  0  0  0  0
  3 32  1  1  0  0  0
  4  5  1  0  0  0  0
  4 33  1  1  0  0  0
  5  6  1  1  0  0  0
  5  7  1  0  0  0  0
  7  8  1  0  0  0  0
  7  9  1  6  0  0  0
  9 10  1  0  0  0  0
 11 12  1  6  0  0  0
 11 13  1  0  0  0  0
 11 19  1  0  0  0  0
 12 35  1  0  0  0  0
 13 14  1  0  0  0  0
 14 15  1  6  0  0  0
 14 16  1  0  0  0  0
 16  2  1  1  0  0  0
 16 17  1  0  0  0  0
 17 18  1  6  0  0  0
 17 19  1  0  0  0  0
 19 20  1  1  0  0  0
 21 20  1  1  0  0  0
 21 22  1  0  0  0  0
 21 29  1  0  0  0  0
 22 23  1  1  0  0  0
 22 24  1  0  0  0  0
 24 25  1  6  0  0  0
 24 26  1  0  0  0  0
 26 27  1  1  0  0  0
 26 28  1  0  0  0  0
 28 29  1  0  0  0  0
 28 30  1  6  0  0  0
 30 31  1  0  0  0  0
 34 39  1  0  0  0  0
 35 36  2  0  0  0  0
 37 35  1  1  0  0  0
 37 38  1  0  0  0  0
 37 40  1  0  0  0  0
 38 39  1  0  0  0  0
M  END
>  <CHROM.1>
-169.41728596,-66.79985685,-91.31169368,-137.87425249,96.84788565,-168.40889179
-71.18905965,155.90011560,-65.72449548,-178.96793715,0.76962085,-9.24495691
17.40964838,-0.82511203,-0.05691223,-2.25539419

>  <Name>
2g5q_lig

>  <RI>
0

>  <Rbt.Current_Directory>
/home/itssahil/PROJECTS/Mol_Feturizer/New_Systems/rnas/2g5q

>  <Rbt.Executable>
rbdock ($Id: //depot/dev/client3/rdock/2013.1/src/exe/rbdock.cxx#4 $)

>  <Rbt.Library>
libRbt.so (2013.1, Build901 2013/11/27)

>  <Rbt.Parameter_File>
/export/apps/rDock/src/rDock_2013.1_src/data/scripts/dock_solv.prm

>  <Rbt.Receptor>
prm/pocket_docking_2.prm

>  <SCORE>
-21.3798

>  <SCORE.INTER>
-17.7938

>  <SCORE.INTER.CONST>
1

>  <SCORE.INTER.POLAR>
-0.894427

>  <SCORE.INTER.ROT>
10

>  <SCORE.INTER.SOLV>
19.975

>  <SCORE.INTER.VDW>
-25.8061

>  <SCORE.INTER.norm>
-0.444844

>  <SCORE.INTRA>
-3.63242

>  <SCORE.INTRA.DIHEDRAL>
-8.0797

>  <SCORE.INTRA.DIHEDRAL.0>
22.5778

>  <SCORE.INTRA.POLAR>
0

>  <SCORE.INTRA.POLAR.0>
0

>  <SCORE.INTRA.REPUL>
0

>  <SCORE.INTRA.REPUL.0>
0

>  <SCORE.INTRA.SOLV>
1.40226

>  <SCORE.INTRA.SOLV.lig_0>
-102.332

>  <SCORE.INTRA.VDW>
-0.293695

>  <SCORE.INTRA.VDW.0>
-5.08747

>  <SCORE.INTRA.norm>
-0.0908104

>  <SCORE.RESTR>
0.0463578

>  <SCORE.RESTR.CAVITY>
0.0463578

>  <SCORE.RESTR.norm>
0.00115894

>  <SCORE.SYSTEM>
0

>  <SCORE.SYSTEM.CONST>
0

>  <SCORE.SYSTEM.DIHEDRAL>
0

>  <SCORE.SYSTEM.SOLV>
0

>  <SCORE.SYSTEM.norm>
0

>  <SCORE.heavy>
40

>  <SCORE.norm>
-0.534495

>  <RMSD>
0.777

$$$$
2g5q_lig
 OpenBabel11021811433D
libRbt.so/2013.1/901 2013/11/27
 40 42  0  0  0  0  0  0  0  0999 V2000
    3.6389   -7.2534   19.0822 C   0  0  2  0  0  0  0  0  0  0  0  0
    2.4199   -7.8267   19.5005 O   0  0  0  0  0  0  0  0  0  0  0  0
    4.8051   -8.2023   19.4877 C   0  0  1  0  0  0  0  0  0  0  0  0
    4.9691   -8.2938   21.0363 C   0  0  2  0  0  0  0  0  0  0  0  0
    5.2494   -6.8645   21.5687 C   0  0  2  0  0  0  0  0  0  0  0  0
    5.4300   -6.9101   22.9934 O   0  0  0  0  0  0  0  0  0  0  0  0
    4.0254   -5.9407   21.1782 C   0  0  2  0  0  0  0  0  0  0  0  0
    3.8556   -5.9174   19.6972 O   0  0  0  0  0  0  0  0  0  0  0  0
    4.2021   -4.4992   21.6433 C   0  0  0  0  0  0  0  0  0  0  0  0
    3.0140   -3.6515   21.3092 N   0  0  0  0  0  0  0  0  0  0  0  0
   -1.4094   -9.0291   17.7779 C   0  0  2  0  0  0  0  0  0  0  0  0
   -2.6232   -9.0213   16.9701 N   0  0  0  0  0  0  0  0  0  0  0  0
   -1.3640   -7.7483   18.7123 C   0  0  0  0  0  0  0  0  0  0  0  0
   -0.0539   -7.7565   19.5945 C   0  0  2  0  0  0  0  0  0  0  0  0
   -0.0289   -6.5564   20.4738 N   0  0  0  0  0  0  0  0  0  0  0  0
    1.2151   -7.8072   18.6537 C   0  0  2  0  0  0  0  0  0  0  0  0
    1.1321   -9.0916   17.7370 C   0  0  2  0  0  0  0  0  0  0  0  0
    2.2787   -9.1320   16.8817 O   0  0  0  0  0  0  0  0  0  0  0  0
   -0.1738   -9.0556   16.8546 C   0  0  1  0  0  0  0  0  0  0  0  0
   -0.2539  -10.2455   16.0204 O   0  0  0  0  0  0  0  0  0  0  0  0
   -0.2172  -10.2289   14.6145 C   0  0  2  0  0  0  0  0  0  0  0  0
   -0.5061  -11.6867   14.1200 C   0  0  2  0  0  0  0  0  0  0  0  0
   -1.7593  -12.0906   14.5704 O   0  0  0  0  0  0  0  0  0  0  0  0
    0.6143  -12.6838   14.6027 C   0  0  1  0  0  0  0  0  0  0  0  0
    0.3489  -14.0826   14.1300 N   0  0  0  0  0  0  0  0  0  0  0  0
    2.0063  -12.1649   14.0638 C   0  0  2  0  0  0  0  0  0  0  0  0
    3.0654  -13.0364   14.4650 O   0  0  0  0  0  0  0  0  0  0  0  0
    2.2352  -10.7089   14.5932 C   0  0  2  0  0  0  0  0  0  0  0  0
    1.1186   -9.7981   14.1649 O   0  0  0  0  0  0  0  0  0  0  0  0
    3.5292  -10.1331   14.0956 C   0  0  0  0  0  0  0  0  0  0  0  0
    3.6158  -10.2052   12.6631 O   0  0  0  0  0  0  0  0  0  0  0  0
    4.5477   -9.5259   18.9045 O   0  0  0  0  0  0  0  0  0  0  0  0
    6.0194   -9.1328   21.3370 O   0  0  0  0  0  0  0  0  0  0  0  0
   -7.6147  -11.7192   15.5593 N   0  0  0  0  0  0  0  0  0  0  0  0
   -3.9168   -8.9569   17.4689 C   0  0  0  0  0  0  0  0  0  0  0  0
   -4.1871   -8.9064   18.6638 O   0  0  0  0  0  0  0  0  0  0  0  0
   -4.9826   -8.9736   16.3490 C   0  0  1  0  0  0  0  0  0  0  0  0
   -5.6905  -10.3432   16.3134 C   0  0  0  0  0  0  0  0  0  0  0  0
   -6.9626  -10.4149   15.4609 C   0  0  0  0  0  0  0  0  0  0  0  0
   -5.9311   -7.9082   16.5826 O   0  0  0  0  0  0  0  0  0  0  0  0
  1  2  1  1  0  0  0
  1  3  1  0  0  0  0
  1  8  1  0  0  0  0
  3  4  1  0  0  0  0
  3 32  1  1  0  0  0
  4  5  1  0  0  0  0
  4 33  1  6  0  0  0
  5  6  1  1  0  0  0
  5  7  1  0  0  0  0
  7  8  1  0  0  0  0
  7  9  1  6  0  0  0
  9 10  1  0  0  0  0
 11 12  1  6  0  0  0
 11 13  1  0  0  0  0
 11 19  1  0  0  0  0
 12 35  1  0  0  0  0
 13 14  1  0  0  0  0
 14 15  1  6  0  0  0
 14 16  1  0  0  0  0
 16  2  1  1  0  0  0
 16 17  1  0  0  0  0
 17 18  1  6  0  0  0
 17 19  1  0  0  0  0
 19 20  1  6  0  0  0
 21 20  1  1  0  0  0
 21 22  1  0  0  0  0
 21 29  1  0  0  0  0
 22 23  1  1  0  0  0
 22 24  1  0  0  0  0
 24 25  1  6  0  0  0
 24 26  1  0  0  0  0
 26 27  1  1  0  0  0
 26 28  1  0  0  0  0
 28 29  1  0  0  0  0
 28 30  1  6  0  0  0
 30 31  1  0  0  0  0
 34 39  1  0  0  0  0
 35 36  2  0  0  0  0
 37 35  1  1  0  0  0
 37 38  1  0  0  0  0
 37 40  1  0  0  0  0
 38 39  1  0  0  0  0
M  END
>  <CHROM.1>
-138.33806655,-177.93989841,-56.58275951,-149.10708626,124.32528178,-173.20620494
53.94150807,106.56571177,167.63633349,-176.06378210,0.67750126,-9.09611935
17.49150219,0.68235088,-0.05644396,0.88337594

>  <Name>
2g5q_lig

>  <RI>
0

>  <Rbt.Current_Directory>
/home/itssahil/PROJECTS/Mol_Feturizer/New_Systems/rnas/2g5q

>  <Rbt.Executable>
rbdock ($Id: //depot/dev/client3/rdock/2013.1/src/exe/rbdock.cxx#4 $)

>  <Rbt.Library>
libRbt.so (2013.1, Build901 2013/11/27)

>  <Rbt.Parameter_File>
/export/apps/rDock/src/rDock_2013.1_src/data/scripts/dock_solv.prm

>  <Rbt.Receptor>
prm/pocket_docking_2.prm

>  <SCORE>
-11.3306

>  <SCORE.INTER>
-10.198

>  <SCORE.INTER.CONST>
1

>  <SCORE.INTER.POLAR>
0

>  <SCORE.INTER.ROT>
10

>  <SCORE.INTER.SOLV>
18.571

>  <SCORE.INTER.VDW>
-23.2557

>  <SCORE.INTER.norm>
-0.254951

>  <SCORE.INTRA>
-1.13278

>  <SCORE.INTRA.DIHEDRAL>
-2.80753

>  <SCORE.INTRA.DIHEDRAL.0>
22.5778

>  <SCORE.INTRA.POLAR>
0

>  <SCORE.INTRA.POLAR.0>
0

>  <SCORE.INTRA.REPUL>
0

>  <SCORE.INTRA.REPUL.0>
0

>  <SCORE.INTRA.SOLV>
-0.394574

>  <SCORE.INTRA.SOLV.lig_0>
-102.332

>  <SCORE.INTRA.VDW>
0.468268

>  <SCORE.INTRA.VDW.0>
-5.08747

>  <SCORE.INTRA.norm>
-0.0283196

>  <SCORE.RESTR>
0.000276093

>  <SCORE.RESTR.CAVITY>
0.000276093

>  <SCORE.RESTR.norm>
6.90234e-06

>  <SCORE.SYSTEM>
0

>  <SCORE.SYSTEM.CONST>
0

>  <SCORE.SYSTEM.DIHEDRAL>
0

>  <SCORE.SYSTEM.SOLV>
0

>  <SCORE.SYSTEM.norm>
0

>  <SCORE.heavy>
40

>  <SCORE.norm>
-0.283264

>  <RMSD>
0.818

$$$$
2g5q_lig
 OpenBabel11021811433D
libRbt.so/2013.1/901 2013/11/27
 40 42  0  0  0  0  0  0  0  0999 V2000
    3.4181   -7.1904   18.6963 C   0  0  2  0  0  0  0  0  0  0  0  0
    2.2100   -7.6831   19.2323 O   0  0  0  0  0  0  0  0  0  0  0  0
    4.6023   -8.0045   19.2961 C   0  0  1  0  0  0  0  0  0  0  0  0
    4.7649   -7.7529   20.8271 C   0  0  2  0  0  0  0  0  0  0  0  0
    5.0153   -6.2366   21.0345 C   0  0  2  0  0  0  0  0  0  0  0  0
    5.1937   -5.9669   22.4344 O   0  0  0  0  0  0  0  0  0  0  0  0
    3.7737   -5.4449   20.4549 C   0  0  2  0  0  0  0  0  0  0  0  0
    3.6065   -5.7484   19.0048 O   0  0  0  0  0  0  0  0  0  0  0  0
    3.9203   -3.9334   20.5943 C   0  0  0  0  0  0  0  0  0  0  0  0
    2.6200   -3.2213   20.3852 N   0  0  0  0  0  0  0  0  0  0  0  0
   -1.4153   -9.4530   17.5585 C   0  0  2  0  0  0  0  0  0  0  0  0
   -2.6344   -9.6240   16.7772 N   0  0  0  0  0  0  0  0  0  0  0  0
   -1.5550   -8.2047   18.5271 C   0  0  0  0  0  0  0  0  0  0  0  0
   -0.2391   -8.0201   19.3807 C   0  0  2  0  0  0  0  0  0  0  0  0
   -0.3872   -6.8535   20.2924 N   0  0  0  0  0  0  0  0  0  0  0  0
    0.9969   -7.8403   18.4121 C   0  0  2  0  0  0  0  0  0  0  0  0
    1.1006   -9.0986   17.4620 C   0  0  2  0  0  0  0  0  0  0  0  0
    2.2164   -8.9308   16.5818 O   0  0  0  0  0  0  0  0  0  0  0  0
   -0.2157   -9.2552   16.6089 C   0  0  1  0  0  0  0  0  0  0  0  0
   -0.1225  -10.4219   15.7438 O   0  0  0  0  0  0  0  0  0  0  0  0
   -0.0868  -10.3631   14.3390 C   0  0  2  0  0  0  0  0  0  0  0  0
   -0.1624  -11.8337   13.8055 C   0  0  2  0  0  0  0  0  0  0  0  0
   -1.3451  -12.4252   14.2389 O   0  0  0  0  0  0  0  0  0  0  0  0
    1.0891  -12.6719   14.2678 C   0  0  1  0  0  0  0  0  0  0  0  0
    1.0281  -14.0813   13.7578 N   0  0  0  0  0  0  0  0  0  0  0  0
    2.3927  -11.9444   13.7495 C   0  0  2  0  0  0  0  0  0  0  0  0
    3.5655  -12.6649   14.1335 O   0  0  0  0  0  0  0  0  0  0  0  0
    2.4092  -10.4850   14.3176 C   0  0  2  0  0  0  0  0  0  0  0  0
    1.1738   -9.7331   13.9074 O   0  0  0  0  0  0  0  0  0  0  0  0
    3.6077   -9.7164   13.8417 C   0  0  0  0  0  0  0  0  0  0  0  0
    3.5311   -9.4512   12.4315 O   0  0  0  0  0  0  0  0  0  0  0  0
    4.3729   -9.4282   19.0160 O   0  0  0  0  0  0  0  0  0  0  0  0
    5.8313   -8.4848   21.3009 O   0  0  0  0  0  0  0  0  0  0  0  0
   -7.7717  -10.5025   15.0210 N   0  0  0  0  0  0  0  0  0  0  0  0
   -3.8203  -10.1669   17.2518 C   0  0  0  0  0  0  0  0  0  0  0  0
   -3.9746  -10.5764   18.3971 O   0  0  0  0  0  0  0  0  0  0  0  0
   -4.9227  -10.2140   16.1689 C   0  0  1  0  0  0  0  0  0  0  0  0
   -5.9580  -11.3031   16.5158 C   0  0  0  0  0  0  0  0  0  0  0  0
   -6.9562  -11.6526   15.4059 C   0  0  0  0  0  0  0  0  0  0  0  0
   -5.5508   -8.9155   16.0761 O   0  0  0  0  0  0  0  0  0  0  0  0
  1  2  1  1  0  0  0
  1  3  1  0  0  0  0
  1  8  1  0  0  0  0
  3  4  1  0  0  0  0
  3 32  1  1  0  0  0
  4  5  1  0  0  0  0
  4 33  1  6  0  0  0
  5  6  1  1  0  0  0
  5  7  1  0  0  0  0
  7  8  1  0  0  0  0
  7  9  1  6  0  0  0
  9 10  1  0  0  0  0
 11 12  1  6  0  0  0
 11 13  1  0  0  0  0
 11 19  1  0  0  0  0
 12 35  1  0  0  0  0
 13 14  1  0  0  0  0
 14 15  1  1  0  0  0
 14 16  1  0  0  0  0
 16  2  1  1  0  0  0
 16 17  1  0  0  0  0
 17 18  1  6  0  0  0
 17 19  1  0  0  0  0
 19 20  1  6  0  0  0
 21 20  1  1  0  0  0
 21 22  1  0  0  0  0
 21 29  1  0  0  0  0
 22 23  1  1  0  0  0
 22 24  1  0  0  0  0
 24 25  1  6  0  0  0
 24 26  1  0  0  0  0
 26 27  1  1  0  0  0
 26 28  1  0  0  0  0
 28 29  1  0  0  0  0
 28 30  1  6  0  0  0
 30 31  1  0  0  0  0
 34 39  1  0  0  0  0
 35 36  2  0  0  0  0
 37 35  1  1  0  0  0
 37 38  1  0  0  0  0
 37 40  1  0  0  0  0
 38 39  1  0  0  0  0
M  END
>  <CHROM.1>
-139.94372788,-164.92233554,-76.73733672,-164.54468540,126.20373004,-173.18586256
68.36319619,156.44526423,-168.61433917,-61.10017821,0.67054938,-9.14026327
17.17534413,0.71431586,0.05710443,0.88785908

>  <Name>
2g5q_lig

>  <RI>
0

>  <Rbt.Current_Directory>
/home/itssahil/PROJECTS/Mol_Feturizer/New_Systems/rnas/2g5q

>  <Rbt.Executable>
rbdock ($Id: //depot/dev/client3/rdock/2013.1/src/exe/rbdock.cxx#4 $)

>  <Rbt.Library>
libRbt.so (2013.1, Build901 2013/11/27)

>  <Rbt.Parameter_File>
/export/apps/rDock/src/rDock_2013.1_src/data/scripts/dock_solv.prm

>  <Rbt.Receptor>
prm/pocket_docking_2.prm

>  <SCORE>
-15.9403

>  <SCORE.INTER>
-13.9303

>  <SCORE.INTER.CONST>
1

>  <SCORE.INTER.POLAR>
-0.757358

>  <SCORE.INTER.ROT>
10

>  <SCORE.INTER.SOLV>
20.0944

>  <SCORE.INTER.VDW>
-23.7271

>  <SCORE.INTER.norm>
-0.348257

>  <SCORE.INTRA>
-2.02474

>  <SCORE.INTRA.DIHEDRAL>
-5.76304

>  <SCORE.INTRA.DIHEDRAL.0>
22.5778

>  <SCORE.INTRA.POLAR>
0

>  <SCORE.INTRA.POLAR.0>
0

>  <SCORE.INTRA.REPUL>
0

>  <SCORE.INTRA.REPUL.0>
0

>  <SCORE.INTRA.SOLV>
0.513134

>  <SCORE.INTRA.SOLV.lig_0>
-102.332

>  <SCORE.INTRA.VDW>
0.600213

>  <SCORE.INTRA.VDW.0>
-5.08747

>  <SCORE.INTRA.norm>
-0.0506185

>  <SCORE.RESTR>
0.0147738

>  <SCORE.RESTR.CAVITY>
0.0147738

>  <SCORE.RESTR.norm>
0.000369345

>  <SCORE.SYSTEM>
0

>  <SCORE.SYSTEM.CONST>
0

>  <SCORE.SYSTEM.DIHEDRAL>
0

>  <SCORE.SYSTEM.SOLV>
0

>  <SCORE.SYSTEM.norm>
0

>  <SCORE.heavy>
40

>  <SCORE.norm>
-0.398507

>  <RMSD>
0.819

$$$$
2g5q_lig
 OpenBabel11021811433D
libRbt.so/2013.1/901 2013/11/27
 40 42  0  0  0  0  0  0  0  0999 V2000
    3.3577   -7.2231   18.7770 C   0  0  2  0  0  0  0  0  0  0  0  0
    2.2799   -8.0567   19.1415 O   0  0  0  0  0  0  0  0  0  0  0  0
    4.6787   -7.8449   19.3185 C   0  0  1  0  0  0  0  0  0  0  0  0
    4.7317   -7.8318   20.8775 C   0  0  2  0  0  0  0  0  0  0  0  0
    4.6192   -6.3570   21.3434 C   0  0  2  0  0  0  0  0  0  0  0  0
    4.6875   -6.3004   22.7775 O   0  0  0  0  0  0  0  0  0  0  0  0
    3.2470   -5.7728   20.8143 C   0  0  2  0  0  0  0  0  0  0  0  0
    3.1990   -5.8507   19.3262 O   0  0  0  0  0  0  0  0  0  0  0  0
    3.0369   -4.3138   21.2052 C   0  0  0  0  0  0  0  0  0  0  0  0
    3.9905   -3.4003   20.4997 N   0  0  0  0  0  0  0  0  0  0  0  0
   -1.3911   -9.7070   17.4451 C   0  0  2  0  0  0  0  0  0  0  0  0
   -2.6105   -9.8379   16.6566 N   0  0  0  0  0  0  0  0  0  0  0  0
   -1.4959   -8.4556   18.4140 C   0  0  0  0  0  0  0  0  0  0  0  0
   -0.1797   -8.3143   19.2754 C   0  0  2  0  0  0  0  0  0  0  0  0
   -0.2952   -7.1442   20.1873 N   0  0  0  0  0  0  0  0  0  0  0  0
    1.0671   -8.1739   18.3142 C   0  0  2  0  0  0  0  0  0  0  0  0
    1.1355   -9.4342   17.3635 C   0  0  2  0  0  0  0  0  0  0  0  0
    2.2613   -9.3018   16.4899 O   0  0  0  0  0  0  0  0  0  0  0  0
   -0.1802   -9.5474   16.5026 C   0  0  1  0  0  0  0  0  0  0  0  0
   -0.1197  -10.7158   15.6369 O   0  0  0  0  0  0  0  0  0  0  0  0
   -0.0856  -10.6575   14.2321 C   0  0  2  0  0  0  0  0  0  0  0  0
   -0.1964  -12.1258   13.6984 C   0  0  2  0  0  0  0  0  0  0  0  0
   -1.3916  -12.6899   14.1341 O   0  0  0  0  0  0  0  0  0  0  0  0
    1.0363  -12.9930   14.1579 C   0  0  1  0  0  0  0  0  0  0  0  0
    0.9416  -14.4004   13.6477 N   0  0  0  0  0  0  0  0  0  0  0  0
    2.3554  -12.2957   13.6371 C   0  0  2  0  0  0  0  0  0  0  0  0
    3.5120  -13.0433   14.0184 O   0  0  0  0  0  0  0  0  0  0  0  0
    2.4069  -10.8373   14.2055 C   0  0  2  0  0  0  0  0  0  0  0  0
    1.1884  -10.0568   13.7980 O   0  0  0  0  0  0  0  0  0  0  0  0
    3.6218  -10.0965   13.7272 C   0  0  0  0  0  0  0  0  0  0  0  0
    3.4563   -9.6411   12.3744 O   0  0  0  0  0  0  0  0  0  0  0  0
    4.7924   -9.2138   18.7974 O   0  0  0  0  0  0  0  0  0  0  0  0
    5.9230   -8.3793   21.3000 O   0  0  0  0  0  0  0  0  0  0  0  0
   -8.5145  -11.8080   16.1742 N   0  0  0  0  0  0  0  0  0  0  0  0
   -3.7748  -10.4632   17.0801 C   0  0  0  0  0  0  0  0  0  0  0  0
   -3.9069  -10.9901   18.1793 O   0  0  0  0  0  0  0  0  0  0  0  0
   -4.8840  -10.4370   16.0033 C   0  0  1  0  0  0  0  0  0  0  0  0
   -6.1769  -11.0658   16.5611 C   0  0  0  0  0  0  0  0  0  0  0  0
   -7.2989  -11.2988   15.5426 C   0  0  0  0  0  0  0  0  0  0  0  0
   -5.1108   -9.0704   15.5908 O   0  0  0  0  0  0  0  0  0  0  0  0
  1  2  1  1  0  0  0
  1  3  1  0  0  0  0
  1  8  1  0  0  0  0
  3  4  1  0  0  0  0
  3 32  1  1  0  0  0
  4  5  1  0  0  0  0
  4 33  1  6  0  0  0
  5  6  1  1  0  0  0
  5  7  1  0  0  0  0
  7  8  1  0  0  0  0
  7  9  1  6  0  0  0
  9 10  1  0  0  0  0
 11 12  1  6  0  0  0
 11 13  1  0  0  0  0
 11 19  1  0  0  0  0
 12 35  1  0  0  0  0
 13 14  1  0  0  0  0
 14 15  1  1  0  0  0
 14 16  1  0  0  0  0
 16  2  1  1  0  0  0
 16 17  1  0  0  0  0
 17 18  1  6  0  0  0
 17 19  1  0  0  0  0
 19 20  1  6  0  0  0
 21 20  1  1  0  0  0
 21 22  1  0  0  0  0
 21 29  1  0  0  0  0
 22 23  1  1  0  0  0
 22 24  1  0  0  0  0
 24 25  1  6  0  0  0
 24 26  1  0  0  0  0
 26 27  1  1  0  0  0
 26 28  1  0  0  0  0
 28 29  1  0  0  0  0
 28 30  1  6  0  0  0
 30 31  1  0  0  0  0
 34 39  1  0  0  0  0
 35 36  2  0  0  0  0
 37 35  1  1  0  0  0
 37 38  1  0  0  0  0
 37 40  1  0  0  0  0
 38 39  1  0  0  0  0
M  END
>  <CHROM.1>
-149.47015385,68.39734656,-83.55667562,-143.34842365,125.63034419,-173.37125940
77.66368426,-176.48191418,-171.25260756,-175.97247788,0.63724335,-9.38055991
17.17285548,0.74034818,0.07877199,0.90563206

>  <Name>
2g5q_lig

>  <RI>
0

>  <Rbt.Current_Directory>
/home/itssahil/PROJECTS/Mol_Feturizer/New_Systems/rnas/2g5q

>  <Rbt.Executable>
rbdock ($Id: //depot/dev/client3/rdock/2013.1/src/exe/rbdock.cxx#4 $)

>  <Rbt.Library>
libRbt.so (2013.1, Build901 2013/11/27)

>  <Rbt.Parameter_File>
/export/apps/rDock/src/rDock_2013.1_src/data/scripts/dock_solv.prm

>  <Rbt.Receptor>
prm/pocket_docking_2.prm

>  <SCORE>
-9.24372

>  <SCORE.INTER>
-8.63316

>  <SCORE.INTER.CONST>
1

>  <SCORE.INTER.POLAR>
0

>  <SCORE.INTER.ROT>
10

>  <SCORE.INTER.SOLV>
20.8716

>  <SCORE.INTER.VDW>
-22.9793

>  <SCORE.INTER.norm>
-0.215829

>  <SCORE.INTRA>
-0.865617

>  <SCORE.INTRA.DIHEDRAL>
-3.91827

>  <SCORE.INTRA.DIHEDRAL.0>
22.5778

>  <SCORE.INTRA.POLAR>
0

>  <SCORE.INTRA.POLAR.0>
0

>  <SCORE.INTRA.REPUL>
0

>  <SCORE.INTRA.REPUL.0>
0

>  <SCORE.INTRA.SOLV>
0.949372

>  <SCORE.INTRA.SOLV.lig_0>
-102.332

>  <SCORE.INTRA.VDW>
0.618834

>  <SCORE.INTRA.VDW.0>
-5.08747

>  <SCORE.INTRA.norm>
-0.0216404

>  <SCORE.RESTR>
0.255061

>  <SCORE.RESTR.CAVITY>
0.255061

>  <SCORE.RESTR.norm>
0.00637653

>  <SCORE.SYSTEM>
0

>  <SCORE.SYSTEM.CONST>
0

>  <SCORE.SYSTEM.DIHEDRAL>
0

>  <SCORE.SYSTEM.SOLV>
0

>  <SCORE.SYSTEM.norm>
0

>  <SCORE.heavy>
40

>  <SCORE.norm>
-0.231093

>  <RMSD>
0.848

$$$$
2g5q_lig
 OpenBabel11021811433D
libRbt.so/2013.1/901 2013/11/27
 40 42  0  0  0  0  0  0  0  0999 V2000
    3.6152   -7.2058   18.8922 C   0  0  2  0  0  0  0  0  0  0  0  0
    2.4319   -7.7397   19.4436 O   0  0  0  0  0  0  0  0  0  0  0  0
    4.8381   -7.8390   19.6192 C   0  0  1  0  0  0  0  0  0  0  0  0
    4.9155   -7.4027   21.1149 C   0  0  2  0  0  0  0  0  0  0  0  0
    5.0285   -5.8565   21.1527 C   0  0  2  0  0  0  0  0  0  0  0  0
    5.1256   -5.4157   22.5167 O   0  0  0  0  0  0  0  0  0  0  0  0
    3.7496   -5.2483   20.4465 C   0  0  2  0  0  0  0  0  0  0  0  0
    3.6686   -5.7272   19.0369 O   0  0  0  0  0  0  0  0  0  0  0  0
    3.7625   -3.7237   20.4139 C   0  0  0  0  0  0  0  0  0  0  0  0
    2.3797   -3.1498   20.4299 N   0  0  0  0  0  0  0  0  0  0  0  0
   -1.2948   -9.4516   17.9409 C   0  0  2  0  0  0  0  0  0  0  0  0
   -2.5317   -9.6201   17.1876 N   0  0  0  0  0  0  0  0  0  0  0  0
   -1.3630   -8.1331   18.8199 C   0  0  0  0  0  0  0  0  0  0  0  0
   -0.0277   -7.9505   19.6432 C   0  0  2  0  0  0  0  0  0  0  0  0
   -0.1088   -6.7170   20.4714 N   0  0  0  0  0  0  0  0  0  0  0  0
    1.2010   -7.8974   18.6504 C   0  0  2  0  0  0  0  0  0  0  0  0
    1.2330   -9.2230   17.7910 C   0  0  2  0  0  0  0  0  0  0  0  0
    2.3424   -9.1699   16.8885 O   0  0  0  0  0  0  0  0  0  0  0  0
   -0.1014   -9.3775   16.9661 C   0  0  1  0  0  0  0  0  0  0  0  0
   -0.0744  -10.6053   16.1850 O   0  0  0  0  0  0  0  0  0  0  0  0
   -0.6646  -10.7479   14.9164 C   0  0  2  0  0  0  0  0  0  0  0  0
   -0.9704  -12.2700   14.7093 C   0  0  2  0  0  0  0  0  0  0  0  0
   -1.8394  -12.7090   15.7036 O   0  0  0  0  0  0  0  0  0  0  0  0
    0.3555  -13.1213   14.7037 C   0  0  1  0  0  0  0  0  0  0  0  0
    0.0733  -14.5806   14.5014 N   0  0  0  0  0  0  0  0  0  0  0  0
    1.2954  -12.5684   13.5600 C   0  0  2  0  0  0  0  0  0  0  0  0
    2.5161  -13.3090   13.5008 O   0  0  0  0  0  0  0  0  0  0  0  0
    1.5635  -11.0484   13.8253 C   0  0  2  0  0  0  0  0  0  0  0  0
    0.2751  -10.2762   13.8836 O   0  0  0  0  0  0  0  0  0  0  0  0
    2.4280  -10.4415   12.7585 C   0  0  0  0  0  0  0  0  0  0  0  0
    2.6805   -9.0513   13.0198 O   0  0  0  0  0  0  0  0  0  0  0  0
    4.7411   -9.2999   19.4993 O   0  0  0  0  0  0  0  0  0  0  0  0
    6.0194   -7.9793   21.7037 O   0  0  0  0  0  0  0  0  0  0  0  0
   -7.2826   -9.8983   15.0272 N   0  0  0  0  0  0  0  0  0  0  0  0
   -3.7456  -10.0290   17.7220 C   0  0  0  0  0  0  0  0  0  0  0  0
   -3.9134  -10.3058   18.9046 O   0  0  0  0  0  0  0  0  0  0  0  0
   -4.8614  -10.1139   16.6551 C   0  0  1  0  0  0  0  0  0  0  0  0
   -6.1838   -9.5656   17.2287 C   0  0  0  0  0  0  0  0  0  0  0  0
   -7.4565   -9.9714   16.4765 C   0  0  0  0  0  0  0  0  0  0  0  0
   -4.4564   -9.3662   15.4863 O   0  0  0  0  0  0  0  0  0  0  0  0
  1  2  1  1  0  0  0
  1  3  1  0  0  0  0
  1  8  1  0  0  0  0
  3  4  1  0  0  0  0
  3 32  1  1  0  0  0
  4  5  1  0  0  0  0
  4 33  1  6  0  0  0
  5  6  1  1  0  0  0
  5  7  1  0  0  0  0
  7  8  1  0  0  0  0
  7  9  1  6  0  0  0
  9 10  1  0  0  0  0
 11 12  1  6  0  0  0
 11 13  1  0  0  0  0
 11 19  1  0  0  0  0
 12 35  1  0  0  0  0
 13 14  1  0  0  0  0
 14 15  1  6  0  0  0
 14 16  1  0  0  0  0
 16  2  1  1  0  0  0
 16 17  1  0  0  0  0
 17 18  1  6  0  0  0
 17 19  1  0  0  0  0
 19 20  1  1  0  0  0
 21 20  1  1  0  0  0
 21 22  1  0  0  0  0
 21 29  1  0  0  0  0
 22 23  1  1  0  0  0
 22 24  1  0  0  0  0
 24 25  1  6  0  0  0
 24 26  1  0  0  0  0
 26 27  1  1  0  0  0
 26 28  1  0  0  0  0
 28 29  1  0  0  0  0
 28 30  1  6  0  0  0
 30 31  1  0  0  0  0
 34 39  1  0  0  0  0
 35 36  2  0  0  0  0
 37 35  1  1  0  0  0
 37 38  1  0  0  0  0
 37 40  1  0  0  0  0
 38 39  1  0  0  0  0
M  END
>  <CHROM.1>
-149.77398567,-150.47709987,-74.43701156,-157.54643521,94.71568724,-155.59878790
-179.32528137,-139.22879815,-161.71467425,-42.43329303,0.52381949,-9.10555069
17.42792719,-0.77820178,-0.01901137,-2.30705610

>  <Name>
2g5q_lig

>  <RI>
0

>  <Rbt.Current_Directory>
/home/itssahil/PROJECTS/Mol_Feturizer/New_Systems/rnas/2g5q

>  <Rbt.Executable>
rbdock ($Id: //depot/dev/client3/rdock/2013.1/src/exe/rbdock.cxx#4 $)

>  <Rbt.Library>
libRbt.so (2013.1, Build901 2013/11/27)

>  <Rbt.Parameter_File>
/export/apps/rDock/src/rDock_2013.1_src/data/scripts/dock_solv.prm

>  <Rbt.Receptor>
prm/pocket_docking_2.prm

>  <SCORE>
-22.4946

>  <SCORE.INTER>
-21.981

>  <SCORE.INTER.CONST>
1

>  <SCORE.INTER.POLAR>
-2.54404

>  <SCORE.INTER.ROT>
10

>  <SCORE.INTER.SOLV>
22.1493

>  <SCORE.INTER.VDW>
-23.8236

>  <SCORE.INTER.norm>
-0.549524

>  <SCORE.INTRA>
-0.660041

>  <SCORE.INTRA.DIHEDRAL>
-2.6623

>  <SCORE.INTRA.DIHEDRAL.0>
22.5778

>  <SCORE.INTRA.POLAR>
0

>  <SCORE.INTRA.POLAR.0>
0

>  <SCORE.INTRA.REPUL>
0

>  <SCORE.INTRA.REPUL.0>
0

>  <SCORE.INTRA.SOLV>
0.883408

>  <SCORE.INTRA.SOLV.lig_0>
-102.332

>  <SCORE.INTRA.VDW>
0.229406

>  <SCORE.INTRA.VDW.0>
-5.08747

>  <SCORE.INTRA.norm>
-0.016501

>  <SCORE.RESTR>
0.146353

>  <SCORE.RESTR.CAVITY>
0.146353

>  <SCORE.RESTR.norm>
0.00365883

>  <SCORE.SYSTEM>
0

>  <SCORE.SYSTEM.CONST>
0

>  <SCORE.SYSTEM.DIHEDRAL>
0

>  <SCORE.SYSTEM.SOLV>
0

>  <SCORE.SYSTEM.norm>
0

>  <SCORE.heavy>
40

>  <SCORE.norm>
-0.562366

>  <RMSD>
0.865

$$$$
2g5q_lig
 OpenBabel11021811433D
libRbt.so/2013.1/901 2013/11/27
 40 42  0  0  0  0  0  0  0  0999 V2000
    3.0899   -6.9572   18.7638 C   0  0  2  0  0  0  0  0  0  0  0  0
    2.1021   -7.8698   19.1891 O   0  0  0  0  0  0  0  0  0  0  0  0
    4.4685   -7.4103   19.3285 C   0  0  1  0  0  0  0  0  0  0  0  0
    4.5263   -7.2965   20.8833 C   0  0  2  0  0  0  0  0  0  0  0  0
    4.2692   -5.8143   21.2600 C   0  0  2  0  0  0  0  0  0  0  0  0
    4.3373   -5.6633   22.6873 O   0  0  0  0  0  0  0  0  0  0  0  0
    2.8434   -5.4029   20.7105 C   0  0  2  0  0  0  0  0  0  0  0  0
    2.7974   -5.5763   19.2304 O   0  0  0  0  0  0  0  0  0  0  0  0
    2.4903   -3.9508   21.0143 C   0  0  0  0  0  0  0  0  0  0  0  0
    3.4790   -2.9961   20.4203 N   0  0  0  0  0  0  0  0  0  0  0  0
   -1.2939  -10.0497   17.5182 C   0  0  2  0  0  0  0  0  0  0  0  0
   -2.4926  -10.3576   16.7474 N   0  0  0  0  0  0  0  0  0  0  0  0
   -1.5765   -8.8495   18.5160 C   0  0  0  0  0  0  0  0  0  0  0  0
   -0.2823   -8.5174   19.3582 C   0  0  2  0  0  0  0  0  0  0  0  0
   -0.5637   -7.3982   20.2975 N   0  0  0  0  0  0  0  0  0  0  0  0
    0.9070   -8.1624   18.3797 C   0  0  2  0  0  0  0  0  0  0  0  0
    1.1554   -9.3774   17.4005 C   0  0  2  0  0  0  0  0  0  0  0  0
    2.2283   -9.0512   16.5114 O   0  0  0  0  0  0  0  0  0  0  0  0
   -0.1427   -9.6818   16.5594 C   0  0  1  0  0  0  0  0  0  0  0  0
    0.0850  -10.8090   15.6673 O   0  0  0  0  0  0  0  0  0  0  0  0
    0.0062  -10.7354   14.2650 C   0  0  2  0  0  0  0  0  0  0  0  0
   -0.1657  -12.1963   13.7271 C   0  0  2  0  0  0  0  0  0  0  0  0
   -1.3287  -12.7512   14.2524 O   0  0  0  0  0  0  0  0  0  0  0  0
    1.0892  -13.0828   14.0765 C   0  0  1  0  0  0  0  0  0  0  0  0
    0.9360  -14.4833   13.5613 N   0  0  0  0  0  0  0  0  0  0  0  0
    2.3704  -12.3951   13.4577 C   0  0  2  0  0  0  0  0  0  0  0  0
    3.5446  -13.1603   13.7365 O   0  0  0  0  0  0  0  0  0  0  0  0
    2.4859  -10.9438   14.0349 C   0  0  2  0  0  0  0  0  0  0  0  0
    1.2483  -10.1448   13.7354 O   0  0  0  0  0  0  0  0  0  0  0  0
    3.6674  -10.2119   13.4675 C   0  0  0  0  0  0  0  0  0  0  0  0
    3.5442   -8.7933   13.6606 O   0  0  0  0  0  0  0  0  0  0  0  0
    4.7161   -8.7905   18.8902 O   0  0  0  0  0  0  0  0  0  0  0  0
    5.7680   -7.6960   21.3260 O   0  0  0  0  0  0  0  0  0  0  0  0
   -8.4770  -12.0898   16.5811 N   0  0  0  0  0  0  0  0  0  0  0  0
   -3.6578  -10.9069   17.2639 C   0  0  0  0  0  0  0  0  0  0  0  0
   -3.8082  -11.2060   18.4434 O   0  0  0  0  0  0  0  0  0  0  0  0
   -4.7418  -11.1164   16.1816 C   0  0  1  0  0  0  0  0  0  0  0  0
   -6.0974  -11.4322   16.8454 C   0  0  0  0  0  0  0  0  0  0  0  0
   -7.2843  -11.6036   15.8904 C   0  0  0  0  0  0  0  0  0  0  0  0
   -4.8314   -9.9270   15.3651 O   0  0  0  0  0  0  0  0  0  0  0  0
  1  2  1  1  0  0  0
  1  3  1  0  0  0  0
  1  8  1  0  0  0  0
  3  4  1  0  0  0  0
  3 32  1  1  0  0  0
  4  5  1  0  0  0  0
  4 33  1  6  0  0  0
  5  6  1  1  0  0  0
  5  7  1  0  0  0  0
  7  8  1  0  0  0  0
  7  9  1  6  0  0  0
  9 10  1  0  0  0  0
 11 12  1  6  0  0  0
 11 13  1  0  0  0  0
 11 19  1  0  0  0  0
 12 35  1  0  0  0  0
 13 14  1  0  0  0  0
 14 15  1  1  0  0  0
 14 16  1  0  0  0  0
 16  2  1  1  0  0  0
 16 17  1  0  0  0  0
 17 18  1  6  0  0  0
 17 19  1  0  0  0  0
 19 20  1  6  0  0  0
 21 20  1  1  0  0  0
 21 22  1  0  0  0  0
 21 29  1  0  0  0  0
 22 23  1  1  0  0  0
 22 24  1  0  0  0  0
 24 25  1  6  0  0  0
 24 26  1  0  0  0  0
 26 27  1  1  0  0  0
 26 28  1  0  0  0  0
 28 29  1  0  0  0  0
 28 30  1  6  0  0  0
 30 31  1  0  0  0  0
 34 39  1  0  0  0  0
 35 36  2  0  0  0  0
 37 35  1  1  0  0  0
 37 38  1  0  0  0  0
 37 40  1  0  0  0  0
 38 39  1  0  0  0  0
M  END
>  <CHROM.1>
-149.16232279,59.28520801,-68.26260431,-149.33509373,121.84071016,-161.25038396
162.09601261,-167.72516412,177.39978537,171.65472698,0.57583945,-9.36606309
17.22506561,0.80359179,0.15597020,0.87655139

>  <Name>
2g5q_lig

>  <RI>
0

>  <Rbt.Current_Directory>
/home/itssahil/PROJECTS/Mol_Feturizer/New_Systems/rnas/2g5q

>  <Rbt.Executable>
rbdock ($Id: //depot/dev/client3/rdock/2013.1/src/exe/rbdock.cxx#4 $)

>  <Rbt.Library>
libRbt.so (2013.1, Build901 2013/11/27)

>  <Rbt.Parameter_File>
/export/apps/rDock/src/rDock_2013.1_src/data/scripts/dock_solv.prm

>  <Rbt.Receptor>
prm/pocket_docking_2.prm

>  <SCORE>
-15.4511

>  <SCORE.INTER>
-14.2776

>  <SCORE.INTER.CONST>
1

>  <SCORE.INTER.POLAR>
-1.37299

>  <SCORE.INTER.ROT>
10

>  <SCORE.INTER.SOLV>
20.1425

>  <SCORE.INTER.VDW>
-21.9226

>  <SCORE.INTER.norm>
-0.35694

>  <SCORE.INTRA>
-1.18542

>  <SCORE.INTRA.DIHEDRAL>
-3.92453

>  <SCORE.INTRA.DIHEDRAL.0>
22.5778

>  <SCORE.INTRA.POLAR>
0

>  <SCORE.INTRA.POLAR.0>
0

>  <SCORE.INTRA.REPUL>
0

>  <SCORE.INTRA.REPUL.0>
0

>  <SCORE.INTRA.SOLV>
0.850343

>  <SCORE.INTRA.SOLV.lig_0>
-102.332

>  <SCORE.INTRA.VDW>
0.351675

>  <SCORE.INTRA.VDW.0>
-5.08747

>  <SCORE.INTRA.norm>
-0.0296355

>  <SCORE.RESTR>
0.0119734

>  <SCORE.RESTR.CAVITY>
0.0119734

>  <SCORE.RESTR.norm>
0.000299336

>  <SCORE.SYSTEM>
0

>  <SCORE.SYSTEM.CONST>
0

>  <SCORE.SYSTEM.DIHEDRAL>
0

>  <SCORE.SYSTEM.SOLV>
0

>  <SCORE.SYSTEM.norm>
0

>  <SCORE.heavy>
40

>  <SCORE.norm>
-0.386276

>  <RMSD>
0.914

$$$$
2g5q_lig
 OpenBabel11021811433D
libRbt.so/2013.1/901 2013/11/27
 40 42  0  0  0  0  0  0  0  0999 V2000
    4.1122   -7.4771   18.9869 C   0  0  2  0  0  0  0  0  0  0  0  0
    2.9001   -8.0863   19.3731 O   0  0  0  0  0  0  0  0  0  0  0  0
    5.2589   -8.0264   19.8858 C   0  0  1  0  0  0  0  0  0  0  0  0
    5.0966   -7.5820   21.3723 C   0  0  2  0  0  0  0  0  0  0  0  0
    5.1026   -6.0316   21.4072 C   0  0  2  0  0  0  0  0  0  0  0  0
    4.9779   -5.5818   22.7660 O   0  0  0  0  0  0  0  0  0  0  0  0
    3.8992   -5.5108   20.5213 C   0  0  2  0  0  0  0  0  0  0  0  0
    4.0487   -5.9978   19.1201 O   0  0  0  0  0  0  0  0  0  0  0  0
    3.8176   -3.9888   20.4728 C   0  0  0  0  0  0  0  0  0  0  0  0
    2.4856   -3.5130   19.9818 N   0  0  0  0  0  0  0  0  0  0  0  0
   -1.0952   -8.9439   17.8304 C   0  0  2  0  0  0  0  0  0  0  0  0
   -2.3276   -8.8438   17.0580 N   0  0  0  0  0  0  0  0  0  0  0  0
   -0.8769   -7.6277   18.6883 C   0  0  0  0  0  0  0  0  0  0  0  0
    0.4537   -7.7349   19.5323 C   0  0  2  0  0  0  0  0  0  0  0  0
    0.6409   -6.4996   20.3405 N   0  0  0  0  0  0  0  0  0  0  0  0
    1.6764   -7.9778   18.5607 C   0  0  2  0  0  0  0  0  0  0  0  0
    1.4211   -9.2923   17.7218 C   0  0  2  0  0  0  0  0  0  0  0  0
    2.5264   -9.5067   16.8384 O   0  0  0  0  0  0  0  0  0  0  0  0
    0.0977   -9.1580   16.8759 C   0  0  1  0  0  0  0  0  0  0  0  0
   -0.1415  -10.3747   16.1138 O   0  0  0  0  0  0  0  0  0  0  0  0
   -0.6913  -10.4011   14.8195 C   0  0  2  0  0  0  0  0  0  0  0  0
   -1.0673  -11.8875   14.4995 C   0  0  2  0  0  0  0  0  0  0  0  0
   -1.9937  -12.3439   15.4322 O   0  0  0  0  0  0  0  0  0  0  0  0
    0.2123  -12.8067   14.4800 C   0  0  1  0  0  0  0  0  0  0  0  0
   -0.1371  -14.2322   14.1697 N   0  0  0  0  0  0  0  0  0  0  0  0
    1.2208  -12.2309   13.4083 C   0  0  2  0  0  0  0  0  0  0  0  0
    2.4031  -13.0306   13.3395 O   0  0  0  0  0  0  0  0  0  0  0  0
    1.5569  -10.7484   13.7851 C   0  0  2  0  0  0  0  0  0  0  0  0
    0.3087   -9.9134   13.8530 O   0  0  0  0  0  0  0  0  0  0  0  0
    2.4901  -10.1198   12.7913 C   0  0  0  0  0  0  0  0  0  0  0  0
    3.7866  -10.7383   12.8293 O   0  0  0  0  0  0  0  0  0  0  0  0
    5.2747   -9.4909   19.7708 O   0  0  0  0  0  0  0  0  0  0  0  0
    6.1415   -8.0831   22.1170 O   0  0  0  0  0  0  0  0  0  0  0  0
   -6.5465  -11.8702   17.1204 N   0  0  0  0  0  0  0  0  0  0  0  0
   -3.5778   -8.5427   17.5801 C   0  0  0  0  0  0  0  0  0  0  0  0
   -3.7894   -8.3314   18.7692 O   0  0  0  0  0  0  0  0  0  0  0  0
   -4.6802   -8.5200   16.4962 C   0  0  1  0  0  0  0  0  0  0  0  0
   -5.2306   -9.9431   16.2724 C   0  0  0  0  0  0  0  0  0  0  0  0
   -6.0306  -10.5398   17.4361 C   0  0  0  0  0  0  0  0  0  0  0  0
   -5.7319   -7.6188   16.9096 O   0  0  0  0  0  0  0  0  0  0  0  0
  1  2  1  1  0  0  0
  1  3  1  0  0  0  0
  1  8  1  0  0  0  0
  3  4  1  0  0  0  0
  3 32  1  1  0  0  0
  4  5  1  0  0  0  0
  4 33  1  1  0  0  0
  5  6  1  1  0  0  0
  5  7  1  0  0  0  0
  7  8  1  0  0  0  0
  7  9  1  6  0  0  0
  9 10  1  0  0  0  0
 11 12  1  6  0  0  0
 11 13  1  0  0  0  0
 11 19  1  0  0  0  0
 12 35  1  0  0  0  0
 13 14  1  0  0  0  0
 14 15  1  6  0  0  0
 14 16  1  0  0  0  0
 16  2  1  1  0  0  0
 16 17  1  0  0  0  0
 17 18  1  6  0  0  0
 17 19  1  0  0  0  0
 19 20  1  1  0  0  0
 21 20  1  1  0  0  0
 21 22  1  0  0  0  0
 21 29  1  0  0  0  0
 22 23  1  1  0  0  0
 22 24  1  0  0  0  0
 24 25  1  6  0  0  0
 24 26  1  0  0  0  0
 26 27  1  1  0  0  0
 26 28  1  0  0  0  0
 28 29  1  0  0  0  0
 28 30  1  6  0  0  0
 30 31  1  0  0  0  0
 34 39  1  0  0  0  0
 35 36  2  0  0  0  0
 37 35  1  1  0  0  0
 37 38  1  0  0  0  0
 37 40  1  0  0  0  0
 38 39  1  0  0  0  0
M  END
>  <CHROM.1>
-168.17457100,-163.49923495,-53.19061016,-138.19789354,96.86326330,-167.79307890
-66.72439568,85.76806155,68.13615000,178.23711168,0.73545119,-8.98728638
17.48180212,-0.77824441,0.00695738,-2.27988488

>  <Name>
2g5q_lig

>  <RI>
0

>  <Rbt.Current_Directory>
/home/itssahil/PROJECTS/Mol_Feturizer/New_Systems/rnas/2g5q

>  <Rbt.Executable>
rbdock ($Id: //depot/dev/client3/rdock/2013.1/src/exe/rbdock.cxx#4 $)

>  <Rbt.Library>
libRbt.so (2013.1, Build901 2013/11/27)

>  <Rbt.Parameter_File>
/export/apps/rDock/src/rDock_2013.1_src/data/scripts/dock_solv.prm

>  <Rbt.Receptor>
prm/pocket_docking_3.prm

>  <SCORE>
-21.6077

>  <SCORE.INTER>
-18.3455

>  <SCORE.INTER.CONST>
1

>  <SCORE.INTER.POLAR>
-0.894427

>  <SCORE.INTER.ROT>
10

>  <SCORE.INTER.SOLV>
21.221

>  <SCORE.INTER.VDW>
-26.5893

>  <SCORE.INTER.norm>
-0.458638

>  <SCORE.INTRA>
-3.26217

>  <SCORE.INTRA.DIHEDRAL>
-7.80192

>  <SCORE.INTRA.DIHEDRAL.0>
22.5778

>  <SCORE.INTRA.POLAR>
0

>  <SCORE.INTRA.POLAR.0>
0

>  <SCORE.INTRA.REPUL>
0

>  <SCORE.INTRA.REPUL.0>
0

>  <SCORE.INTRA.SOLV>
1.29996

>  <SCORE.INTRA.SOLV.lig_0>
-102.332

>  <SCORE.INTRA.VDW>
-0.0111886

>  <SCORE.INTRA.VDW.0>
-5.08747

>  <SCORE.INTRA.norm>
-0.0815543

>  <SCORE.RESTR>
0

>  <SCORE.RESTR.CAVITY>
0

>  <SCORE.RESTR.norm>
0

>  <SCORE.SYSTEM>
0

>  <SCORE.SYSTEM.CONST>
0

>  <SCORE.SYSTEM.DIHEDRAL>
0

>  <SCORE.SYSTEM.SOLV>
0

>  <SCORE.SYSTEM.norm>
0

>  <SCORE.heavy>
40

>  <SCORE.norm>
-0.540192

>  <RMSD>
0.964

$$$$
2g5q_lig
 OpenBabel11021811433D
libRbt.so/2013.1/901 2013/11/27
 40 42  0  0  0  0  0  0  0  0999 V2000
    3.5952   -7.0515   18.8545 C   0  0  2  0  0  0  0  0  0  0  0  0
    2.4037   -7.6003   19.3727 O   0  0  0  0  0  0  0  0  0  0  0  0
    4.8070   -7.7059   19.5813 C   0  0  1  0  0  0  0  0  0  0  0  0
    4.8621   -7.3127   21.0899 C   0  0  2  0  0  0  0  0  0  0  0  0
    4.9747   -5.7683   21.1735 C   0  0  2  0  0  0  0  0  0  0  0  0
    5.0515   -5.3667   22.5510 O   0  0  0  0  0  0  0  0  0  0  0  0
    3.7066   -5.1394   20.4660 C   0  0  2  0  0  0  0  0  0  0  0  0
    3.6466   -5.5777   19.0423 O   0  0  0  0  0  0  0  0  0  0  0  0
    3.7202   -3.6145   20.4773 C   0  0  0  0  0  0  0  0  0  0  0  0
    2.3636   -3.0387   20.2127 N   0  0  0  0  0  0  0  0  0  0  0  0
   -0.9396   -9.7024   17.5070 C   0  0  2  0  0  0  0  0  0  0  0  0
   -2.1219   -9.9721   16.6976 N   0  0  0  0  0  0  0  0  0  0  0  0
   -1.2521   -8.5721   18.5750 C   0  0  0  0  0  0  0  0  0  0  0  0
    0.0242   -8.2818   19.4589 C   0  0  2  0  0  0  0  0  0  0  0  0
   -0.2852   -7.2284   20.4632 N   0  0  0  0  0  0  0  0  0  0  0  0
    1.2254   -7.8523   18.5257 C   0  0  2  0  0  0  0  0  0  0  0  0
    1.5035   -8.9990   17.4748 C   0  0  2  0  0  0  0  0  0  0  0  0
    2.5872   -8.6052   16.6271 O   0  0  0  0  0  0  0  0  0  0  0  0
    0.2230   -9.2617   16.5937 C   0  0  1  0  0  0  0  0  0  0  0  0
    0.4780  -10.3267   15.6350 O   0  0  0  0  0  0  0  0  0  0  0  0
    0.4898  -10.1479   14.2400 C   0  0  2  0  0  0  0  0  0  0  0  0
    0.3072  -11.5586   13.5844 C   0  0  2  0  0  0  0  0  0  0  0  0
   -0.9031  -12.1090   13.9952 O   0  0  0  0  0  0  0  0  0  0  0  0
    1.5097  -12.5120   13.9413 C   0  0  1  0  0  0  0  0  0  0  0  0
    1.3462  -13.8648   13.3139 N   0  0  0  0  0  0  0  0  0  0  0  0
    2.8479  -11.8266   13.4545 C   0  0  2  0  0  0  0  0  0  0  0  0
    3.9782  -12.6513   13.7454 O   0  0  0  0  0  0  0  0  0  0  0  0
    2.9715  -10.4265   14.1451 C   0  0  2  0  0  0  0  0  0  0  0  0
    1.7803   -9.5644   13.8323 O   0  0  0  0  0  0  0  0  0  0  0  0
    4.2083   -9.6972   13.7067 C   0  0  0  0  0  0  0  0  0  0  0  0
    5.3951  -10.4352   14.0409 O   0  0  0  0  0  0  0  0  0  0  0  0
    4.7116   -9.1628   19.4181 O   0  0  0  0  0  0  0  0  0  0  0  0
    5.9569   -7.9065   21.6784 O   0  0  0  0  0  0  0  0  0  0  0  0
   -7.9485  -12.0851   16.2834 N   0  0  0  0  0  0  0  0  0  0  0  0
   -3.1646  -10.8140   17.0585 C   0  0  0  0  0  0  0  0  0  0  0  0
   -3.2043  -11.4404   18.1118 O   0  0  0  0  0  0  0  0  0  0  0  0
   -4.2652  -10.8883   15.9751 C   0  0  1  0  0  0  0  0  0  0  0  0
   -5.5665  -11.4513   16.5815 C   0  0  0  0  0  0  0  0  0  0  0  0
   -6.7428  -11.6060   15.6106 C   0  0  0  0  0  0  0  0  0  0  0  0
   -4.4798   -9.5680   15.4274 O   0  0  0  0  0  0  0  0  0  0  0  0
  1  2  1  1  0  0  0
  1  3  1  0  0  0  0
  1  8  1  0  0  0  0
  3  4  1  0  0  0  0
  3 32  1  1  0  0  0
  4  5  1  0  0  0  0
  4 33  1  6  0  0  0
  5  6  1  1  0  0  0
  5  7  1  0  0  0  0
  7  8  1  0  0  0  0
  7  9  1  6  0  0  0
  9 10  1  0  0  0  0
 11 12  1  6  0  0  0
 11 13  1  0  0  0  0
 11 19  1  0  0  0  0
 12 35  1  0  0  0  0
 13 14  1  0  0  0  0
 14 15  1  1  0  0  0
 14 16  1  0  0  0  0
 16  2  1  1  0  0  0
 16 17  1  0  0  0  0
 17 18  1  6  0  0  0
 17 19  1  0  0  0  0
 19 20  1  6  0  0  0
 21 20  1  1  0  0  0
 21 22  1  0  0  0  0
 21 29  1  0  0  0  0
 22 23  1  1  0  0  0
 22 24  1  0  0  0  0
 24 25  1  6  0  0  0
 24 26  1  0  0  0  0
 26 27  1  1  0  0  0
 26 28  1  0  0  0  0
 28 29  1  0  0  0  0
 28 30  1  6  0  0  0
 30 31  1  0  0  0  0
 34 39  1  0  0  0  0
 35 36  2  0  0  0  0
 37 35  1  1  0  0  0
 37 38  1  0  0  0  0
 37 40  1  0  0  0  0
 38 39  1  0  0  0  0
M  END
>  <CHROM.1>
-143.87524081,-161.95738406,-83.22541378,-172.54313500,125.29462815,-160.93337057
-60.51967509,-162.22576028,-178.91271173,-177.31272759,1.03927439,-9.16940896
17.21142615,0.77667488,0.13071774,0.89468734

>  <Name>
2g5q_lig

>  <RI>
0

>  <Rbt.Current_Directory>
/home/itssahil/PROJECTS/Mol_Feturizer/New_Systems/rnas/2g5q

>  <Rbt.Executable>
rbdock ($Id: //depot/dev/client3/rdock/2013.1/src/exe/rbdock.cxx#4 $)

>  <Rbt.Library>
libRbt.so (2013.1, Build901 2013/11/27)

>  <Rbt.Parameter_File>
/export/apps/rDock/src/rDock_2013.1_src/data/scripts/dock_solv.prm

>  <Rbt.Receptor>
prm/pocket_docking_3.prm

>  <SCORE>
-21.4415

>  <SCORE.INTER>
-18.5407

>  <SCORE.INTER.CONST>
1

>  <SCORE.INTER.POLAR>
-1.72064

>  <SCORE.INTER.ROT>
10

>  <SCORE.INTER.SOLV>
20.5222

>  <SCORE.INTER.VDW>
-23.7324

>  <SCORE.INTER.norm>
-0.463517

>  <SCORE.INTRA>
-2.90086

>  <SCORE.INTRA.DIHEDRAL>
-6.17712

>  <SCORE.INTRA.DIHEDRAL.0>
22.5778

>  <SCORE.INTRA.POLAR>
0

>  <SCORE.INTRA.POLAR.0>
0

>  <SCORE.INTRA.REPUL>
0

>  <SCORE.INTRA.REPUL.0>
0

>  <SCORE.INTRA.SOLV>
-1.20036

>  <SCORE.INTRA.SOLV.lig_0>
-102.332

>  <SCORE.INTRA.VDW>
0.787882

>  <SCORE.INTRA.VDW.0>
-5.08747

>  <SCORE.INTRA.norm>
-0.0725215

>  <SCORE.RESTR>
0

>  <SCORE.RESTR.CAVITY>
0

>  <SCORE.RESTR.norm>
0

>  <SCORE.SYSTEM>
0

>  <SCORE.SYSTEM.CONST>
0

>  <SCORE.SYSTEM.DIHEDRAL>
0

>  <SCORE.SYSTEM.SOLV>
0

>  <SCORE.SYSTEM.norm>
0

>  <SCORE.heavy>
40

>  <SCORE.norm>
-0.536039

>  <RMSD>
1.011

$$$$
2g5q_lig
 OpenBabel11021811433D
libRbt.so/2013.1/901 2013/11/27
 40 42  0  0  0  0  0  0  0  0999 V2000
    3.5323   -7.2849   18.6750 C   0  0  2  0  0  0  0  0  0  0  0  0
    2.4087   -7.9651   19.1890 O   0  0  0  0  0  0  0  0  0  0  0  0
    4.8099   -7.8122   19.3923 C   0  0  1  0  0  0  0  0  0  0  0  0
    4.8266   -7.4320   20.9051 C   0  0  2  0  0  0  0  0  0  0  0  0
    4.7716   -5.8855   21.0060 C   0  0  2  0  0  0  0  0  0  0  0  0
    4.8085   -5.4932   22.3878 O   0  0  0  0  0  0  0  0  0  0  0  0
    3.4409   -5.3898   20.3078 C   0  0  2  0  0  0  0  0  0  0  0  0
    3.4245   -5.8163   18.8793 O   0  0  0  0  0  0  0  0  0  0  0  0
    3.2893   -3.8726   20.3363 C   0  0  0  0  0  0  0  0  0  0  0  0
    3.2098   -3.3421   21.7341 N   0  0  0  0  0  0  0  0  0  0  0  0
   -1.3402   -9.6517   17.7131 C   0  0  2  0  0  0  0  0  0  0  0  0
   -2.5947   -9.8017   16.9855 N   0  0  0  0  0  0  0  0  0  0  0  0
   -1.3974   -8.3708   18.6469 C   0  0  0  0  0  0  0  0  0  0  0  0
   -0.0428   -8.2086   19.4426 C   0  0  2  0  0  0  0  0  0  0  0  0
   -0.1135   -7.0107   20.3225 N   0  0  0  0  0  0  0  0  0  0  0  0
    1.1591   -8.1027   18.4217 C   0  0  2  0  0  0  0  0  0  0  0  0
    1.1807   -9.3917   17.5081 C   0  0  2  0  0  0  0  0  0  0  0  0
    2.2658   -9.2907   16.5805 O   0  0  0  0  0  0  0  0  0  0  0  0
   -0.1732   -9.5259   16.7120 C   0  0  1  0  0  0  0  0  0  0  0  0
   -0.1554  -10.7205   15.8808 O   0  0  0  0  0  0  0  0  0  0  0  0
   -0.1997  -10.7057   14.4751 C   0  0  2  0  0  0  0  0  0  0  0  0
   -0.3251  -12.1909   13.9937 C   0  0  2  0  0  0  0  0  0  0  0  0
   -1.4887  -12.7510   14.5123 O   0  0  0  0  0  0  0  0  0  0  0  0
    0.9397  -13.0330   14.4104 C   0  0  1  0  0  0  0  0  0  0  0  0
    0.8311  -14.4565   13.9497 N   0  0  0  0  0  0  0  0  0  0  0  0
    2.2209  -12.3414   13.7959 C   0  0  2  0  0  0  0  0  0  0  0  0
    3.4043  -13.0672   14.1351 O   0  0  0  0  0  0  0  0  0  0  0  0
    2.2892  -10.8656   14.3155 C   0  0  2  0  0  0  0  0  0  0  0  0
    1.0422  -10.1084   13.9526 O   0  0  0  0  0  0  0  0  0  0  0  0
    3.4683  -10.1300   13.7479 C   0  0  0  0  0  0  0  0  0  0  0  0
    3.2144   -9.6972   12.4014 O   0  0  0  0  0  0  0  0  0  0  0  0
    4.8723   -9.2689   19.2129 O   0  0  0  0  0  0  0  0  0  0  0  0
    5.9809   -7.9102   21.4850 O   0  0  0  0  0  0  0  0  0  0  0  0
   -7.2870   -9.8750   14.8634 N   0  0  0  0  0  0  0  0  0  0  0  0
   -3.6981  -10.5164   17.4303 C   0  0  0  0  0  0  0  0  0  0  0  0
   -3.7385  -11.1168   18.4986 O   0  0  0  0  0  0  0  0  0  0  0  0
   -4.8677  -10.4858   16.4196 C   0  0  1  0  0  0  0  0  0  0  0  0
   -5.4712   -9.0683   16.3524 C   0  0  0  0  0  0  0  0  0  0  0  0
   -6.9566   -8.9924   15.9804 C   0  0  0  0  0  0  0  0  0  0  0  0
   -4.3836  -10.9028   15.1230 O   0  0  0  0  0  0  0  0  0  0  0  0
  1  2  1  1  0  0  0
  1  3  1  0  0  0  0
  1  8  1  0  0  0  0
  3  4  1  0  0  0  0
  3 32  1  1  0  0  0
  4  5  1  0  0  0  0
  4 33  1  6  0  0  0
  5  6  1  1  0  0  0
  5  7  1  0  0  0  0
  7  8  1  0  0  0  0
  7  9  1  6  0  0  0
  9 10  1  0  0  0  0
 11 12  1  6  0  0  0
 11 13  1  0  0  0  0
 11 19  1  0  0  0  0
 12 35  1  0  0  0  0
 13 14  1  0  0  0  0
 14 15  1  6  0  0  0
 14 16  1  0  0  0  0
 16  2  1  1  0  0  0
 16 17  1  0  0  0  0
 17 18  1  6  0  0  0
 17 19  1  0  0  0  0
 19 20  1  6  0  0  0
 21 20  1  1  0  0  0
 21 22  1  0  0  0  0
 21 29  1  0  0  0  0
 22 23  1  1  0  0  0
 22 24  1  0  0  0  0
 24 25  1  6  0  0  0
 24 26  1  0  0  0  0
 26 27  1  1  0  0  0
 26 28  1  0  0  0  0
 28 29  1  0  0  0  0
 28 30  1  6  0  0  0
 30 31  1  0  0  0  0
 34 39  1  0  0  0  0
 35 36  2  0  0  0  0
 37 35  1  1  0  0  0
 37 38  1  0  0  0  0
 37 40  1  0  0  0  0
 38 39  1  0  0  0  0
M  END
>  <CHROM.1>
-156.08874196,-61.98580829,-89.91364111,-151.42516397,124.92643110,-173.67685400
78.72119595,-69.30043899,-151.50357375,-44.40447280,0.71917299,-9.20541635
17.24168606,-0.80579043,-0.00564583,-2.29900937

>  <Name>
2g5q_lig

>  <RI>
0

>  <Rbt.Current_Directory>
/home/itssahil/PROJECTS/Mol_Feturizer/New_Systems/rnas/2g5q

>  <Rbt.Executable>
rbdock ($Id: //depot/dev/client3/rdock/2013.1/src/exe/rbdock.cxx#4 $)

>  <Rbt.Library>
libRbt.so (2013.1, Build901 2013/11/27)

>  <Rbt.Parameter_File>
/export/apps/rDock/src/rDock_2013.1_src/data/scripts/dock_solv.prm

>  <Rbt.Receptor>
prm/pocket_docking_2.prm

>  <SCORE>
-14.2668

>  <SCORE.INTER>
-13.7839

>  <SCORE.INTER.CONST>
1

>  <SCORE.INTER.POLAR>
-0.676516

>  <SCORE.INTER.ROT>
10

>  <SCORE.INTER.SOLV>
18.6005

>  <SCORE.INTER.VDW>
-23.401

>  <SCORE.INTER.norm>
-0.344597

>  <SCORE.INTRA>
-0.536657

>  <SCORE.INTRA.DIHEDRAL>
-3.57346

>  <SCORE.INTRA.DIHEDRAL.0>
22.5778

>  <SCORE.INTRA.POLAR>
0

>  <SCORE.INTRA.POLAR.0>
0

>  <SCORE.INTRA.REPUL>
0.0205837

>  <SCORE.INTRA.REPUL.0>
0

>  <SCORE.INTRA.SOLV>
2.5512

>  <SCORE.INTRA.SOLV.lig_0>
-102.332

>  <SCORE.INTRA.VDW>
-0.128445

>  <SCORE.INTRA.VDW.0>
-5.08747

>  <SCORE.INTRA.norm>
-0.0134164

>  <SCORE.RESTR>
0.053755

>  <SCORE.RESTR.CAVITY>
0.053755

>  <SCORE.RESTR.norm>
0.00134387

>  <SCORE.SYSTEM>
0

>  <SCORE.SYSTEM.CONST>
0

>  <SCORE.SYSTEM.DIHEDRAL>
0

>  <SCORE.SYSTEM.SOLV>
0

>  <SCORE.SYSTEM.norm>
0

>  <SCORE.heavy>
40

>  <SCORE.norm>
-0.356669

>  <RMSD>
1.012

$$$$
2g5q_lig
 OpenBabel11021811433D
libRbt.so/2013.1/901 2013/11/27
 40 42  0  0  0  0  0  0  0  0999 V2000
    4.0388   -7.5147   19.0298 C   0  0  2  0  0  0  0  0  0  0  0  0
    2.8385   -8.1155   19.4632 O   0  0  0  0  0  0  0  0  0  0  0  0
    5.1948   -7.9678   19.9695 C   0  0  1  0  0  0  0  0  0  0  0  0
    5.0212   -7.4101   21.4161 C   0  0  2  0  0  0  0  0  0  0  0  0
    4.9961   -5.8621   21.3277 C   0  0  2  0  0  0  0  0  0  0  0  0
    4.8602   -5.3084   22.6465 O   0  0  0  0  0  0  0  0  0  0  0  0
    3.7839   -5.4375   20.4033 C   0  0  2  0  0  0  0  0  0  0  0  0
    3.9454   -6.0311   19.0451 O   0  0  0  0  0  0  0  0  0  0  0  0
    3.6720   -3.9261   20.2340 C   0  0  0  0  0  0  0  0  0  0  0  0
    3.2495   -3.2487   21.5006 N   0  0  0  0  0  0  0  0  0  0  0  0
   -0.8687   -9.6315   17.7207 C   0  0  2  0  0  0  0  0  0  0  0  0
   -2.0644   -9.7333   16.8926 N   0  0  0  0  0  0  0  0  0  0  0  0
   -0.9262   -8.3182   18.6083 C   0  0  0  0  0  0  0  0  0  0  0  0
    0.3641   -8.2076   19.5123 C   0  0  2  0  0  0  0  0  0  0  0  0
    0.2925   -6.9782   20.3475 N   0  0  0  0  0  0  0  0  0  0  0  0
    1.6517   -8.2066   18.5958 C   0  0  2  0  0  0  0  0  0  0  0  0
    1.6717   -9.5253   17.7254 C   0  0  2  0  0  0  0  0  0  0  0  0
    2.8349   -9.5191   16.8918 O   0  0  0  0  0  0  0  0  0  0  0  0
    0.3838   -9.6079   16.8202 C   0  0  1  0  0  0  0  0  0  0  0  0
    0.3988  -10.8293   16.0288 O   0  0  0  0  0  0  0  0  0  0  0  0
   -0.2398  -10.9720   14.7838 C   0  0  2  0  0  0  0  0  0  0  0  0
   -0.5928  -12.4879   14.6084 C   0  0  2  0  0  0  0  0  0  0  0  0
   -1.4371  -12.8908   15.6385 O   0  0  0  0  0  0  0  0  0  0  0  0
    0.7091  -13.3744   14.5676 C   0  0  1  0  0  0  0  0  0  0  0  0
    0.3815  -14.8281   14.3952 N   0  0  0  0  0  0  0  0  0  0  0  0
    1.6220  -12.8614   13.3840 C   0  0  2  0  0  0  0  0  0  0  0  0
    2.8199  -13.6352   13.2919 O   0  0  0  0  0  0  0  0  0  0  0  0
    1.9393  -11.3460   13.6190 C   0  0  2  0  0  0  0  0  0  0  0  0
    0.6746  -10.5388   13.7123 O   0  0  0  0  0  0  0  0  0  0  0  0
    2.7809  -10.7760   12.5143 C   0  0  0  0  0  0  0  0  0  0  0  0
    2.2802  -11.1631   11.2242 O   0  0  0  0  0  0  0  0  0  0  0  0
    5.2401   -9.4361   19.9712 O   0  0  0  0  0  0  0  0  0  0  0  0
    6.0747   -7.8294   22.1982 O   0  0  0  0  0  0  0  0  0  0  0  0
   -5.2438  -12.1447   18.4435 N   0  0  0  0  0  0  0  0  0  0  0  0
   -3.3495   -9.9586   17.3659 C   0  0  0  0  0  0  0  0  0  0  0  0
   -3.6253  -10.1068   18.5513 O   0  0  0  0  0  0  0  0  0  0  0  0
   -4.3950  -10.0193   16.2285 C   0  0  1  0  0  0  0  0  0  0  0  0
   -5.7843  -10.3590   16.8053 C   0  0  0  0  0  0  0  0  0  0  0  0
   -5.9916  -11.8170   17.2314 C   0  0  0  0  0  0  0  0  0  0  0  0
   -4.4188   -8.7489   15.5393 O   0  0  0  0  0  0  0  0  0  0  0  0
  1  2  1  1  0  0  0
  1  3  1  0  0  0  0
  1  8  1  0  0  0  0
  3  4  1  0  0  0  0
  3 32  1  1  0  0  0
  4  5  1  0  0  0  0
  4 33  1  1  0  0  0
  5  6  1  1  0  0  0
  5  7  1  0  0  0  0
  7  8  1  0  0  0  0
  7  9  1  6  0  0  0
  9 10  1  0  0  0  0
 11 12  1  6  0  0  0
 11 13  1  0  0  0  0
 11 19  1  0  0  0  0
 12 35  1  0  0  0  0
 13 14  1  0  0  0  0
 14 15  1  6  0  0  0
 14 16  1  0  0  0  0
 16  2  1  1  0  0  0
 16 17  1  0  0  0  0
 17 18  1  6  0  0  0
 17 19  1  0  0  0  0
 19 20  1  1  0  0  0
 21 20  1  1  0  0  0
 21 22  1  0  0  0  0
 21 29  1  0  0  0  0
 22 23  1  1  0  0  0
 22 24  1  0  0  0  0
 24 25  1  6  0  0  0
 24 26  1  0  0  0  0
 26 27  1  1  0  0  0
 26 28  1  0  0  0  0
 28 29  1  0  0  0  0
 28 30  1  6  0  0  0
 30 31  1  0  0  0  0
 34 39  1  0  0  0  0
 35 36  2  0  0  0  0
 37 35  1  1  0  0  0
 37 38  1  0  0  0  0
 37 40  1  0  0  0  0
 38 39  1  0  0  0  0
M  END
>  <CHROM.1>
-162.37881091,-69.32000415,-67.79320898,-151.15775683,87.86190930,-152.86506903
46.05804997,176.44937225,-74.58262133,71.53777169,0.90345764,-9.42133221
17.44629249,-0.91868343,-0.10400371,-2.25435264

>  <Name>
2g5q_lig

>  <RI>
0

>  <Rbt.Current_Directory>
/home/itssahil/PROJECTS/Mol_Feturizer/New_Systems/rnas/2g5q

>  <Rbt.Executable>
rbdock ($Id: //depot/dev/client3/rdock/2013.1/src/exe/rbdock.cxx#4 $)

>  <Rbt.Library>
libRbt.so (2013.1, Build901 2013/11/27)

>  <Rbt.Parameter_File>
/export/apps/rDock/src/rDock_2013.1_src/data/scripts/dock_solv.prm

>  <Rbt.Receptor>
prm/pocket_docking_3.prm

>  <SCORE>
-19.3289

>  <SCORE.INTER>
-17.626

>  <SCORE.INTER.CONST>
1

>  <SCORE.INTER.POLAR>
-1.27265

>  <SCORE.INTER.ROT>
10

>  <SCORE.INTER.SOLV>
17.4434

>  <SCORE.INTER.VDW>
-23.5896

>  <SCORE.INTER.norm>
-0.44065

>  <SCORE.INTRA>
-1.70293

>  <SCORE.INTRA.DIHEDRAL>
-8.47662

>  <SCORE.INTRA.DIHEDRAL.0>
22.5778

>  <SCORE.INTRA.POLAR>
0

>  <SCORE.INTRA.POLAR.0>
0

>  <SCORE.INTRA.REPUL>
0

>  <SCORE.INTRA.REPUL.0>
0

>  <SCORE.INTRA.SOLV>
3.56863

>  <SCORE.INTRA.SOLV.lig_0>
-102.332

>  <SCORE.INTRA.VDW>
0.751063

>  <SCORE.INTRA.VDW.0>
-5.08747

>  <SCORE.INTRA.norm>
-0.0425733

>  <SCORE.RESTR>
0

>  <SCORE.RESTR.CAVITY>
0

>  <SCORE.RESTR.norm>
0

>  <SCORE.SYSTEM>
0

>  <SCORE.SYSTEM.CONST>
0

>  <SCORE.SYSTEM.DIHEDRAL>
0

>  <SCORE.SYSTEM.SOLV>
0

>  <SCORE.SYSTEM.norm>
0

>  <SCORE.heavy>
40

>  <SCORE.norm>
-0.483224

>  <RMSD>
1.039

$$$$
2g5q_lig
 OpenBabel11021811433D
libRbt.so/2013.1/901 2013/11/27
 40 42  0  0  0  0  0  0  0  0999 V2000
    2.6558   -6.6949   18.6916 C   0  0  2  0  0  0  0  0  0  0  0  0
    1.6589   -7.5926   19.1271 O   0  0  0  0  0  0  0  0  0  0  0  0
    4.0521   -7.2792   19.0576 C   0  0  1  0  0  0  0  0  0  0  0  0
    4.2736   -7.3338   20.6008 C   0  0  2  0  0  0  0  0  0  0  0  0
    4.1524   -5.8882   21.1488 C   0  0  2  0  0  0  0  0  0  0  0  0
    4.3737   -5.8931   22.5684 O   0  0  0  0  0  0  0  0  0  0  0  0
    2.7082   -5.3444   20.7986 C   0  0  2  0  0  0  0  0  0  0  0  0
    2.5020   -5.3573   19.3221 O   0  0  0  0  0  0  0  0  0  0  0  0
    2.4824   -3.9156   21.2817 C   0  0  0  0  0  0  0  0  0  0  0  0
    3.3730   -2.9380   20.5797 N   0  0  0  0  0  0  0  0  0  0  0  0
   -1.6488   -9.9131   17.4683 C   0  0  2  0  0  0  0  0  0  0  0  0
   -2.8034  -10.2889   16.6611 N   0  0  0  0  0  0  0  0  0  0  0  0
   -1.9809   -8.6274   18.3357 C   0  0  0  0  0  0  0  0  0  0  0  0
   -0.7350   -8.2210   19.2172 C   0  0  2  0  0  0  0  0  0  0  0  0
   -1.0630   -7.0211   20.0338 N   0  0  0  0  0  0  0  0  0  0  0  0
    0.5102   -7.9567   18.2803 C   0  0  2  0  0  0  0  0  0  0  0  0
    0.8070   -9.2555   17.4308 C   0  0  2  0  0  0  0  0  0  0  0  0
    1.9307   -9.0118   16.5788 O   0  0  0  0  0  0  0  0  0  0  0  0
   -0.4427   -9.6341   16.5477 C   0  0  1  0  0  0  0  0  0  0  0  0
   -0.1710  -10.8377   15.7757 O   0  0  0  0  0  0  0  0  0  0  0  0
   -0.6199  -11.0505   14.4599 C   0  0  2  0  0  0  0  0  0  0  0  0
   -0.7806  -12.5960   14.2628 C   0  0  2  0  0  0  0  0  0  0  0  0
   -1.7054  -13.0877   15.1790 O   0  0  0  0  0  0  0  0  0  0  0  0
    0.6034  -13.3351   14.4074 C   0  0  1  0  0  0  0  0  0  0  0  0
    0.4607  -14.8160   14.2158 N   0  0  0  0  0  0  0  0  0  0  0  0
    1.6042  -12.7267   13.3465 C   0  0  2  0  0  0  0  0  0  0  0  0
    2.8803  -13.3651   13.4248 O   0  0  0  0  0  0  0  0  0  0  0  0
    1.7220  -11.1854   13.5979 C   0  0  2  0  0  0  0  0  0  0  0  0
    0.3762  -10.5210   13.5114 O   0  0  0  0  0  0  0  0  0  0  0  0
    2.6360  -10.5281   12.6049 C   0  0  0  0  0  0  0  0  0  0  0  0
    2.9056   -9.1639   12.9673 O   0  0  0  0  0  0  0  0  0  0  0  0
    4.1642   -8.6165   18.4600 O   0  0  0  0  0  0  0  0  0  0  0  0
    5.5251   -7.8445   20.8662 O   0  0  0  0  0  0  0  0  0  0  0  0
   -7.9156  -10.6035   14.8919 N   0  0  0  0  0  0  0  0  0  0  0  0
   -3.9729  -10.8537   17.1504 C   0  0  0  0  0  0  0  0  0  0  0  0
   -4.1652  -11.1105   18.3338 O   0  0  0  0  0  0  0  0  0  0  0  0
   -5.0024  -11.1401   16.0329 C   0  0  1  0  0  0  0  0  0  0  0  0
   -6.3810  -11.4492   16.6510 C   0  0  0  0  0  0  0  0  0  0  0  0
   -7.4999  -11.7780   15.6559 C   0  0  0  0  0  0  0  0  0  0  0  0
   -5.0761   -9.9957   15.1529 O   0  0  0  0  0  0  0  0  0  0  0  0
  1  2  1  1  0  0  0
  1  3  1  0  0  0  0
  1  8  1  0  0  0  0
  3  4  1  0  0  0  0
  3 32  1  1  0  0  0
  4  5  1  0  0  0  0
  4 33  1  6  0  0  0
  5  6  1  1  0  0  0
  5  7  1  0  0  0  0
  7  8  1  0  0  0  0
  7  9  1  6  0  0  0
  9 10  1  0  0  0  0
 11 12  1  6  0  0  0
 11 13  1  0  0  0  0
 11 19  1  0  0  0  0
 12 35  1  0  0  0  0
 13 14  1  0  0  0  0
 14 15  1  6  0  0  0
 14 16  1  0  0  0  0
 16  2  1  1  0  0  0
 16 17  1  0  0  0  0
 17 18  1  6  0  0  0
 17 19  1  0  0  0  0
 19 20  1  1  0  0  0
 21 20  1  1  0  0  0
 21 22  1  0  0  0  0
 21 29  1  0  0  0  0
 22 23  1  1  0  0  0
 22 24  1  0  0  0  0
 24 25  1  6  0  0  0
 24 26  1  0  0  0  0
 26 27  1  1  0  0  0
 26 28  1  0  0  0  0
 28 29  1  0  0  0  0
 28 30  1  6  0  0  0
 30 31  1  0  0  0  0
 34 39  1  0  0  0  0
 35 36  2  0  0  0  0
 37 35  1  1  0  0  0
 37 38  1  0  0  0  0
 37 40  1  0  0  0  0
 38 39  1  0  0  0  0
M  END
>  <CHROM.1>
-135.33669988,65.09697782,-71.83432104,-147.60320599,97.72598416,-151.73481506
-170.81307117,-166.80471971,-178.98030985,-70.44614157,0.20030135,-9.36676302
17.10985168,0.85865804,0.10560028,0.83913505

>  <Name>
2g5q_lig

>  <RI>
0

>  <Rbt.Current_Directory>
/home/itssahil/PROJECTS/Mol_Feturizer/New_Systems/rnas/2g5q

>  <Rbt.Executable>
rbdock ($Id: //depot/dev/client3/rdock/2013.1/src/exe/rbdock.cxx#4 $)

>  <Rbt.Library>
libRbt.so (2013.1, Build901 2013/11/27)

>  <Rbt.Parameter_File>
/export/apps/rDock/src/rDock_2013.1_src/data/scripts/dock_solv.prm

>  <Rbt.Receptor>
prm/pocket_docking_2.prm

>  <SCORE>
-16.1888

>  <SCORE.INTER>
-16.5316

>  <SCORE.INTER.CONST>
1

>  <SCORE.INTER.POLAR>
-1.30538

>  <SCORE.INTER.ROT>
10

>  <SCORE.INTER.SOLV>
21.1487

>  <SCORE.INTER.VDW>
-23.986

>  <SCORE.INTER.norm>
-0.413291

>  <SCORE.INTRA>
0.173368

>  <SCORE.INTRA.DIHEDRAL>
-2.20354

>  <SCORE.INTRA.DIHEDRAL.0>
22.5778

>  <SCORE.INTRA.POLAR>
0

>  <SCORE.INTRA.POLAR.0>
0

>  <SCORE.INTRA.REPUL>
0

>  <SCORE.INTRA.REPUL.0>
0

>  <SCORE.INTRA.SOLV>
2.3715

>  <SCORE.INTRA.SOLV.lig_0>
-102.332

>  <SCORE.INTRA.VDW>
0.0893886

>  <SCORE.INTRA.VDW.0>
-5.08747

>  <SCORE.INTRA.norm>
0.0043342

>  <SCORE.RESTR>
0.169424

>  <SCORE.RESTR.CAVITY>
0.169424

>  <SCORE.RESTR.norm>
0.0042356

>  <SCORE.SYSTEM>
0

>  <SCORE.SYSTEM.CONST>
0

>  <SCORE.SYSTEM.DIHEDRAL>
0

>  <SCORE.SYSTEM.SOLV>
0

>  <SCORE.SYSTEM.norm>
0

>  <SCORE.heavy>
40

>  <SCORE.norm>
-0.404721

>  <RMSD>
1.085

$$$$
2g5q_lig
 OpenBabel11021811433D
libRbt.so/2013.1/901 2013/11/27
 40 42  0  0  0  0  0  0  0  0999 V2000
    3.0367   -7.2161   18.5440 C   0  0  2  0  0  0  0  0  0  0  0  0
    1.9948   -7.8983   19.2062 O   0  0  0  0  0  0  0  0  0  0  0  0
    4.4010   -7.7350   19.0866 C   0  0  1  0  0  0  0  0  0  0  0  0
    4.6177   -7.3475   20.5821 C   0  0  2  0  0  0  0  0  0  0  0  0
    4.5696   -5.8008   20.6829 C   0  0  2  0  0  0  0  0  0  0  0  0
    4.7888   -5.4019   22.0457 O   0  0  0  0  0  0  0  0  0  0  0  0
    3.1553   -5.3137   20.1665 C   0  0  2  0  0  0  0  0  0  0  0  0
    2.9504   -5.7470   18.7548 O   0  0  0  0  0  0  0  0  0  0  0  0
    3.0021   -3.7970   20.2086 C   0  0  0  0  0  0  0  0  0  0  0  0
    2.9368   -3.2777   21.6114 N   0  0  0  0  0  0  0  0  0  0  0  0
   -1.4658  -10.2246   17.9063 C   0  0  2  0  0  0  0  0  0  0  0  0
   -2.7271  -10.5846   17.2696 N   0  0  0  0  0  0  0  0  0  0  0  0
   -1.6894   -9.0375   18.9343 C   0  0  0  0  0  0  0  0  0  0  0  0
   -0.3266   -8.6491   19.6317 C   0  0  2  0  0  0  0  0  0  0  0  0
   -0.5518   -7.5429   20.6010 N   0  0  0  0  0  0  0  0  0  0  0  0
    0.7322   -8.2429   18.5308 C   0  0  2  0  0  0  0  0  0  0  0  0
    0.9245   -9.4463   17.5249 C   0  0  2  0  0  0  0  0  0  0  0  0
    1.8788   -9.0740   16.5255 O   0  0  0  0  0  0  0  0  0  0  0  0
   -0.4432   -9.8072   16.8292 C   0  0  1  0  0  0  0  0  0  0  0  0
   -0.2658  -10.9237   15.9126 O   0  0  0  0  0  0  0  0  0  0  0  0
   -0.3189  -10.8120   14.5116 C   0  0  2  0  0  0  0  0  0  0  0  0
   -0.4155  -12.2625   13.9284 C   0  0  2  0  0  0  0  0  0  0  0  0
   -1.5636  -12.8825   14.4120 O   0  0  0  0  0  0  0  0  0  0  0  0
    0.8696  -13.1038   14.2794 C   0  0  1  0  0  0  0  0  0  0  0  0
    0.7886  -14.4937   13.7210 N   0  0  0  0  0  0  0  0  0  0  0  0
    2.1319  -12.3433   13.7088 C   0  0  2  0  0  0  0  0  0  0  0  0
    3.3326  -13.0650   13.9910 O   0  0  0  0  0  0  0  0  0  0  0  0
    2.1717  -10.9061   14.3297 C   0  0  2  0  0  0  0  0  0  0  0  0
    0.9067  -10.1528   14.0264 O   0  0  0  0  0  0  0  0  0  0  0  0
    3.3314  -10.1073   13.8094 C   0  0  0  0  0  0  0  0  0  0  0  0
    3.2201   -9.8874   12.3938 O   0  0  0  0  0  0  0  0  0  0  0  0
    4.4455   -9.1923   18.9065 O   0  0  0  0  0  0  0  0  0  0  0  0
    5.8412   -7.8185   21.0047 O   0  0  0  0  0  0  0  0  0  0  0  0
   -7.9163  -10.8924   16.3480 N   0  0  0  0  0  0  0  0  0  0  0  0
   -3.6400   -9.6858   16.7360 C   0  0  0  0  0  0  0  0  0  0  0  0
   -3.4884   -8.4692   16.7475 O   0  0  0  0  0  0  0  0  0  0  0  0
   -4.8808  -10.3892   16.1391 C   0  0  1  0  0  0  0  0  0  0  0  0
   -6.0096   -9.3641   15.9085 C   0  0  0  0  0  0  0  0  0  0  0  0
   -7.3390   -9.9375   15.4042 C   0  0  0  0  0  0  0  0  0  0  0  0
   -4.5087  -11.0348   14.9006 O   0  0  0  0  0  0  0  0  0  0  0  0
  1  2  1  1  0  0  0
  1  3  1  0  0  0  0
  1  8  1  0  0  0  0
  3  4  1  0  0  0  0
  3 32  1  1  0  0  0
  4  5  1  0  0  0  0
  4 33  1  6  0  0  0
  5  6  1  1  0  0  0
  5  7  1  0  0  0  0
  7  8  1  0  0  0  0
  7  9  1  6  0  0  0
  9 10  1  0  0  0  0
 11 12  1  6  0  0  0
 11 13  1  0  0  0  0
 11 19  1  0  0  0  0
 12 35  1  0  0  0  0
 13 14  1  0  0  0  0
 14 15  1  1  0  0  0
 14 16  1  0  0  0  0
 16  2  1  1  0  0  0
 16 17  1  0  0  0  0
 17 18  1  6  0  0  0
 17 19  1  0  0  0  0
 19 20  1  6  0  0  0
 21 20  1  1  0  0  0
 21 22  1  0  0  0  0
 21 29  1  0  0  0  0
 22 23  1  1  0  0  0
 22 24  1  0  0  0  0
 24 25  1  6  0  0  0
 24 26  1  0  0  0  0
 26 27  1  1  0  0  0
 26 28  1  0  0  0  0
 28 29  1  0  0  0  0
 28 30  1  6  0  0  0
 30 31  1  0  0  0  0
 34 39  1  0  0  0  0
 35 36  2  0  0  0  0
 37 35  1  6  0  0  0
 37 38  1  0  0  0  0
 37 40  1  0  0  0  0
 38 39  1  0  0  0  0
M  END
>  <CHROM.1>
-145.58382716,-69.07837467,46.47266093,-165.58922230,131.05896994,-167.00179724
63.45876392,164.99122517,-176.11490386,60.99350182,0.50362656,-9.24683692
17.12762040,-0.80456085,-0.02442066,-2.31378351

>  <Name>
2g5q_lig

>  <RI>
0

>  <Rbt.Current_Directory>
/home/itssahil/PROJECTS/Mol_Feturizer/New_Systems/rnas/2g5q

>  <Rbt.Executable>
rbdock ($Id: //depot/dev/client3/rdock/2013.1/src/exe/rbdock.cxx#4 $)

>  <Rbt.Library>
libRbt.so (2013.1, Build901 2013/11/27)

>  <Rbt.Parameter_File>
/export/apps/rDock/src/rDock_2013.1_src/data/scripts/dock_solv.prm

>  <Rbt.Receptor>
prm/pocket_docking_2.prm

>  <SCORE>
-12.5028

>  <SCORE.INTER>
-9.95275

>  <SCORE.INTER.CONST>
1

>  <SCORE.INTER.POLAR>
-0.213459

>  <SCORE.INTER.ROT>
10

>  <SCORE.INTER.SOLV>
17.9693

>  <SCORE.INTER.VDW>
-22.1801

>  <SCORE.INTER.norm>
-0.248819

>  <SCORE.INTRA>
-2.57528

>  <SCORE.INTRA.DIHEDRAL>
-8.18395

>  <SCORE.INTRA.DIHEDRAL.0>
22.5778

>  <SCORE.INTRA.POLAR>
0

>  <SCORE.INTRA.POLAR.0>
0

>  <SCORE.INTRA.REPUL>
0.002093

>  <SCORE.INTRA.REPUL.0>
0

>  <SCORE.INTRA.SOLV>
1.73581

>  <SCORE.INTRA.SOLV.lig_0>
-102.332

>  <SCORE.INTRA.VDW>
0.638326

>  <SCORE.INTRA.VDW.0>
-5.08747

>  <SCORE.INTRA.norm>
-0.0643821

>  <SCORE.RESTR>
0.0252701

>  <SCORE.RESTR.CAVITY>
0.0252701

>  <SCORE.RESTR.norm>
0.000631752

>  <SCORE.SYSTEM>
0

>  <SCORE.SYSTEM.CONST>
0

>  <SCORE.SYSTEM.DIHEDRAL>
0

>  <SCORE.SYSTEM.SOLV>
0

>  <SCORE.SYSTEM.norm>
0

>  <SCORE.heavy>
40

>  <SCORE.norm>
-0.312569

>  <RMSD>
1.105

$$$$
2g5q_lig
 OpenBabel11021811433D
libRbt.so/2013.1/901 2013/11/27
 40 42  0  0  0  0  0  0  0  0999 V2000
    3.0194   -7.0773   18.5665 C   0  0  2  0  0  0  0  0  0  0  0  0
    1.9437   -7.6738   19.2569 O   0  0  0  0  0  0  0  0  0  0  0  0
    4.3452   -7.7570   19.0195 C   0  0  1  0  0  0  0  0  0  0  0  0
    4.6724   -7.4552   20.5146 C   0  0  2  0  0  0  0  0  0  0  0  0
    4.7933   -5.9173   20.6725 C   0  0  2  0  0  0  0  0  0  0  0  0
    5.1179   -5.5990   22.0355 O   0  0  0  0  0  0  0  0  0  0  0  0
    3.4157   -5.2651   20.2471 C   0  0  2  0  0  0  0  0  0  0  0  0
    3.0993   -5.6170   18.8333 O   0  0  0  0  0  0  0  0  0  0  0  0
    3.4262   -3.7436   20.3508 C   0  0  0  0  0  0  0  0  0  0  0  0
    3.5202   -3.2779   21.7706 N   0  0  0  0  0  0  0  0  0  0  0  0
   -1.4841  -10.0723   18.0019 C   0  0  2  0  0  0  0  0  0  0  0  0
   -2.7341  -10.4654   17.3627 N   0  0  0  0  0  0  0  0  0  0  0  0
   -1.7293   -8.8476   18.9796 C   0  0  0  0  0  0  0  0  0  0  0  0
   -0.3787   -8.4230   19.6798 C   0  0  2  0  0  0  0  0  0  0  0  0
   -0.6243   -7.2814   20.6019 N   0  0  0  0  0  0  0  0  0  0  0  0
    0.6927   -8.0530   18.5783 C   0  0  2  0  0  0  0  0  0  0  0  0
    0.9064   -9.2934   17.6230 C   0  0  2  0  0  0  0  0  0  0  0  0
    1.8721   -8.9539   16.6229 O   0  0  0  0  0  0  0  0  0  0  0  0
   -0.4492   -9.6904   16.9234 C   0  0  1  0  0  0  0  0  0  0  0  0
   -0.2521  -10.8406   16.0536 O   0  0  0  0  0  0  0  0  0  0  0  0
   -0.3343  -10.7935   14.6504 C   0  0  2  0  0  0  0  0  0  0  0  0
   -0.4486  -12.2688   14.1370 C   0  0  2  0  0  0  0  0  0  0  0  0
   -1.5887  -12.8603   14.6726 O   0  0  0  0  0  0  0  0  0  0  0  0
    0.8404  -13.0991   14.4998 C   0  0  1  0  0  0  0  0  0  0  0  0
    0.7424  -14.5129   14.0080 N   0  0  0  0  0  0  0  0  0  0  0  0
    2.0933  -12.3718   13.8684 C   0  0  2  0  0  0  0  0  0  0  0  0
    3.2969  -13.0854   14.1586 O   0  0  0  0  0  0  0  0  0  0  0  0
    2.1516  -10.9077   14.4213 C   0  0  2  0  0  0  0  0  0  0  0  0
    0.8833  -10.1632   14.1098 O   0  0  0  0  0  0  0  0  0  0  0  0
    3.3031  -10.1393   13.8405 C   0  0  0  0  0  0  0  0  0  0  0  0
    3.2412  -10.1121   12.4052 O   0  0  0  0  0  0  0  0  0  0  0  0
    4.2265   -9.2025   18.7858 O   0  0  0  0  0  0  0  0  0  0  0  0
    5.8578   -8.0677   20.8567 O   0  0  0  0  0  0  0  0  0  0  0  0
   -8.0512  -10.7247   16.3113 N   0  0  0  0  0  0  0  0  0  0  0  0
   -3.6126   -9.6021   16.7230 C   0  0  0  0  0  0  0  0  0  0  0  0
   -3.4359   -8.3924   16.6295 O   0  0  0  0  0  0  0  0  0  0  0  0
   -4.8505  -10.3339   16.1550 C   0  0  1  0  0  0  0  0  0  0  0  0
   -6.0169   -9.3406   15.9787 C   0  0  0  0  0  0  0  0  0  0  0  0
   -7.2950   -9.9157   15.3575 C   0  0  0  0  0  0  0  0  0  0  0  0
   -4.5001  -10.9477   14.8942 O   0  0  0  0  0  0  0  0  0  0  0  0
  1  2  1  1  0  0  0
  1  3  1  0  0  0  0
  1  8  1  0  0  0  0
  3  4  1  0  0  0  0
  3 32  1  1  0  0  0
  4  5  1  0  0  0  0
  4 33  1  6  0  0  0
  5  6  1  1  0  0  0
  5  7  1  0  0  0  0
  7  8  1  0  0  0  0
  7  9  1  6  0  0  0
  9 10  1  0  0  0  0
 11 12  1  6  0  0  0
 11 13  1  0  0  0  0
 11 19  1  0  0  0  0
 12 35  1  0  0  0  0
 13 14  1  0  0  0  0
 14 15  1  1  0  0  0
 14 16  1  0  0  0  0
 16  2  1  1  0  0  0
 16 17  1  0  0  0  0
 17 18  1  6  0  0  0
 17 19  1  0  0  0  0
 19 20  1  6  0  0  0
 21 20  1  1  0  0  0
 21 22  1  0  0  0  0
 21 29  1  0  0  0  0
 22 23  1  1  0  0  0
 22 24  1  0  0  0  0
 24 25  1  6  0  0  0
 24 26  1  0  0  0  0
 26 27  1  1  0  0  0
 26 28  1  0  0  0  0
 28 29  1  0  0  0  0
 28 30  1  6  0  0  0
 30 31  1  0  0  0  0
 34 39  1  0  0  0  0
 35 36  2  0  0  0  0
 37 35  1  6  0  0  0
 37 38  1  0  0  0  0
 37 40  1  0  0  0  0
 38 39  1  0  0  0  0
M  END
>  <CHROM.1>
-135.65225319,-67.53603241,49.89461575,-169.15118736,128.65939340,-164.90612376
57.02146808,157.33872463,177.17162554,75.93696585,0.53346644,-9.20600811
17.18638572,0.77949113,0.01024668,0.81227595

>  <Name>
2g5q_lig

>  <RI>
0

>  <Rbt.Current_Directory>
/home/itssahil/PROJECTS/Mol_Feturizer/New_Systems/rnas/2g5q

>  <Rbt.Executable>
rbdock ($Id: //depot/dev/client3/rdock/2013.1/src/exe/rbdock.cxx#4 $)

>  <Rbt.Library>
libRbt.so (2013.1, Build901 2013/11/27)

>  <Rbt.Parameter_File>
/export/apps/rDock/src/rDock_2013.1_src/data/scripts/dock_solv.prm

>  <Rbt.Receptor>
prm/pocket_docking_2.prm

>  <SCORE>
-11.8522

>  <SCORE.INTER>
-10.4375

>  <SCORE.INTER.CONST>
1

>  <SCORE.INTER.POLAR>
-0.329029

>  <SCORE.INTER.ROT>
10

>  <SCORE.INTER.SOLV>
19.3866

>  <SCORE.INTER.VDW>
-22.5904

>  <SCORE.INTER.norm>
-0.260938

>  <SCORE.INTRA>
-1.60143

>  <SCORE.INTRA.DIHEDRAL>
-5.49875

>  <SCORE.INTRA.DIHEDRAL.0>
22.5778

>  <SCORE.INTRA.POLAR>
0

>  <SCORE.INTRA.POLAR.0>
0

>  <SCORE.INTRA.REPUL>
0

>  <SCORE.INTRA.REPUL.0>
0

>  <SCORE.INTRA.SOLV>
1.57187

>  <SCORE.INTRA.SOLV.lig_0>
-102.332

>  <SCORE.INTRA.VDW>
0.362004

>  <SCORE.INTRA.VDW.0>
-5.08747

>  <SCORE.INTRA.norm>
-0.0400358

>  <SCORE.RESTR>
0.186791

>  <SCORE.RESTR.CAVITY>
0.186791

>  <SCORE.RESTR.norm>
0.00466977

>  <SCORE.SYSTEM>
0

>  <SCORE.SYSTEM.CONST>
0

>  <SCORE.SYSTEM.DIHEDRAL>
0

>  <SCORE.SYSTEM.SOLV>
0

>  <SCORE.SYSTEM.norm>
0

>  <SCORE.heavy>
40

>  <SCORE.norm>
-0.296304

>  <RMSD>
1.124

$$$$
2g5q_lig
 OpenBabel11021811433D
libRbt.so/2013.1/901 2013/11/27
 40 42  0  0  0  0  0  0  0  0999 V2000
    3.9704   -7.2890   18.8949 C   0  0  2  0  0  0  0  0  0  0  0  0
    2.8434   -8.0316   19.3047 O   0  0  0  0  0  0  0  0  0  0  0  0
    5.1874   -7.6954   19.7771 C   0  0  1  0  0  0  0  0  0  0  0  0
    4.9987   -7.2622   21.2639 C   0  0  2  0  0  0  0  0  0  0  0  0
    4.8256   -5.7213   21.2904 C   0  0  2  0  0  0  0  0  0  0  0  0
    4.6716   -5.2793   22.6488 O   0  0  0  0  0  0  0  0  0  0  0  0
    3.5558   -5.3497   20.4223 C   0  0  2  0  0  0  0  0  0  0  0  0
    3.7380   -5.8261   19.0214 O   0  0  0  0  0  0  0  0  0  0  0  0
    3.2977   -3.8477   20.3672 C   0  0  0  0  0  0  0  0  0  0  0  0
    2.9697   -3.2843   21.7150 N   0  0  0  0  0  0  0  0  0  0  0  0
   -1.1573   -9.1467   17.9527 C   0  0  2  0  0  0  0  0  0  0  0  0
   -2.4374   -9.1162   17.2553 N   0  0  0  0  0  0  0  0  0  0  0  0
   -0.9917   -7.8511   18.8525 C   0  0  0  0  0  0  0  0  0  0  0  0
    0.3908   -7.8836   19.6154 C   0  0  2  0  0  0  0  0  0  0  0  0
    0.5289   -6.6691   20.4639 N   0  0  0  0  0  0  0  0  0  0  0  0
    1.5691   -7.9905   18.5674 C   0  0  2  0  0  0  0  0  0  0  0  0
    1.3676   -9.2882   17.6886 C   0  0  2  0  0  0  0  0  0  0  0  0
    2.4320   -9.3794   16.7364 O   0  0  0  0  0  0  0  0  0  0  0  0
   -0.0099   -9.2280   16.9246 C   0  0  1  0  0  0  0  0  0  0  0  0
   -0.1985  -10.4299   16.1257 O   0  0  0  0  0  0  0  0  0  0  0  0
   -0.3239  -10.4360   14.7248 C   0  0  2  0  0  0  0  0  0  0  0  0
   -0.6958  -11.8949   14.2931 C   0  0  2  0  0  0  0  0  0  0  0  0
   -1.8962  -12.2652   14.8917 O   0  0  0  0  0  0  0  0  0  0  0  0
    0.4535  -12.9078   14.6615 C   0  0  1  0  0  0  0  0  0  0  0  0
    0.1086  -14.3079   14.2477 N   0  0  0  0  0  0  0  0  0  0  0  0
    1.7838  -12.4269   13.9569 C   0  0  2  0  0  0  0  0  0  0  0  0
    2.8651  -13.3142   14.2493 O   0  0  0  0  0  0  0  0  0  0  0  0
    2.1000  -10.9679   14.4303 C   0  0  2  0  0  0  0  0  0  0  0  0
    0.9591  -10.0406   14.1170 O   0  0  0  0  0  0  0  0  0  0  0  0
    3.3389  -10.4274   13.7770 C   0  0  0  0  0  0  0  0  0  0  0  0
    3.1237  -10.1750   12.3789 O   0  0  0  0  0  0  0  0  0  0  0  0
    5.3709   -9.1490   19.6696 O   0  0  0  0  0  0  0  0  0  0  0  0
    6.1065   -7.6336   21.9934 O   0  0  0  0  0  0  0  0  0  0  0  0
   -7.6669   -8.7273   15.9434 N   0  0  0  0  0  0  0  0  0  0  0  0
   -3.6703   -9.3869   17.8322 C   0  0  0  0  0  0  0  0  0  0  0  0
   -3.8216   -9.6942   19.0095 O   0  0  0  0  0  0  0  0  0  0  0  0
   -4.8331   -9.2748   16.8194 C   0  0  1  0  0  0  0  0  0  0  0  0
   -5.5682   -7.9320   17.0052 C   0  0  0  0  0  0  0  0  0  0  0  0
   -6.6907   -7.6413   16.0023 C   0  0  0  0  0  0  0  0  0  0  0  0
   -4.3060   -9.3936   15.4787 O   0  0  0  0  0  0  0  0  0  0  0  0
  1  2  1  1  0  0  0
  1  3  1  0  0  0  0
  1  8  1  0  0  0  0
  3  4  1  0  0  0  0
  3 32  1  1  0  0  0
  4  5  1  0  0  0  0
  4 33  1  1  0  0  0
  5  6  1  1  0  0  0
  5  7  1  0  0  0  0
  7  8  1  0  0  0  0
  7  9  1  6  0  0  0
  9 10  1  0  0  0  0
 11 12  1  6  0  0  0
 11 13  1  0  0  0  0
 11 19  1  0  0  0  0
 12 35  1  0  0  0  0
 13 14  1  0  0  0  0
 14 15  1  6  0  0  0
 14 16  1  0  0  0  0
 16  2  1  1  0  0  0
 16 17  1  0  0  0  0
 17 18  1  6  0  0  0
 17 19  1  0  0  0  0
 19 20  1  1  0  0  0
 21 20  1  1  0  0  0
 21 22  1  0  0  0  0
 21 29  1  0  0  0  0
 22 23  1  1  0  0  0
 22 24  1  0  0  0  0
 24 25  1  6  0  0  0
 24 26  1  0  0  0  0
 26 27  1  1  0  0  0
 26 28  1  0  0  0  0
 28 29  1  0  0  0  0
 28 30  1  6  0  0  0
 30 31  1  0  0  0  0
 34 39  1  0  0  0  0
 35 36  2  0  0  0  0
 37 35  1  1  0  0  0
 37 38  1  0  0  0  0
 37 40  1  0  0  0  0
 38 39  1  0  0  0  0
M  END
>  <CHROM.1>
-172.91806229,-63.98856800,-76.16480075,-136.71544627,122.47289243,-172.72634108
70.05364434,-101.47990391,176.05754935,53.49484108,0.74612131,-8.87582555
17.49909744,-0.77688314,0.08332137,-2.32299532

>  <Name>
2g5q_lig

>  <RI>
0

>  <Rbt.Current_Directory>
/home/itssahil/PROJECTS/Mol_Feturizer/New_Systems/rnas/2g5q

>  <Rbt.Executable>
rbdock ($Id: //depot/dev/client3/rdock/2013.1/src/exe/rbdock.cxx#4 $)

>  <Rbt.Library>
libRbt.so (2013.1, Build901 2013/11/27)

>  <Rbt.Parameter_File>
/export/apps/rDock/src/rDock_2013.1_src/data/scripts/dock_solv.prm

>  <Rbt.Receptor>
prm/pocket_docking_2.prm

>  <SCORE>
-21.5412

>  <SCORE.INTER>
-21.1443

>  <SCORE.INTER.CONST>
1

>  <SCORE.INTER.POLAR>
-1.70672

>  <SCORE.INTER.ROT>
10

>  <SCORE.INTER.SOLV>
17.0493

>  <SCORE.INTER.VDW>
-24.3568

>  <SCORE.INTER.norm>
-0.528607

>  <SCORE.INTRA>
-1.56081

>  <SCORE.INTRA.DIHEDRAL>
-6.07657

>  <SCORE.INTRA.DIHEDRAL.0>
22.5778

>  <SCORE.INTRA.POLAR>
0

>  <SCORE.INTRA.POLAR.0>
0

>  <SCORE.INTRA.REPUL>
0

>  <SCORE.INTRA.REPUL.0>
0

>  <SCORE.INTRA.SOLV>
3.22975

>  <SCORE.INTRA.SOLV.lig_0>
-102.332

>  <SCORE.INTRA.VDW>
-0.137395

>  <SCORE.INTRA.VDW.0>
-5.08747

>  <SCORE.INTRA.norm>
-0.0390202

>  <SCORE.RESTR>
1.16387

>  <SCORE.RESTR.CAVITY>
1.16387

>  <SCORE.RESTR.norm>
0.0290969

>  <SCORE.SYSTEM>
0

>  <SCORE.SYSTEM.CONST>
0

>  <SCORE.SYSTEM.DIHEDRAL>
0

>  <SCORE.SYSTEM.SOLV>
0

>  <SCORE.SYSTEM.norm>
0

>  <SCORE.heavy>
40

>  <SCORE.norm>
-0.53853

>  <RMSD>
1.137

$$$$
2g5q_lig
 OpenBabel11021811433D
libRbt.so/2013.1/901 2013/11/27
 40 42  0  0  0  0  0  0  0  0999 V2000
    3.6657   -7.2488   18.8696 C   0  0  2  0  0  0  0  0  0  0  0  0
    2.4802   -7.8007   19.3984 O   0  0  0  0  0  0  0  0  0  0  0  0
    4.8857   -7.9053   19.5804 C   0  0  1  0  0  0  0  0  0  0  0  0
    4.9569   -7.5185   21.0900 C   0  0  2  0  0  0  0  0  0  0  0  0
    5.0692   -5.9743   21.1791 C   0  0  2  0  0  0  0  0  0  0  0  0
    5.1607   -5.5787   22.5573 O   0  0  0  0  0  0  0  0  0  0  0  0
    3.7931   -5.3434   20.4881 C   0  0  2  0  0  0  0  0  0  0  0  0
    3.7180   -5.7757   19.0632 O   0  0  0  0  0  0  0  0  0  0  0  0
    3.8056   -3.8186   20.5057 C   0  0  0  0  0  0  0  0  0  0  0  0
    2.4324   -3.2437   20.3463 N   0  0  0  0  0  0  0  0  0  0  0  0
   -1.0810   -9.7229   17.7551 C   0  0  2  0  0  0  0  0  0  0  0  0
   -2.2850   -9.9549   16.9663 N   0  0  0  0  0  0  0  0  0  0  0  0
   -1.2621   -8.4384   18.6679 C   0  0  0  0  0  0  0  0  0  0  0  0
    0.0376   -8.1876   19.5296 C   0  0  2  0  0  0  0  0  0  0  0  0
   -0.1493   -6.9873   20.3889 N   0  0  0  0  0  0  0  0  0  0  0  0
    1.2823   -8.0204   18.5701 C   0  0  2  0  0  0  0  0  0  0  0  0
    1.4274   -9.3150   17.6758 C   0  0  2  0  0  0  0  0  0  0  0  0
    2.5512   -9.1587   16.8036 O   0  0  0  0  0  0  0  0  0  0  0  0
    0.1268   -9.5377   16.8133 C   0  0  1  0  0  0  0  0  0  0  0  0
    0.2582  -10.7374   15.9999 O   0  0  0  0  0  0  0  0  0  0  0  0
   -0.0762  -10.8076   14.6355 C   0  0  2  0  0  0  0  0  0  0  0  0
   -0.1401  -12.3231   14.2452 C   0  0  2  0  0  0  0  0  0  0  0  0
   -1.1057  -12.9617   15.0173 O   0  0  0  0  0  0  0  0  0  0  0  0
    1.2655  -13.0144   14.4156 C   0  0  1  0  0  0  0  0  0  0  0  0
    1.2156  -14.4658   14.0396 N   0  0  0  0  0  0  0  0  0  0  0  0
    2.3117  -12.2392   13.5202 C   0  0  2  0  0  0  0  0  0  0  0  0
    3.6097  -12.8272   13.6279 O   0  0  0  0  0  0  0  0  0  0  0  0
    2.3288  -10.7363   13.9603 C   0  0  2  0  0  0  0  0  0  0  0  0
    0.9608  -10.1245   13.8417 O   0  0  0  0  0  0  0  0  0  0  0  0
    3.2809   -9.9245   13.1307 C   0  0  0  0  0  0  0  0  0  0  0  0
    2.6706   -9.5010   11.9007 O   0  0  0  0  0  0  0  0  0  0  0  0
    4.7897   -9.3615   19.4121 O   0  0  0  0  0  0  0  0  0  0  0  0
    6.0585   -8.1139   21.6640 O   0  0  0  0  0  0  0  0  0  0  0  0
   -5.5727   -8.6318   18.3975 N   0  0  0  0  0  0  0  0  0  0  0  0
   -3.4663  -10.5002   17.4494 C   0  0  0  0  0  0  0  0  0  0  0  0
   -3.6286  -10.8603   18.6102 O   0  0  0  0  0  0  0  0  0  0  0  0
   -4.5520  -10.6198   16.3551 C   0  0  1  0  0  0  0  0  0  0  0  0
   -5.9521  -10.6492   17.0008 C   0  0  0  0  0  0  0  0  0  0  0  0
   -6.4947   -9.2976   17.4796 C   0  0  0  0  0  0  0  0  0  0  0  0
   -4.4279   -9.5064   15.4418 O   0  0  0  0  0  0  0  0  0  0  0  0
  1  2  1  1  0  0  0
  1  3  1  0  0  0  0
  1  8  1  0  0  0  0
  3  4  1  0  0  0  0
  3 32  1  1  0  0  0
  4  5  1  0  0  0  0
  4 33  1  6  0  0  0
  5  6  1  1  0  0  0
  5  7  1  0  0  0  0
  7  8  1  0  0  0  0
  7  9  1  6  0  0  0
  9 10  1  0  0  0  0
 11 12  1  6  0  0  0
 11 13  1  0  0  0  0
 11 19  1  0  0  0  0
 12 35  1  0  0  0  0
 13 14  1  0  0  0  0
 14 15  1  6  0  0  0
 14 16  1  0  0  0  0
 16  2  1  1  0  0  0
 16 17  1  0  0  0  0
 17 18  1  6  0  0  0
 17 19  1  0  0  0  0
 19 20  1  1  0  0  0
 21 20  1  1  0  0  0
 21 22  1  0  0  0  0
 21 29  1  0  0  0  0
 22 23  1  1  0  0  0
 22 24  1  0  0  0  0
 24 25  1  6  0  0  0
 24 26  1  0  0  0  0
 26 27  1  1  0  0  0
 26 28  1  0  0  0  0
 28 29  1  0  0  0  0
 28 30  1  6  0  0  0
 30 31  1  0  0  0  0
 34 39  1  0  0  0  0
 35 36  2  0  0  0  0
 37 35  1  1  0  0  0
 37 38  1  0  0  0  0
 37 40  1  0  0  0  0
 38 39  1  0  0  0  0
M  END
>  <CHROM.1>
-145.35634949,-158.28105674,-76.50425677,-161.72104732,106.57984984,-165.70730789
83.57134747,-156.31557542,77.02560078,-54.77452396,0.88541566,-9.17131358
17.39899705,-0.84013080,-0.08160941,-2.25925824

>  <Name>
2g5q_lig

>  <RI>
0

>  <Rbt.Current_Directory>
/home/itssahil/PROJECTS/Mol_Feturizer/New_Systems/rnas/2g5q

>  <Rbt.Executable>
rbdock ($Id: //depot/dev/client3/rdock/2013.1/src/exe/rbdock.cxx#4 $)

>  <Rbt.Library>
libRbt.so (2013.1, Build901 2013/11/27)

>  <Rbt.Parameter_File>
/export/apps/rDock/src/rDock_2013.1_src/data/scripts/dock_solv.prm

>  <Rbt.Receptor>
prm/pocket_docking_2.prm

>  <SCORE>
-14.7886

>  <SCORE.INTER>
-16.2521

>  <SCORE.INTER.CONST>
1

>  <SCORE.INTER.POLAR>
-1.62222

>  <SCORE.INTER.ROT>
10

>  <SCORE.INTER.SOLV>
18.8625

>  <SCORE.INTER.VDW>
-21.9815

>  <SCORE.INTER.norm>
-0.406304

>  <SCORE.INTRA>
0.275786

>  <SCORE.INTRA.DIHEDRAL>
-3.30763

>  <SCORE.INTRA.DIHEDRAL.0>
22.5778

>  <SCORE.INTRA.POLAR>
0

>  <SCORE.INTRA.POLAR.0>
0

>  <SCORE.INTRA.REPUL>
0

>  <SCORE.INTRA.REPUL.0>
0

>  <SCORE.INTRA.SOLV>
3.24693

>  <SCORE.INTRA.SOLV.lig_0>
-102.332

>  <SCORE.INTRA.VDW>
0.306137

>  <SCORE.INTRA.VDW.0>
-5.08747

>  <SCORE.INTRA.norm>
0.00689466

>  <SCORE.RESTR>
1.18774

>  <SCORE.RESTR.CAVITY>
1.18774

>  <SCORE.RESTR.norm>
0.0296935

>  <SCORE.SYSTEM>
0

>  <SCORE.SYSTEM.CONST>
0

>  <SCORE.SYSTEM.DIHEDRAL>
0

>  <SCORE.SYSTEM.SOLV>
0

>  <SCORE.SYSTEM.norm>
0

>  <SCORE.heavy>
40

>  <SCORE.norm>
-0.369715

>  <RMSD>
1.150

$$$$
2g5q_lig
 OpenBabel11021811433D
libRbt.so/2013.1/901 2013/11/27
 40 42  0  0  0  0  0  0  0  0999 V2000
    4.0655   -7.5969   18.9052 C   0  0  2  0  0  0  0  0  0  0  0  0
    2.9445   -8.3430   19.3248 O   0  0  0  0  0  0  0  0  0  0  0  0
    5.2787   -7.9615   19.8107 C   0  0  1  0  0  0  0  0  0  0  0  0
    5.0689   -7.4890   21.2826 C   0  0  2  0  0  0  0  0  0  0  0  0
    4.8749   -5.9505   21.2636 C   0  0  2  0  0  0  0  0  0  0  0  0
    4.7011   -5.4722   22.6072 O   0  0  0  0  0  0  0  0  0  0  0  0
    3.6093   -5.6210   20.3727 C   0  0  2  0  0  0  0  0  0  0  0  0
    3.8123   -6.1343   18.9877 O   0  0  0  0  0  0  0  0  0  0  0  0
    3.3317   -4.1249   20.2722 C   0  0  0  0  0  0  0  0  0  0  0  0
    2.9698   -3.5304   21.5979 N   0  0  0  0  0  0  0  0  0  0  0  0
   -1.0768   -9.4754   18.0504 C   0  0  2  0  0  0  0  0  0  0  0  0
   -2.3500   -9.4795   17.3400 N   0  0  0  0  0  0  0  0  0  0  0  0
   -0.8801   -8.1002   18.8159 C   0  0  0  0  0  0  0  0  0  0  0  0
    0.4950   -8.0944   19.5928 C   0  0  2  0  0  0  0  0  0  0  0  0
    0.6622   -6.8043   20.3152 N   0  0  0  0  0  0  0  0  0  0  0  0
    1.6776   -8.3408   18.5737 C   0  0  2  0  0  0  0  0  0  0  0  0
    1.4448   -9.7148   17.8289 C   0  0  2  0  0  0  0  0  0  0  0  0
    2.5133   -9.9327   16.9022 O   0  0  0  0  0  0  0  0  0  0  0  0
    0.0755   -9.6935   17.0481 C   0  0  1  0  0  0  0  0  0  0  0  0
   -0.1422  -10.9645   16.3732 O   0  0  0  0  0  0  0  0  0  0  0  0
   -0.7850  -11.0989   15.1295 C   0  0  2  0  0  0  0  0  0  0  0  0
   -1.0638  -12.6240   14.9075 C   0  0  2  0  0  0  0  0  0  0  0  0
   -1.8769  -13.1018   15.9308 O   0  0  0  0  0  0  0  0  0  0  0  0
    0.2802  -13.4424   14.8272 C   0  0  1  0  0  0  0  0  0  0  0  0
    0.0238  -14.9044   14.6099 N   0  0  0  0  0  0  0  0  0  0  0  0
    1.1548  -12.8465   13.6536 C   0  0  2  0  0  0  0  0  0  0  0  0
    2.3888  -13.5559   13.5264 O   0  0  0  0  0  0  0  0  0  0  0  0
    1.3986  -11.3254   13.9354 C   0  0  2  0  0  0  0  0  0  0  0  0
    0.0962  -10.5860   14.0653 O   0  0  0  0  0  0  0  0  0  0  0  0
    2.1999  -10.6787   12.8430 C   0  0  0  0  0  0  0  0  0  0  0  0
    2.5757   -9.3374   13.1958 O   0  0  0  0  0  0  0  0  0  0  0  0
    5.4828   -9.4149   19.7464 O   0  0  0  0  0  0  0  0  0  0  0  0
    6.1741   -7.8243   22.0333 O   0  0  0  0  0  0  0  0  0  0  0  0
   -7.6207   -9.1601   15.8702 N   0  0  0  0  0  0  0  0  0  0  0  0
   -3.5836   -9.1889   17.9056 C   0  0  0  0  0  0  0  0  0  0  0  0
   -3.7432   -8.8991   19.0862 O   0  0  0  0  0  0  0  0  0  0  0  0
   -4.7395   -9.2880   16.8836 C   0  0  1  0  0  0  0  0  0  0  0  0
   -5.7212   -8.1152   17.0806 C   0  0  0  0  0  0  0  0  0  0  0  0
   -6.7990   -7.9586   16.0016 C   0  0  0  0  0  0  0  0  0  0  0  0
   -4.1906   -9.2828   15.5464 O   0  0  0  0  0  0  0  0  0  0  0  0
  1  2  1  1  0  0  0
  1  3  1  0  0  0  0
  1  8  1  0  0  0  0
  3  4  1  0  0  0  0
  3 32  1  1  0  0  0
  4  5  1  0  0  0  0
  4 33  1  1  0  0  0
  5  6  1  1  0  0  0
  5  7  1  0  0  0  0
  7  8  1  0  0  0  0
  7  9  1  6  0  0  0
  9 10  1  0  0  0  0
 11 12  1  6  0  0  0
 11 13  1  0  0  0  0
 11 19  1  0  0  0  0
 12 35  1  0  0  0  0
 13 14  1  0  0  0  0
 14 15  1  6  0  0  0
 14 16  1  0  0  0  0
 16  2  1  1  0  0  0
 16 17  1  0  0  0  0
 17 18  1  6  0  0  0
 17 19  1  0  0  0  0
 19 20  1  1  0  0  0
 21 20  1  1  0  0  0
 21 22  1  0  0  0  0
 21 29  1  0  0  0  0
 22 23  1  1  0  0  0
 22 24  1  0  0  0  0
 24 25  1  6  0  0  0
 24 26  1  0  0  0  0
 26 27  1  1  0  0  0
 26 28  1  0  0  0  0
 28 29  1  0  0  0  0
 28 30  1  6  0  0  0
 30 31  1  0  0  0  0
 34 39  1  0  0  0  0
 35 36  2  0  0  0  0
 37 35  1  1  0  0  0
 37 38  1  0  0  0  0
 37 40  1  0  0  0  0
 38 39  1  0  0  0  0
M  END
>  <CHROM.1>
-172.88435811,-64.52069194,-52.39748637,-131.87561886,95.16890331,-168.85368583
-171.99780168,-138.10405397,170.88835305,58.03555590,0.65644685,-9.14268481
17.54463459,-0.78461298,0.10684265,-2.36225443

>  <Name>
2g5q_lig

>  <RI>
0

>  <Rbt.Current_Directory>
/home/itssahil/PROJECTS/Mol_Feturizer/New_Systems/rnas/2g5q

>  <Rbt.Executable>
rbdock ($Id: //depot/dev/client3/rdock/2013.1/src/exe/rbdock.cxx#4 $)

>  <Rbt.Library>
libRbt.so (2013.1, Build901 2013/11/27)

>  <Rbt.Parameter_File>
/export/apps/rDock/src/rDock_2013.1_src/data/scripts/dock_solv.prm

>  <Rbt.Receptor>
prm/pocket_docking_2.prm

>  <SCORE>
-27.2392

>  <SCORE.INTER>
-26.261

>  <SCORE.INTER.CONST>
1

>  <SCORE.INTER.POLAR>
-2.64985

>  <SCORE.INTER.ROT>
10

>  <SCORE.INTER.SOLV>
16.789

>  <SCORE.INTER.VDW>
-24.5375

>  <SCORE.INTER.norm>
-0.656524

>  <SCORE.INTRA>
-1.90878

>  <SCORE.INTRA.DIHEDRAL>
-7.85894

>  <SCORE.INTRA.DIHEDRAL.0>
22.5778

>  <SCORE.INTRA.POLAR>
0

>  <SCORE.INTRA.POLAR.0>
0

>  <SCORE.INTRA.REPUL>
0

>  <SCORE.INTRA.REPUL.0>
0

>  <SCORE.INTRA.SOLV>
3.24492

>  <SCORE.INTRA.SOLV.lig_0>
-102.332

>  <SCORE.INTRA.VDW>
0.398236

>  <SCORE.INTRA.VDW.0>
-5.08747

>  <SCORE.INTRA.norm>
-0.0477194

>  <SCORE.RESTR>
0.930543

>  <SCORE.RESTR.CAVITY>
0.930543

>  <SCORE.RESTR.norm>
0.0232636

>  <SCORE.SYSTEM>
0

>  <SCORE.SYSTEM.CONST>
0

>  <SCORE.SYSTEM.DIHEDRAL>
0

>  <SCORE.SYSTEM.SOLV>
0

>  <SCORE.SYSTEM.norm>
0

>  <SCORE.heavy>
40

>  <SCORE.norm>
-0.68098

>  <RMSD>
1.165

$$$$
2g5q_lig
 OpenBabel11021811433D
libRbt.so/2013.1/901 2013/11/27
 40 42  0  0  0  0  0  0  0  0999 V2000
    4.0032   -7.4142   18.9201 C   0  0  2  0  0  0  0  0  0  0  0  0
    2.8666   -8.1323   19.3468 O   0  0  0  0  0  0  0  0  0  0  0  0
    5.2225   -7.8415   19.7893 C   0  0  1  0  0  0  0  0  0  0  0  0
    5.0607   -7.3985   21.2763 C   0  0  2  0  0  0  0  0  0  0  0  0
    4.9190   -5.8544   21.2983 C   0  0  2  0  0  0  0  0  0  0  0  0
    4.7905   -5.4037   22.6566 O   0  0  0  0  0  0  0  0  0  0  0  0
    3.6464   -5.4608   20.4441 C   0  0  2  0  0  0  0  0  0  0  0  0
    3.8019   -5.9464   19.0431 O   0  0  0  0  0  0  0  0  0  0  0  0
    3.4178   -3.9541   20.3856 C   0  0  0  0  0  0  0  0  0  0  0  0
    3.0626   -3.3874   21.7252 N   0  0  0  0  0  0  0  0  0  0  0  0
   -1.1564   -9.2243   18.0429 C   0  0  2  0  0  0  0  0  0  0  0  0
   -2.4312   -9.2052   17.3356 N   0  0  0  0  0  0  0  0  0  0  0  0
   -0.9593   -7.8761   18.8550 C   0  0  0  0  0  0  0  0  0  0  0  0
    0.4175   -7.8956   19.6286 C   0  0  2  0  0  0  0  0  0  0  0  0
    0.5851   -6.6311   20.3947 N   0  0  0  0  0  0  0  0  0  0  0  0
    1.5981   -8.1055   18.5990 C   0  0  2  0  0  0  0  0  0  0  0  0
    1.3649   -9.4533   17.8078 C   0  0  2  0  0  0  0  0  0  0  0  0
    2.4316   -9.6380   16.8718 O   0  0  0  0  0  0  0  0  0  0  0  0
   -0.0061   -9.4065   17.0312 C   0  0  1  0  0  0  0  0  0  0  0  0
   -0.2240  -10.6537   16.3134 O   0  0  0  0  0  0  0  0  0  0  0  0
   -0.7883  -10.7373   15.0278 C   0  0  2  0  0  0  0  0  0  0  0  0
   -1.0107  -12.2549   14.7105 C   0  0  2  0  0  0  0  0  0  0  0  0
   -1.8692  -12.8066   15.6566 O   0  0  0  0  0  0  0  0  0  0  0  0
    0.3580  -13.0342   14.6692 C   0  0  1  0  0  0  0  0  0  0  0  0
    0.1558  -14.4884   14.3614 N   0  0  0  0  0  0  0  0  0  0  0  0
    1.2834  -12.3549   13.5832 C   0  0  2  0  0  0  0  0  0  0  0  0
    2.5421  -13.0257   13.4942 O   0  0  0  0  0  0  0  0  0  0  0  0
    1.4675  -10.8455   13.9577 C   0  0  2  0  0  0  0  0  0  0  0  0
    0.1395  -10.1466   14.0468 O   0  0  0  0  0  0  0  0  0  0  0  0
    2.3136  -10.1217   12.9509 C   0  0  0  0  0  0  0  0  0  0  0  0
    3.6501  -10.6485   12.9173 O   0  0  0  0  0  0  0  0  0  0  0  0
    5.3755   -9.2989   19.6858 O   0  0  0  0  0  0  0  0  0  0  0  0
    6.1697   -7.7891   21.9939 O   0  0  0  0  0  0  0  0  0  0  0  0
   -7.6482   -8.8290   15.9275 N   0  0  0  0  0  0  0  0  0  0  0  0
   -3.6737   -9.4119   17.9184 C   0  0  0  0  0  0  0  0  0  0  0  0
   -3.8393   -9.6448   19.1108 O   0  0  0  0  0  0  0  0  0  0  0  0
   -4.8274   -9.3330   16.8922 C   0  0  1  0  0  0  0  0  0  0  0  0
   -5.5996   -8.0095   17.0659 C   0  0  0  0  0  0  0  0  0  0  0  0
   -6.6889   -7.7307   16.0238 C   0  0  0  0  0  0  0  0  0  0  0  0
   -4.2821   -9.4413   15.5580 O   0  0  0  0  0  0  0  0  0  0  0  0
  1  2  1  1  0  0  0
  1  3  1  0  0  0  0
  1  8  1  0  0  0  0
  3  4  1  0  0  0  0
  3 32  1  1  0  0  0
  4  5  1  0  0  0  0
  4 33  1  1  0  0  0
  5  6  1  1  0  0  0
  5  7  1  0  0  0  0
  7  8  1  0  0  0  0
  7  9  1  6  0  0  0
  9 10  1  0  0  0  0
 11 12  1  6  0  0  0
 11 13  1  0  0  0  0
 11 19  1  0  0  0  0
 12 35  1  0  0  0  0
 13 14  1  0  0  0  0
 14 15  1  6  0  0  0
 14 16  1  0  0  0  0
 16  2  1  1  0  0  0
 16 17  1  0  0  0  0
 17 18  1  6  0  0  0
 17 19  1  0  0  0  0
 19 20  1  1  0  0  0
 21 20  1  1  0  0  0
 21 22  1  0  0  0  0
 21 29  1  0  0  0  0
 22 23  1  1  0  0  0
 22 24  1  0  0  0  0
 24 25  1  6  0  0  0
 24 26  1  0  0  0  0
 26 27  1  1  0  0  0
 26 28  1  0  0  0  0
 28 29  1  0  0  0  0
 28 30  1  6  0  0  0
 30 31  1  0  0  0  0
 34 39  1  0  0  0  0
 35 36  2  0  0  0  0
 37 35  1  1  0  0  0
 37 38  1  0  0  0  0
 37 40  1  0  0  0  0
 38 39  1  0  0  0  0
M  END
>  <CHROM.1>
-170.75149155,-66.32605481,-76.66536545,-134.54249155,99.63550433,-172.84619227
-63.64535306,-105.83361090,174.24483143,54.32948631,0.68247533,-8.98460630
17.52517467,-0.77901387,0.07650855,-2.31919659

>  <Name>
2g5q_lig

>  <RI>
0

>  <Rbt.Current_Directory>
/home/itssahil/PROJECTS/Mol_Feturizer/New_Systems/rnas/2g5q

>  <Rbt.Executable>
rbdock ($Id: //depot/dev/client3/rdock/2013.1/src/exe/rbdock.cxx#4 $)

>  <Rbt.Library>
libRbt.so (2013.1, Build901 2013/11/27)

>  <Rbt.Parameter_File>
/export/apps/rDock/src/rDock_2013.1_src/data/scripts/dock_solv.prm

>  <Rbt.Receptor>
prm/pocket_docking_2.prm

>  <SCORE>
-23.6996

>  <SCORE.INTER>
-22.4234

>  <SCORE.INTER.CONST>
1

>  <SCORE.INTER.POLAR>
-1.74795

>  <SCORE.INTER.ROT>
10

>  <SCORE.INTER.SOLV>
16.348

>  <SCORE.INTER.VDW>
-24.8384

>  <SCORE.INTER.norm>
-0.560586

>  <SCORE.INTRA>
-2.30208

>  <SCORE.INTRA.DIHEDRAL>
-7.5006

>  <SCORE.INTRA.DIHEDRAL.0>
22.5778

>  <SCORE.INTRA.POLAR>
0

>  <SCORE.INTRA.POLAR.0>
0

>  <SCORE.INTRA.REPUL>
0

>  <SCORE.INTRA.REPUL.0>
0

>  <SCORE.INTRA.SOLV>
3.16173

>  <SCORE.INTRA.SOLV.lig_0>
-102.332

>  <SCORE.INTRA.VDW>
-0.132644

>  <SCORE.INTRA.VDW.0>
-5.08747

>  <SCORE.INTRA.norm>
-0.057552

>  <SCORE.RESTR>
1.02589

>  <SCORE.RESTR.CAVITY>
1.02589

>  <SCORE.RESTR.norm>
0.0256472

>  <SCORE.SYSTEM>
0

>  <SCORE.SYSTEM.CONST>
0

>  <SCORE.SYSTEM.DIHEDRAL>
0

>  <SCORE.SYSTEM.SOLV>
0

>  <SCORE.SYSTEM.norm>
0

>  <SCORE.heavy>
40

>  <SCORE.norm>
-0.592491

>  <RMSD>
1.175

$$$$
2g5q_lig
 OpenBabel11021811433D
libRbt.so/2013.1/901 2013/11/27
 40 42  0  0  0  0  0  0  0  0999 V2000
    4.0740   -7.4491   18.9067 C   0  0  2  0  0  0  0  0  0  0  0  0
    2.9523   -8.2007   19.3147 O   0  0  0  0  0  0  0  0  0  0  0  0
    5.2897   -7.8368   19.7991 C   0  0  1  0  0  0  0  0  0  0  0  0
    5.0874   -7.3957   21.2817 C   0  0  2  0  0  0  0  0  0  0  0  0
    4.8981   -5.8566   21.2968 C   0  0  2  0  0  0  0  0  0  0  0  0
    4.7312   -5.4071   22.6513 O   0  0  0  0  0  0  0  0  0  0  0  0
    3.6299   -5.5040   20.4185 C   0  0  2  0  0  0  0  0  0  0  0  0
    3.8256   -5.9878   19.0220 O   0  0  0  0  0  0  0  0  0  0  0  0
    3.3565   -4.0052   20.3517 C   0  0  0  0  0  0  0  0  0  0  0  0
    3.0679   -3.4261   21.7019 N   0  0  0  0  0  0  0  0  0  0  0  0
   -1.0678   -9.3073   18.0142 C   0  0  2  0  0  0  0  0  0  0  0  0
   -2.3448   -9.2905   17.3108 N   0  0  0  0  0  0  0  0  0  0  0  0
   -0.8766   -7.9643   18.8362 C   0  0  0  0  0  0  0  0  0  0  0  0
    0.5027   -7.9813   19.6056 C   0  0  2  0  0  0  0  0  0  0  0  0
    0.6647   -6.7218   20.3811 N   0  0  0  0  0  0  0  0  0  0  0  0
    1.6814   -8.1758   18.5709 C   0  0  2  0  0  0  0  0  0  0  0  0
    1.4542   -9.5188   17.7699 C   0  0  2  0  0  0  0  0  0  0  0  0
    2.5191   -9.6896   16.8293 O   0  0  0  0  0  0  0  0  0  0  0  0
    0.0806   -9.4744   16.9977 C   0  0  1  0  0  0  0  0  0  0  0  0
   -0.1319  -10.7173   16.2708 O   0  0  0  0  0  0  0  0  0  0  0  0
   -0.7288  -10.7972   14.9998 C   0  0  2  0  0  0  0  0  0  0  0  0
   -0.9915  -12.3117   14.6989 C   0  0  2  0  0  0  0  0  0  0  0  0
   -1.8385  -12.8383   15.6693 O   0  0  0  0  0  0  0  0  0  0  0  0
    0.3587  -13.1209   14.6304 C   0  0  1  0  0  0  0  0  0  0  0  0
    0.1178  -14.5724   14.3380 N   0  0  0  0  0  0  0  0  0  0  0  0
    1.2720  -12.4692   13.5175 C   0  0  2  0  0  0  0  0  0  0  0  0
    2.5134  -13.1678   13.4032 O   0  0  0  0  0  0  0  0  0  0  0  0
    1.4976  -10.9617   13.8766 C   0  0  2  0  0  0  0  0  0  0  0  0
    0.1876  -10.2335   13.9925 O   0  0  0  0  0  0  0  0  0  0  0  0
    2.3346  -10.2632   12.8445 C   0  0  0  0  0  0  0  0  0  0  0  0
    3.6656  -10.8029   12.7997 O   0  0  0  0  0  0  0  0  0  0  0  0
    5.4890   -9.2891   19.7025 O   0  0  0  0  0  0  0  0  0  0  0  0
    6.1945   -7.7506   22.0204 O   0  0  0  0  0  0  0  0  0  0  0  0
   -7.5920   -8.9534   15.9329 N   0  0  0  0  0  0  0  0  0  0  0  0
   -3.5933   -9.3035   17.9170 C   0  0  0  0  0  0  0  0  0  0  0  0
   -3.7636   -9.3387   19.1307 O   0  0  0  0  0  0  0  0  0  0  0  0
   -4.7484   -9.2861   16.8895 C   0  0  1  0  0  0  0  0  0  0  0  0
   -5.5956   -8.0100   17.0683 C   0  0  0  0  0  0  0  0  0  0  0  0
   -6.7058   -7.7956   16.0330 C   0  0  0  0  0  0  0  0  0  0  0  0
   -4.1962   -9.3564   15.5555 O   0  0  0  0  0  0  0  0  0  0  0  0
  1  2  1  1  0  0  0
  1  3  1  0  0  0  0
  1  8  1  0  0  0  0
  3  4  1  0  0  0  0
  3 32  1  1  0  0  0
  4  5  1  0  0  0  0
  4 33  1  1  0  0  0
  5  6  1  1  0  0  0
  5  7  1  0  0  0  0
  7  8  1  0  0  0  0
  7  9  1  6  0  0  0
  9 10  1  0  0  0  0
 11 12  1  6  0  0  0
 11 13  1  0  0  0  0
 11 19  1  0  0  0  0
 12 35  1  0  0  0  0
 13 14  1  0  0  0  0
 14 15  1  6  0  0  0
 14 16  1  0  0  0  0
 16  2  1  1  0  0  0
 16 17  1  0  0  0  0
 17 18  1  6  0  0  0
 17 19  1  0  0  0  0
 19 20  1  1  0  0  0
 21 20  1  1  0  0  0
 21 22  1  0  0  0  0
 21 29  1  0  0  0  0
 22 23  1  1  0  0  0
 22 24  1  0  0  0  0
 24 25  1  6  0  0  0
 24 26  1  0  0  0  0
 26 27  1  1  0  0  0
 26 28  1  0  0  0  0
 28 29  1  0  0  0  0
 28 30  1  6  0  0  0
 30 31  1  0  0  0  0
 34 39  1  0  0  0  0
 35 36  2  0  0  0  0
 37 35  1  1  0  0  0
 37 38  1  0  0  0  0
 37 40  1  0  0  0  0
 38 39  1  0  0  0  0
M  END
>  <CHROM.1>
-173.03320943,-61.71195414,-66.17552048,-133.11059660,98.04187919,-170.22054603
-64.70345812,-117.89618139,174.75603185,53.76165793,0.72320069,-9.02608716
17.50089595,-0.79503500,0.07953590,-2.31942153

>  <Name>
2g5q_lig

>  <RI>
0

>  <Rbt.Current_Directory>
/home/itssahil/PROJECTS/Mol_Feturizer/New_Systems/rnas/2g5q

>  <Rbt.Executable>
rbdock ($Id: //depot/dev/client3/rdock/2013.1/src/exe/rbdock.cxx#4 $)

>  <Rbt.Library>
libRbt.so (2013.1, Build901 2013/11/27)

>  <Rbt.Parameter_File>
/export/apps/rDock/src/rDock_2013.1_src/data/scripts/dock_solv.prm

>  <Rbt.Receptor>
prm/pocket_docking_2.prm

>  <SCORE>
-23.4475

>  <SCORE.INTER>
-22.4782

>  <SCORE.INTER.CONST>
1

>  <SCORE.INTER.POLAR>
-1.77095

>  <SCORE.INTER.ROT>
10

>  <SCORE.INTER.SOLV>
16.4512

>  <SCORE.INTER.VDW>
-24.8327

>  <SCORE.INTER.norm>
-0.561954

>  <SCORE.INTRA>
-1.93718

>  <SCORE.INTRA.DIHEDRAL>
-7.60948

>  <SCORE.INTRA.DIHEDRAL.0>
22.5778

>  <SCORE.INTRA.POLAR>
0

>  <SCORE.INTRA.POLAR.0>
0

>  <SCORE.INTRA.REPUL>
0

>  <SCORE.INTRA.REPUL.0>
0

>  <SCORE.INTRA.SOLV>
3.42544

>  <SCORE.INTRA.SOLV.lig_0>
-102.332

>  <SCORE.INTRA.VDW>
0.154845

>  <SCORE.INTRA.VDW.0>
-5.08747

>  <SCORE.INTRA.norm>
-0.0484295

>  <SCORE.RESTR>
0.967829

>  <SCORE.RESTR.CAVITY>
0.967829

>  <SCORE.RESTR.norm>
0.0241957

>  <SCORE.SYSTEM>
0

>  <SCORE.SYSTEM.CONST>
0

>  <SCORE.SYSTEM.DIHEDRAL>
0

>  <SCORE.SYSTEM.SOLV>
0

>  <SCORE.SYSTEM.norm>
0

>  <SCORE.heavy>
40

>  <SCORE.norm>
-0.586188

>  <RMSD>
1.178

$$$$
2g5q_lig
 OpenBabel11021811433D
libRbt.so/2013.1/901 2013/11/27
 40 42  0  0  0  0  0  0  0  0999 V2000
    3.0499   -7.3221   18.5489 C   0  0  2  0  0  0  0  0  0  0  0  0
    1.9324   -7.7874   19.2729 O   0  0  0  0  0  0  0  0  0  0  0  0
    4.2991   -8.1538   18.9645 C   0  0  1  0  0  0  0  0  0  0  0  0
    4.7042   -7.8932   20.4483 C   0  0  2  0  0  0  0  0  0  0  0  0
    5.0106   -6.3804   20.5975 C   0  0  2  0  0  0  0  0  0  0  0  0
    5.4112   -6.1030   21.9491 O   0  0  0  0  0  0  0  0  0  0  0  0
    3.7077   -5.5698   20.2110 C   0  0  2  0  0  0  0  0  0  0  0  0
    3.3098   -5.8816   18.8084 O   0  0  0  0  0  0  0  0  0  0  0  0
    3.9009   -4.0603   20.3092 C   0  0  0  0  0  0  0  0  0  0  0  0
    3.7680   -3.5673   21.7167 N   0  0  0  0  0  0  0  0  0  0  0  0
   -1.6012  -10.1070   18.1725 C   0  0  2  0  0  0  0  0  0  0  0  0
   -2.8633  -10.4887   17.5504 N   0  0  0  0  0  0  0  0  0  0  0  0
   -1.7929   -8.7942   19.0418 C   0  0  0  0  0  0  0  0  0  0  0  0
   -0.4294   -8.3811   19.7234 C   0  0  2  0  0  0  0  0  0  0  0  0
   -0.6253   -7.1556   20.5443 N   0  0  0  0  0  0  0  0  0  0  0  0
    0.6705   -8.1586   18.6104 C   0  0  2  0  0  0  0  0  0  0  0  0
    0.8298   -9.4835   17.7643 C   0  0  2  0  0  0  0  0  0  0  0  0
    1.8215   -9.2777   16.7532 O   0  0  0  0  0  0  0  0  0  0  0  0
   -0.5374   -9.8689   17.0808 C   0  0  1  0  0  0  0  0  0  0  0  0
   -0.3910  -11.0961   16.3122 O   0  0  0  0  0  0  0  0  0  0  0  0
   -0.8711  -11.2698   15.0017 C   0  0  2  0  0  0  0  0  0  0  0  0
   -0.8668  -12.8068   14.7000 C   0  0  2  0  0  0  0  0  0  0  0  0
   -1.6894  -13.4617   15.6115 O   0  0  0  0  0  0  0  0  0  0  0  0
    0.5961  -13.3906   14.7405 C   0  0  1  0  0  0  0  0  0  0  0  0
    0.6113  -14.8618   14.4481 N   0  0  0  0  0  0  0  0  0  0  0  0
    1.4747  -12.6015   13.6904 C   0  0  2  0  0  0  0  0  0  0  0  0
    2.8163  -13.0934   13.6759 O   0  0  0  0  0  0  0  0  0  0  0  0
    1.4306  -11.0773   14.0475 C   0  0  2  0  0  0  0  0  0  0  0  0
    0.0166  -10.5671   14.0581 O   0  0  0  0  0  0  0  0  0  0  0  0
    2.2205  -10.2542   13.0717 C   0  0  0  0  0  0  0  0  0  0  0  0
    3.6241  -10.5509   13.1550 O   0  0  0  0  0  0  0  0  0  0  0  0
    4.0035   -9.5751   18.7393 O   0  0  0  0  0  0  0  0  0  0  0  0
    5.8186   -8.6416   20.7571 O   0  0  0  0  0  0  0  0  0  0  0  0
   -7.8285  -10.0340   15.0591 N   0  0  0  0  0  0  0  0  0  0  0  0
   -3.7254   -9.6234   16.8914 C   0  0  0  0  0  0  0  0  0  0  0  0
   -3.5216   -8.4211   16.7637 O   0  0  0  0  0  0  0  0  0  0  0  0
   -4.9827  -10.3420   16.3498 C   0  0  1  0  0  0  0  0  0  0  0  0
   -6.2537   -9.7082   16.9507 C   0  0  0  0  0  0  0  0  0  0  0  0
   -7.5845  -10.3021   16.4749 C   0  0  0  0  0  0  0  0  0  0  0  0
   -4.9940  -10.2529   14.9072 O   0  0  0  0  0  0  0  0  0  0  0  0
  1  2  1  1  0  0  0
  1  3  1  0  0  0  0
  1  8  1  0  0  0  0
  3  4  1  0  0  0  0
  3 32  1  1  0  0  0
  4  5  1  0  0  0  0
  4 33  1  6  0  0  0
  5  6  1  1  0  0  0
  5  7  1  0  0  0  0
  7  8  1  0  0  0  0
  7  9  1  6  0  0  0
  9 10  1  0  0  0  0
 11 12  1  6  0  0  0
 11 13  1  0  0  0  0
 11 19  1  0  0  0  0
 12 35  1  0  0  0  0
 13 14  1  0  0  0  0
 14 15  1  6  0  0  0
 14 16  1  0  0  0  0
 16  2  1  1  0  0  0
 16 17  1  0  0  0  0
 17 18  1  6  0  0  0
 17 19  1  0  0  0  0
 19 20  1  1  0  0  0
 21 20  1  1  0  0  0
 21 22  1  0  0  0  0
 21 29  1  0  0  0  0
 22 23  1  1  0  0  0
 22 24  1  0  0  0  0
 24 25  1  6  0  0  0
 24 26  1  0  0  0  0
 26 27  1  1  0  0  0
 26 28  1  0  0  0  0
 28 29  1  0  0  0  0
 28 30  1  6  0  0  0
 30 31  1  0  0  0  0
 34 39  1  0  0  0  0
 35 36  2  0  0  0  0
 37 35  1  1  0  0  0
 37 38  1  0  0  0  0
 37 40  1  0  0  0  0
 38 39  1  0  0  0  0
M  END
>  <CHROM.1>
-128.70668549,-81.04666319,46.18623815,-170.00269266,106.95372849,-164.63796472
-66.16265389,121.39615468,178.62969419,-66.89665465,0.40426788,-9.41270329
17.27072159,0.72903954,-0.01122062,0.79317525

>  <Name>
2g5q_lig

>  <RI>
0

>  <Rbt.Current_Directory>
/home/itssahil/PROJECTS/Mol_Feturizer/New_Systems/rnas/2g5q

>  <Rbt.Executable>
rbdock ($Id: //depot/dev/client3/rdock/2013.1/src/exe/rbdock.cxx#4 $)

>  <Rbt.Library>
libRbt.so (2013.1, Build901 2013/11/27)

>  <Rbt.Parameter_File>
/export/apps/rDock/src/rDock_2013.1_src/data/scripts/dock_solv.prm

>  <Rbt.Receptor>
prm/pocket_docking_2.prm

>  <SCORE>
-11.4354

>  <SCORE.INTER>
-11.0776

>  <SCORE.INTER.CONST>
1

>  <SCORE.INTER.POLAR>
-0.896635

>  <SCORE.INTER.ROT>
10

>  <SCORE.INTER.SOLV>
19.0754

>  <SCORE.INTER.VDW>
-21.0214

>  <SCORE.INTER.norm>
-0.27694

>  <SCORE.INTRA>
-0.629947

>  <SCORE.INTRA.DIHEDRAL>
-3.41031

>  <SCORE.INTRA.DIHEDRAL.0>
22.5778

>  <SCORE.INTRA.POLAR>
0

>  <SCORE.INTRA.POLAR.0>
0

>  <SCORE.INTRA.REPUL>
0

>  <SCORE.INTRA.REPUL.0>
0

>  <SCORE.INTRA.SOLV>
1.73509

>  <SCORE.INTRA.SOLV.lig_0>
-102.332

>  <SCORE.INTRA.VDW>
0.207664

>  <SCORE.INTRA.VDW.0>
-5.08747

>  <SCORE.INTRA.norm>
-0.0157487

>  <SCORE.RESTR>
0.272193

>  <SCORE.RESTR.CAVITY>
0.272193

>  <SCORE.RESTR.norm>
0.00680483

>  <SCORE.SYSTEM>
0

>  <SCORE.SYSTEM.CONST>
0

>  <SCORE.SYSTEM.DIHEDRAL>
0

>  <SCORE.SYSTEM.SOLV>
0

>  <SCORE.SYSTEM.norm>
0

>  <SCORE.heavy>
40

>  <SCORE.norm>
-0.285884

>  <RMSD>
1.238

$$$$
2g5q_lig
 OpenBabel11021811433D
libRbt.so/2013.1/901 2013/11/27
 40 42  0  0  0  0  0  0  0  0999 V2000
    3.1089   -6.9318   18.7859 C   0  0  2  0  0  0  0  0  0  0  0  0
    2.1450   -7.8584   19.2352 O   0  0  0  0  0  0  0  0  0  0  0  0
    4.5019   -7.3453   19.3455 C   0  0  1  0  0  0  0  0  0  0  0  0
    4.5706   -7.2041   20.8976 C   0  0  2  0  0  0  0  0  0  0  0  0
    4.2843   -5.7218   21.2521 C   0  0  2  0  0  0  0  0  0  0  0  0
    4.3615   -5.5454   22.6759 O   0  0  0  0  0  0  0  0  0  0  0  0
    2.8452   -5.3508   20.7086 C   0  0  2  0  0  0  0  0  0  0  0  0
    2.7902   -5.5500   19.2321 O   0  0  0  0  0  0  0  0  0  0  0  0
    2.4630   -3.9018   20.9915 C   0  0  0  0  0  0  0  0  0  0  0  0
    3.4942   -2.9402   20.4878 N   0  0  0  0  0  0  0  0  0  0  0  0
   -1.4374   -9.9037   17.7999 C   0  0  2  0  0  0  0  0  0  0  0  0
   -2.6873  -10.1702   17.0980 N   0  0  0  0  0  0  0  0  0  0  0  0
   -1.6080   -8.6616   18.7715 C   0  0  0  0  0  0  0  0  0  0  0  0
   -0.2582   -8.3738   19.5394 C   0  0  2  0  0  0  0  0  0  0  0  0
   -0.4346   -7.2143   20.4551 N   0  0  0  0  0  0  0  0  0  0  0  0
    0.8976   -8.1110   18.4940 C   0  0  2  0  0  0  0  0  0  0  0  0
    1.0342   -9.3656   17.5431 C   0  0  2  0  0  0  0  0  0  0  0  0
    2.0769   -9.1227   16.5934 O   0  0  0  0  0  0  0  0  0  0  0  0
   -0.3180   -9.6254   16.7756 C   0  0  1  0  0  0  0  0  0  0  0  0
   -0.1932  -10.7887   15.9099 O   0  0  0  0  0  0  0  0  0  0  0  0
   -0.2292  -10.7356   14.5049 C   0  0  2  0  0  0  0  0  0  0  0  0
   -0.3472  -12.2074   13.9823 C   0  0  2  0  0  0  0  0  0  0  0  0
   -1.5120  -12.7848   14.4785 O   0  0  0  0  0  0  0  0  0  0  0  0
    0.9178  -13.0568   14.3834 C   0  0  1  0  0  0  0  0  0  0  0  0
    0.8163  -14.4674   13.8832 N   0  0  0  0  0  0  0  0  0  0  0  0
    2.2004  -12.3449   13.7956 C   0  0  2  0  0  0  0  0  0  0  0  0
    3.3840  -13.0762   14.1219 O   0  0  0  0  0  0  0  0  0  0  0  0
    2.2610  -10.8837   14.3558 C   0  0  2  0  0  0  0  0  0  0  0  0
    1.0139  -10.1205   14.0064 O   0  0  0  0  0  0  0  0  0  0  0  0
    3.4412  -10.1293   13.8156 C   0  0  0  0  0  0  0  0  0  0  0  0
    3.3457   -9.9613   12.3917 O   0  0  0  0  0  0  0  0  0  0  0  0
    4.7759   -8.7269   18.9280 O   0  0  0  0  0  0  0  0  0  0  0  0
    5.8246   -7.5690   21.3357 O   0  0  0  0  0  0  0  0  0  0  0  0
   -5.6537   -7.9071   15.3530 N   0  0  0  0  0  0  0  0  0  0  0  0
   -3.9392  -10.2452   17.6922 C   0  0  0  0  0  0  0  0  0  0  0  0
   -4.1355  -10.1008   18.8938 O   0  0  0  0  0  0  0  0  0  0  0  0
   -5.0598  -10.5489   16.6711 C   0  0  1  0  0  0  0  0  0  0  0  0
   -6.2971   -9.6782   16.9698 C   0  0  0  0  0  0  0  0  0  0  0  0
   -6.1358   -8.1766   16.7061 C   0  0  0  0  0  0  0  0  0  0  0  0
   -4.5638  -10.3005   15.3364 O   0  0  0  0  0  0  0  0  0  0  0  0
  1  2  1  1  0  0  0
  1  3  1  0  0  0  0
  1  8  1  0  0  0  0
  3  4  1  0  0  0  0
  3 32  1  1  0  0  0
  4  5  1  0  0  0  0
  4 33  1  6  0  0  0
  5  6  1  1  0  0  0
  5  7  1  0  0  0  0
  7  8  1  0  0  0  0
  7  9  1  6  0  0  0
  9 10  1  0  0  0  0
 11 12  1  6  0  0  0
 11 13  1  0  0  0  0
 11 19  1  0  0  0  0
 12 35  1  0  0  0  0
 13 14  1  0  0  0  0
 14 15  1  1  0  0  0
 14 16  1  0  0  0  0
 16  2  1  1  0  0  0
 16 17  1  0  0  0  0
 17 18  1  6  0  0  0
 17 19  1  0  0  0  0
 19 20  1  6  0  0  0
 21 20  1  1  0  0  0
 21 22  1  0  0  0  0
 21 29  1  0  0  0  0
 22 23  1  1  0  0  0
 22 24  1  0  0  0  0
 24 25  1  6  0  0  0
 24 26  1  0  0  0  0
 26 27  1  1  0  0  0
 26 28  1  0  0  0  0
 28 29  1  0  0  0  0
 28 30  1  6  0  0  0
 30 31  1  0  0  0  0
 34 39  1  0  0  0  0
 35 36  2  0  0  0  0
 37 35  1  1  0  0  0
 37 38  1  0  0  0  0
 37 40  1  0  0  0  0
 38 39  1  0  0  0  0
M  END
>  <CHROM.1>
-154.14740004,53.74932555,-47.62178915,-144.21964268,127.26116055,-168.97790101
63.77665776,-138.00868747,68.91776428,52.95344534,0.58404668,-9.07152931
17.34308158,-0.88662066,-0.02238601,-2.30736139

>  <Name>
2g5q_lig

>  <RI>
0

>  <Rbt.Current_Directory>
/home/itssahil/PROJECTS/Mol_Feturizer/New_Systems/rnas/2g5q

>  <Rbt.Executable>
rbdock ($Id: //depot/dev/client3/rdock/2013.1/src/exe/rbdock.cxx#4 $)

>  <Rbt.Library>
libRbt.so (2013.1, Build901 2013/11/27)

>  <Rbt.Parameter_File>
/export/apps/rDock/src/rDock_2013.1_src/data/scripts/dock_solv.prm

>  <Rbt.Receptor>
prm/pocket_docking_2.prm

>  <SCORE>
-11.2065

>  <SCORE.INTER>
-12.1025

>  <SCORE.INTER.CONST>
1

>  <SCORE.INTER.POLAR>
-1.1921

>  <SCORE.INTER.ROT>
10

>  <SCORE.INTER.SOLV>
23.9483

>  <SCORE.INTER.VDW>
-22.3441

>  <SCORE.INTER.norm>
-0.302561

>  <SCORE.INTRA>
0.887676

>  <SCORE.INTRA.DIHEDRAL>
-4.64055

>  <SCORE.INTRA.DIHEDRAL.0>
22.5778

>  <SCORE.INTRA.POLAR>
0

>  <SCORE.INTRA.POLAR.0>
0

>  <SCORE.INTRA.REPUL>
0

>  <SCORE.INTRA.REPUL.0>
0

>  <SCORE.INTRA.SOLV>
4.52558

>  <SCORE.INTRA.SOLV.lig_0>
-102.332

>  <SCORE.INTRA.VDW>
0.94516

>  <SCORE.INTRA.VDW.0>
-5.08747

>  <SCORE.INTRA.norm>
0.0221919

>  <SCORE.RESTR>
0.00829128

>  <SCORE.RESTR.CAVITY>
0.00829128

>  <SCORE.RESTR.norm>
0.000207282

>  <SCORE.SYSTEM>
0

>  <SCORE.SYSTEM.CONST>
0

>  <SCORE.SYSTEM.DIHEDRAL>
0

>  <SCORE.SYSTEM.SOLV>
0

>  <SCORE.SYSTEM.norm>
0

>  <SCORE.heavy>
40

>  <SCORE.norm>
-0.280162

>  <RMSD>
1.253

$$$$
2g5q_lig
 OpenBabel11021811433D
libRbt.so/2013.1/901 2013/11/27
 40 42  0  0  0  0  0  0  0  0999 V2000
    3.2127   -7.5826   18.4180 C   0  0  2  0  0  0  0  0  0  0  0  0
    2.0982   -8.1462   19.0734 O   0  0  0  0  0  0  0  0  0  0  0  0
    4.5019   -8.3056   18.9080 C   0  0  1  0  0  0  0  0  0  0  0  0
    4.7933   -8.0188   20.4134 C   0  0  2  0  0  0  0  0  0  0  0  0
    4.9584   -6.4860   20.5808 C   0  0  2  0  0  0  0  0  0  0  0  0
    5.2518   -6.1822   21.9541 O   0  0  0  0  0  0  0  0  0  0  0  0
    3.6158   -5.7887   20.1167 C   0  0  2  0  0  0  0  0  0  0  0  0
    3.3311   -6.1264   18.6927 O   0  0  0  0  0  0  0  0  0  0  0  0
    3.6717   -4.2687   20.2264 C   0  0  0  0  0  0  0  0  0  0  0  0
    2.3293   -3.6405   20.0140 N   0  0  0  0  0  0  0  0  0  0  0  0
   -1.1729  -10.6752   17.6657 C   0  0  2  0  0  0  0  0  0  0  0  0
   -2.3781  -11.1152   16.9731 N   0  0  0  0  0  0  0  0  0  0  0  0
   -1.5087   -9.4676   18.6377 C   0  0  0  0  0  0  0  0  0  0  0  0
   -0.2070   -8.9924   19.3956 C   0  0  2  0  0  0  0  0  0  0  0  0
   -0.5374   -7.8675   20.3117 N   0  0  0  0  0  0  0  0  0  0  0  0
    0.8932   -8.5721   18.3415 C   0  0  2  0  0  0  0  0  0  0  0  0
    1.1972   -9.7969   17.3905 C   0  0  2  0  0  0  0  0  0  0  0  0
    2.1889   -9.4120   16.4331 O   0  0  0  0  0  0  0  0  0  0  0  0
   -0.1107  -10.2446   16.6330 C   0  0  1  0  0  0  0  0  0  0  0  0
    0.1695  -11.3805   15.7672 O   0  0  0  0  0  0  0  0  0  0  0  0
   -0.4042  -11.5659   14.4965 C   0  0  2  0  0  0  0  0  0  0  0  0
   -0.4447  -13.1070   14.2200 C   0  0  2  0  0  0  0  0  0  0  0  0
   -1.2111  -13.7347   15.1973 O   0  0  0  0  0  0  0  0  0  0  0  0
    1.0084  -13.7141   14.1674 C   0  0  1  0  0  0  0  0  0  0  0  0
    0.9804  -15.1896   13.8984 N   0  0  0  0  0  0  0  0  0  0  0  0
    1.8229  -12.9554   13.0457 C   0  0  2  0  0  0  0  0  0  0  0  0
    3.1525  -13.4694   12.9452 O   0  0  0  0  0  0  0  0  0  0  0  0
    1.8274  -11.4255   13.3805 C   0  0  2  0  0  0  0  0  0  0  0  0
    0.4256  -10.8920   13.4819 O   0  0  0  0  0  0  0  0  0  0  0  0
    2.5593  -10.6302   12.3386 C   0  0  0  0  0  0  0  0  0  0  0  0
    2.8274   -9.2943   12.7950 O   0  0  0  0  0  0  0  0  0  0  0  0
    4.3442   -9.7459   18.6654 O   0  0  0  0  0  0  0  0  0  0  0  0
    5.9477   -8.6699   20.7887 O   0  0  0  0  0  0  0  0  0  0  0  0
   -7.5110  -11.7869   15.8269 N   0  0  0  0  0  0  0  0  0  0  0  0
   -3.2738  -10.2825   16.3170 C   0  0  0  0  0  0  0  0  0  0  0  0
   -3.1532   -9.0641   16.2523 O   0  0  0  0  0  0  0  0  0  0  0  0
   -4.4529  -11.0616   15.6897 C   0  0  1  0  0  0  0  0  0  0  0  0
   -5.2206  -11.8299   16.7844 C   0  0  0  0  0  0  0  0  0  0  0  0
   -6.4285  -12.6439   16.3061 C   0  0  0  0  0  0  0  0  0  0  0  0
   -5.3228  -10.1325   15.0046 O   0  0  0  0  0  0  0  0  0  0  0  0
  1  2  1  1  0  0  0
  1  3  1  0  0  0  0
  1  8  1  0  0  0  0
  3  4  1  0  0  0  0
  3 32  1  1  0  0  0
  4  5  1  0  0  0  0
  4 33  1  6  0  0  0
  5  6  1  1  0  0  0
  5  7  1  0  0  0  0
  7  8  1  0  0  0  0
  7  9  1  6  0  0  0
  9 10  1  0  0  0  0
 11 12  1  6  0  0  0
 11 13  1  0  0  0  0
 11 19  1  0  0  0  0
 12 35  1  0  0  0  0
 13 14  1  0  0  0  0
 14 15  1  1  0  0  0
 14 16  1  0  0  0  0
 16  2  1  1  0  0  0
 16 17  1  0  0  0  0
 17 18  1  6  0  0  0
 17 19  1  0  0  0  0
 19 20  1  6  0  0  0
 21 20  1  1  0  0  0
 21 22  1  0  0  0  0
 21 29  1  0  0  0  0
 22 23  1  1  0  0  0
 22 24  1  0  0  0  0
 24 25  1  6  0  0  0
 24 26  1  0  0  0  0
 26 27  1  1  0  0  0
 26 28  1  0  0  0  0
 28 29  1  0  0  0  0
 28 30  1  6  0  0  0
 30 31  1  0  0  0  0
 34 39  1  0  0  0  0
 35 36  2  0  0  0  0
 37 35  1  1  0  0  0
 37 38  1  0  0  0  0
 37 40  1  0  0  0  0
 38 39  1  0  0  0  0
M  END
>  <CHROM.1>
-131.19215539,-170.08566849,48.94700988,-173.43836247,98.14434948,-152.41952665
-166.66083532,59.24464759,179.58265096,-67.51081190,0.63067718,-9.82283823
16.92661815,-0.82822316,-0.09533930,-2.30119214

>  <Name>
2g5q_lig

>  <RI>
0

>  <Rbt.Current_Directory>
/home/itssahil/PROJECTS/Mol_Feturizer/New_Systems/rnas/2g5q

>  <Rbt.Executable>
rbdock ($Id: //depot/dev/client3/rdock/2013.1/src/exe/rbdock.cxx#4 $)

>  <Rbt.Library>
libRbt.so (2013.1, Build901 2013/11/27)

>  <Rbt.Parameter_File>
/export/apps/rDock/src/rDock_2013.1_src/data/scripts/dock_solv.prm

>  <Rbt.Receptor>
prm/pocket_docking_3.prm

>  <SCORE>
-20.4575

>  <SCORE.INTER>
-18.4739

>  <SCORE.INTER.CONST>
1

>  <SCORE.INTER.POLAR>
-1.67285

>  <SCORE.INTER.ROT>
10

>  <SCORE.INTER.SOLV>
21.7677

>  <SCORE.INTER.VDW>
-24.2623

>  <SCORE.INTER.norm>
-0.461848

>  <SCORE.INTRA>
-1.98365

>  <SCORE.INTRA.DIHEDRAL>
-5.43657

>  <SCORE.INTRA.DIHEDRAL.0>
22.5778

>  <SCORE.INTRA.POLAR>
0

>  <SCORE.INTRA.POLAR.0>
0

>  <SCORE.INTRA.REPUL>
0

>  <SCORE.INTRA.REPUL.0>
0

>  <SCORE.INTRA.SOLV>
0.811577

>  <SCORE.INTRA.SOLV.lig_0>
-102.332

>  <SCORE.INTRA.VDW>
0.328849

>  <SCORE.INTRA.VDW.0>
-5.08747

>  <SCORE.INTRA.norm>
-0.0495912

>  <SCORE.RESTR>
0

>  <SCORE.RESTR.CAVITY>
0

>  <SCORE.RESTR.norm>
0

>  <SCORE.SYSTEM>
0

>  <SCORE.SYSTEM.CONST>
0

>  <SCORE.SYSTEM.DIHEDRAL>
0

>  <SCORE.SYSTEM.SOLV>
0

>  <SCORE.SYSTEM.norm>
0

>  <SCORE.heavy>
40

>  <SCORE.norm>
-0.511439

>  <RMSD>
1.269

$$$$
2g5q_lig
 OpenBabel11021811433D
libRbt.so/2013.1/901 2013/11/27
 40 42  0  0  0  0  0  0  0  0999 V2000
    3.2401   -7.0889   18.6300 C   0  0  2  0  0  0  0  0  0  0  0  0
    2.0867   -7.6138   19.2492 O   0  0  0  0  0  0  0  0  0  0  0  0
    4.4872   -7.8581   19.1572 C   0  0  1  0  0  0  0  0  0  0  0  0
    4.7421   -7.5847   20.6717 C   0  0  2  0  0  0  0  0  0  0  0  0
    4.9562   -6.0590   20.8486 C   0  0  2  0  0  0  0  0  0  0  0  0
    5.2178   -5.7685   22.2312 O   0  0  0  0  0  0  0  0  0  0  0  0
    3.6541   -5.3137   20.3456 C   0  0  2  0  0  0  0  0  0  0  0  0
    3.4016   -5.6383   18.9125 O   0  0  0  0  0  0  0  0  0  0  0  0
    3.7604   -3.7968   20.4615 C   0  0  0  0  0  0  0  0  0  0  0  0
    2.4179   -3.1351   20.4239 N   0  0  0  0  0  0  0  0  0  0  0  0
   -1.5412   -9.5970   17.8412 C   0  0  2  0  0  0  0  0  0  0  0  0
   -2.7924   -9.8480   17.1359 N   0  0  0  0  0  0  0  0  0  0  0  0
   -1.6839   -8.3228   18.7750 C   0  0  0  0  0  0  0  0  0  0  0  0
   -0.3328   -8.0514   19.5465 C   0  0  2  0  0  0  0  0  0  0  0  0
   -0.4832   -6.8612   20.4266 N   0  0  0  0  0  0  0  0  0  0  0  0
    0.8387   -7.8522   18.5044 C   0  0  2  0  0  0  0  0  0  0  0  0
    0.9470   -9.1373   17.5913 C   0  0  2  0  0  0  0  0  0  0  0  0
    2.0040   -8.9520   16.6446 O   0  0  0  0  0  0  0  0  0  0  0  0
   -0.4058   -9.3806   16.8194 C   0  0  1  0  0  0  0  0  0  0  0  0
   -0.3074  -10.5717   15.9888 O   0  0  0  0  0  0  0  0  0  0  0  0
   -0.3616  -10.5617   14.5835 C   0  0  2  0  0  0  0  0  0  0  0  0
   -0.5486  -12.0430   14.1103 C   0  0  2  0  0  0  0  0  0  0  0  0
   -1.7293  -12.5547   14.6401 O   0  0  0  0  0  0  0  0  0  0  0  0
    0.6854  -12.9321   14.5218 C   0  0  1  0  0  0  0  0  0  0  0  0
    0.5177  -14.3523   14.0689 N   0  0  0  0  0  0  0  0  0  0  0  0
    1.9880  -12.2940   13.8946 C   0  0  2  0  0  0  0  0  0  0  0  0
    3.1446  -13.0640   14.2287 O   0  0  0  0  0  0  0  0  0  0  0  0
    2.1178  -10.8196   14.4065 C   0  0  2  0  0  0  0  0  0  0  0  0
    0.8988  -10.0158   14.0491 O   0  0  0  0  0  0  0  0  0  0  0  0
    3.3206  -10.1334   13.8268 C   0  0  0  0  0  0  0  0  0  0  0  0
    3.1877   -9.9589   12.4066 O   0  0  0  0  0  0  0  0  0  0  0  0
    4.2861   -9.2915   18.9055 O   0  0  0  0  0  0  0  0  0  0  0  0
    5.8607   -8.2771   21.0803 O   0  0  0  0  0  0  0  0  0  0  0  0
   -5.5820   -7.8669   15.3802 N   0  0  0  0  0  0  0  0  0  0  0  0
   -3.8553  -10.5909   17.6304 C   0  0  0  0  0  0  0  0  0  0  0  0
   -3.8573  -11.1335   18.7298 O   0  0  0  0  0  0  0  0  0  0  0  0
   -5.0329  -10.6731   16.6318 C   0  0  1  0  0  0  0  0  0  0  0  0
   -6.1242   -9.6537   17.0166 C   0  0  0  0  0  0  0  0  0  0  0  0
   -5.7678   -8.1791   16.7958 C   0  0  0  0  0  0  0  0  0  0  0  0
   -4.5395  -10.4218   15.2967 O   0  0  0  0  0  0  0  0  0  0  0  0
  1  2  1  1  0  0  0
  1  3  1  0  0  0  0
  1  8  1  0  0  0  0
  3  4  1  0  0  0  0
  3 32  1  1  0  0  0
  4  5  1  0  0  0  0
  4 33  1  6  0  0  0
  5  6  1  1  0  0  0
  5  7  1  0  0  0  0
  7  8  1  0  0  0  0
  7  9  1  6  0  0  0
  9 10  1  0  0  0  0
 11 12  1  6  0  0  0
 11 13  1  0  0  0  0
 11 19  1  0  0  0  0
 12 35  1  0  0  0  0
 13 14  1  0  0  0  0
 14 15  1  6  0  0  0
 14 16  1  0  0  0  0
 16  2  1  1  0  0  0
 16 17  1  0  0  0  0
 17 18  1  6  0  0  0
 17 19  1  0  0  0  0
 19 20  1  6  0  0  0
 21 20  1  1  0  0  0
 21 22  1  0  0  0  0
 21 29  1  0  0  0  0
 22 23  1  1  0  0  0
 22 24  1  0  0  0  0
 24 25  1  6  0  0  0
 24 26  1  0  0  0  0
 26 27  1  1  0  0  0
 26 28  1  0  0  0  0
 28 29  1  0  0  0  0
 28 30  1  6  0  0  0
 30 31  1  0  0  0  0
 34 39  1  0  0  0  0
 35 36  2  0  0  0  0
 37 35  1  1  0  0  0
 37 38  1  0  0  0  0
 37 40  1  0  0  0  0
 38 39  1  0  0  0  0
M  END
>  <CHROM.1>
-138.27687236,-161.13492117,-86.39182192,-164.57907349,125.71444682,-167.30661606
66.07925719,-99.70026147,70.35222488,64.94513072,0.61060803,-9.09057746,17.29777845
-0.80068051,-0.01762234,-2.32461327

>  <Name>
2g5q_lig

>  <RI>
0

>  <Rbt.Current_Directory>
/home/itssahil/PROJECTS/Mol_Feturizer/New_Systems/rnas/2g5q

>  <Rbt.Executable>
rbdock ($Id: //depot/dev/client3/rdock/2013.1/src/exe/rbdock.cxx#4 $)

>  <Rbt.Library>
libRbt.so (2013.1, Build901 2013/11/27)

>  <Rbt.Parameter_File>
/export/apps/rDock/src/rDock_2013.1_src/data/scripts/dock_solv.prm

>  <Rbt.Receptor>
prm/pocket_docking_2.prm

>  <SCORE>
-17.9486

>  <SCORE.INTER>
-16.9065

>  <SCORE.INTER.CONST>
1

>  <SCORE.INTER.POLAR>
-1.76793

>  <SCORE.INTER.ROT>
10

>  <SCORE.INTER.SOLV>
25.0959

>  <SCORE.INTER.VDW>
-24.0099

>  <SCORE.INTER.norm>
-0.422663

>  <SCORE.INTRA>
-1.07519

>  <SCORE.INTRA.DIHEDRAL>
-3.68884

>  <SCORE.INTRA.DIHEDRAL.0>
22.5778

>  <SCORE.INTRA.POLAR>
0

>  <SCORE.INTRA.POLAR.0>
0

>  <SCORE.INTRA.REPUL>
0

>  <SCORE.INTRA.REPUL.0>
0

>  <SCORE.INTRA.SOLV>
2.09822

>  <SCORE.INTRA.SOLV.lig_0>
-102.332

>  <SCORE.INTRA.VDW>
-0.279879

>  <SCORE.INTRA.VDW.0>
-5.08747

>  <SCORE.INTRA.norm>
-0.0268798

>  <SCORE.RESTR>
0.0330794

>  <SCORE.RESTR.CAVITY>
0.0330794

>  <SCORE.RESTR.norm>
0.000826986

>  <SCORE.SYSTEM>
0

>  <SCORE.SYSTEM.CONST>
0

>  <SCORE.SYSTEM.DIHEDRAL>
0

>  <SCORE.SYSTEM.SOLV>
0

>  <SCORE.SYSTEM.norm>
0

>  <SCORE.heavy>
40

>  <SCORE.norm>
-0.448716

>  <RMSD>
1.301

$$$$
2g5q_lig
 OpenBabel11021811433D
libRbt.so/2013.1/901 2013/11/27
 40 42  0  0  0  0  0  0  0  0999 V2000
    3.5779   -7.2390   18.8253 C   0  0  2  0  0  0  0  0  0  0  0  0
    2.3536   -7.7315   19.3233 O   0  0  0  0  0  0  0  0  0  0  0  0
    4.7454   -7.9847   19.5363 C   0  0  1  0  0  0  0  0  0  0  0  0
    4.8162   -7.6398   21.0560 C   0  0  2  0  0  0  0  0  0  0  0  0
    5.0191   -6.1079   21.1857 C   0  0  2  0  0  0  0  0  0  0  0  0
    5.1126   -5.7521   22.5746 O   0  0  0  0  0  0  0  0  0  0  0  0
    3.7937   -5.3848   20.4930 C   0  0  2  0  0  0  0  0  0  0  0  0
    3.7150   -5.7769   19.0567 O   0  0  0  0  0  0  0  0  0  0  0  0
    3.8969   -3.8644   20.5494 C   0  0  0  0  0  0  0  0  0  0  0  0
    2.6771   -3.1975   19.9934 N   0  0  0  0  0  0  0  0  0  0  0  0
   -0.9713   -9.8433   17.4358 C   0  0  2  0  0  0  0  0  0  0  0  0
   -2.1289  -10.1248   16.5952 N   0  0  0  0  0  0  0  0  0  0  0  0
   -1.2939   -8.6526   18.4328 C   0  0  0  0  0  0  0  0  0  0  0  0
   -0.0447   -8.3491   19.3503 C   0  0  2  0  0  0  0  0  0  0  0  0
   -0.3638   -7.2386   20.2879 N   0  0  0  0  0  0  0  0  0  0  0  0
    1.2019   -7.9973   18.4446 C   0  0  2  0  0  0  0  0  0  0  0  0
    1.4891   -9.2027   17.4640 C   0  0  2  0  0  0  0  0  0  0  0  0
    2.6141   -8.8794   16.6406 O   0  0  0  0  0  0  0  0  0  0  0  0
    0.2363   -9.4784   16.5478 C   0  0  1  0  0  0  0  0  0  0  0  0
    0.4990  -10.5968   15.6542 O   0  0  0  0  0  0  0  0  0  0  0  0
    1.0676  -10.4688   14.3742 C   0  0  2  0  0  0  0  0  0  0  0  0
    0.7949  -11.8049   13.6036 C   0  0  2  0  0  0  0  0  0  0  0  0
   -0.5774  -12.0151   13.5089 O   0  0  0  0  0  0  0  0  0  0  0  0
    1.5041  -13.0230   14.3079 C   0  0  1  0  0  0  0  0  0  0  0  0
    1.2526  -14.3072   13.5745 N   0  0  0  0  0  0  0  0  0  0  0  0
    3.0525  -12.7173   14.3877 C   0  0  2  0  0  0  0  0  0  0  0  0
    3.7533  -13.7944   15.0130 O   0  0  0  0  0  0  0  0  0  0  0  0
    3.2568  -11.3752   15.1685 C   0  0  2  0  0  0  0  0  0  0  0  0
    2.5189  -10.2471   14.5032 O   0  0  0  0  0  0  0  0  0  0  0  0
    4.7075  -10.9998   15.2593 C   0  0  0  0  0  0  0  0  0  0  0  0
    5.2833  -10.8228   13.9547 O   0  0  0  0  0  0  0  0  0  0  0  0
    4.5653   -9.4280   19.3299 O   0  0  0  0  0  0  0  0  0  0  0  0
    5.8713   -8.3142   21.6302 O   0  0  0  0  0  0  0  0  0  0  0  0
   -5.9438  -11.4991   18.6982 N   0  0  0  0  0  0  0  0  0  0  0  0
   -3.1027  -11.0761   16.8657 C   0  0  0  0  0  0  0  0  0  0  0  0
   -3.0934  -11.8022   17.8536 O   0  0  0  0  0  0  0  0  0  0  0  0
   -4.1940  -11.1309   15.7719 C   0  0  1  0  0  0  0  0  0  0  0  0
   -5.4331  -11.8827   16.2988 C   0  0  0  0  0  0  0  0  0  0  0  0
   -6.2846  -11.1280   17.3263 C   0  0  0  0  0  0  0  0  0  0  0  0
   -4.5369   -9.7832   15.3776 O   0  0  0  0  0  0  0  0  0  0  0  0
  1  2  1  1  0  0  0
  1  3  1  0  0  0  0
  1  8  1  0  0  0  0
  3  4  1  0  0  0  0
  3 32  1  1  0  0  0
  4  5  1  0  0  0  0
  4 33  1  6  0  0  0
  5  6  1  1  0  0  0
  5  7  1  0  0  0  0
  7  8  1  0  0  0  0
  7  9  1  6  0  0  0
  9 10  1  0  0  0  0
 11 12  1  6  0  0  0
 11 13  1  0  0  0  0
 11 19  1  0  0  0  0
 12 35  1  0  0  0  0
 13 14  1  0  0  0  0
 14 15  1  1  0  0  0
 14 16  1  0  0  0  0
 16  2  1  1  0  0  0
 16 17  1  0  0  0  0
 17 18  1  6  0  0  0
 17 19  1  0  0  0  0
 19 20  1  6  0  0  0
 21 20  1  1  0  0  0
 21 22  1  0  0  0  0
 21 29  1  0  0  0  0
 22 23  1  1  0  0  0
 22 24  1  0  0  0  0
 24 25  1  6  0  0  0
 24 26  1  0  0  0  0
 26 27  1  1  0  0  0
 26 28  1  0  0  0  0
 28 29  1  0  0  0  0
 28 30  1  6  0  0  0
 30 31  1  0  0  0  0
 34 39  1  0  0  0  0
 35 36  2  0  0  0  0
 37 35  1  1  0  0  0
 37 38  1  0  0  0  0
 37 40  1  0  0  0  0
 38 39  1  0  0  0  0
M  END
>  <CHROM.1>
-138.53955320,-175.19619356,-93.72192960,-172.52707557,150.81929687,-163.75198597
60.25353844,-163.75536533,72.90071924,-96.47269287,1.17697891,-9.47043206
17.40272096,0.80776468,0.08392686,0.81047543

>  <Name>
2g5q_lig

>  <RI>
0

>  <Rbt.Current_Directory>
/home/itssahil/PROJECTS/Mol_Feturizer/New_Systems/rnas/2g5q

>  <Rbt.Executable>
rbdock ($Id: //depot/dev/client3/rdock/2013.1/src/exe/rbdock.cxx#4 $)

>  <Rbt.Library>
libRbt.so (2013.1, Build901 2013/11/27)

>  <Rbt.Parameter_File>
/export/apps/rDock/src/rDock_2013.1_src/data/scripts/dock_solv.prm

>  <Rbt.Receptor>
prm/pocket_docking_3.prm

>  <SCORE>
-13.4352

>  <SCORE.INTER>
-12.1189

>  <SCORE.INTER.CONST>
1

>  <SCORE.INTER.POLAR>
-1.13172

>  <SCORE.INTER.ROT>
10

>  <SCORE.INTER.SOLV>
19.0452

>  <SCORE.INTER.VDW>
-20.922

>  <SCORE.INTER.norm>
-0.302973

>  <SCORE.INTRA>
-1.32408

>  <SCORE.INTRA.DIHEDRAL>
-5.84704

>  <SCORE.INTRA.DIHEDRAL.0>
22.5778

>  <SCORE.INTRA.POLAR>
0

>  <SCORE.INTRA.POLAR.0>
0

>  <SCORE.INTRA.REPUL>
0

>  <SCORE.INTRA.REPUL.0>
0

>  <SCORE.INTRA.SOLV>
1.69262

>  <SCORE.INTRA.SOLV.lig_0>
-102.332

>  <SCORE.INTRA.VDW>
0.753127

>  <SCORE.INTRA.VDW.0>
-5.08747

>  <SCORE.INTRA.norm>
-0.0331021

>  <SCORE.RESTR>
0.00782933

>  <SCORE.RESTR.CAVITY>
0.00782933

>  <SCORE.RESTR.norm>
0.000195733

>  <SCORE.SYSTEM>
0

>  <SCORE.SYSTEM.CONST>
0

>  <SCORE.SYSTEM.DIHEDRAL>
0

>  <SCORE.SYSTEM.SOLV>
0

>  <SCORE.SYSTEM.norm>
0

>  <SCORE.heavy>
40

>  <SCORE.norm>
-0.33588

>  <RMSD>
1.374

$$$$
2g5q_lig
 OpenBabel11021811433D
libRbt.so/2013.1/901 2013/11/27
 40 42  0  0  0  0  0  0  0  0999 V2000
    2.5042   -6.2526   18.8957 C   0  0  2  0  0  0  0  0  0  0  0  0
    1.5785   -7.1262   19.5035 O   0  0  0  0  0  0  0  0  0  0  0  0
    3.9370   -6.6236   19.3795 C   0  0  1  0  0  0  0  0  0  0  0  0
    4.1287   -6.3403   20.9015 C   0  0  2  0  0  0  0  0  0  0  0  0
    3.8722   -4.8294   21.1387 C   0  0  2  0  0  0  0  0  0  0  0  0
    4.0621   -4.5231   22.5295 O   0  0  0  0  0  0  0  0  0  0  0  0
    2.3946   -4.4989   20.6785 C   0  0  2  0  0  0  0  0  0  0  0  0
    2.2225   -4.8330   19.2358 O   0  0  0  0  0  0  0  0  0  0  0  0
    2.0368   -3.0271   20.8553 C   0  0  0  0  0  0  0  0  0  0  0  0
    2.9993   -2.1258   20.1460 N   0  0  0  0  0  0  0  0  0  0  0  0
   -1.2946  -10.0300   17.9575 C   0  0  2  0  0  0  0  0  0  0  0  0
   -2.4414  -10.6014   17.2617 N   0  0  0  0  0  0  0  0  0  0  0  0
   -1.7795   -8.9871   19.0498 C   0  0  0  0  0  0  0  0  0  0  0  0
   -0.5404   -8.3708   19.8110 C   0  0  2  0  0  0  0  0  0  0  0  0
   -1.0090   -7.4032   20.8397 N   0  0  0  0  0  0  0  0  0  0  0  0
    0.4278   -7.6803   18.7700 C   0  0  2  0  0  0  0  0  0  0  0  0
    0.8852   -8.7471   17.6978 C   0  0  2  0  0  0  0  0  0  0  0  0
    1.7566   -8.1182   16.7528 O   0  0  0  0  0  0  0  0  0  0  0  0
   -0.3645   -9.3376   16.9399 C   0  0  1  0  0  0  0  0  0  0  0  0
    0.0586  -10.3288   15.9617 O   0  0  0  0  0  0  0  0  0  0  0  0
    0.3028  -10.0465   14.6056 C   0  0  2  0  0  0  0  0  0  0  0  0
    0.2993  -11.4098   13.8344 C   0  0  2  0  0  0  0  0  0  0  0  0
   -0.9378  -12.0280   13.9887 O   0  0  0  0  0  0  0  0  0  0  0  0
    1.4637  -12.3477   14.3312 C   0  0  1  0  0  0  0  0  0  0  0  0
    1.4716  -13.6547   13.5950 N   0  0  0  0  0  0  0  0  0  0  0  0
    2.8338  -11.5852   14.1339 C   0  0  2  0  0  0  0  0  0  0  0  0
    3.9327  -12.3922   14.5619 O   0  0  0  0  0  0  0  0  0  0  0  0
    2.7736  -10.2370   14.9284 C   0  0  2  0  0  0  0  0  0  0  0  0
    1.6168   -9.3930   14.4707 O   0  0  0  0  0  0  0  0  0  0  0  0
    4.0335   -9.4376   14.7638 C   0  0  0  0  0  0  0  0  0  0  0  0
    3.9843   -8.2225   15.5293 O   0  0  0  0  0  0  0  0  0  0  0  0
    4.1763   -8.0399   19.0713 O   0  0  0  0  0  0  0  0  0  0  0  0
    5.4133   -6.6731   21.2712 O   0  0  0  0  0  0  0  0  0  0  0  0
   -6.0248  -13.5142   16.0981 N   0  0  0  0  0  0  0  0  0  0  0  0
   -3.4385   -9.8727   16.6285 C   0  0  0  0  0  0  0  0  0  0  0  0
   -3.4702   -8.6477   16.5896 O   0  0  0  0  0  0  0  0  0  0  0  0
   -4.5169  -10.7787   15.9906 C   0  0  1  0  0  0  0  0  0  0  0  0
   -5.4807  -11.2980   17.0766 C   0  0  0  0  0  0  0  0  0  0  0  0
   -6.5768  -12.2550   16.5938 C   0  0  0  0  0  0  0  0  0  0  0  0
   -5.2309  -10.0271   14.9833 O   0  0  0  0  0  0  0  0  0  0  0  0
  1  2  1  1  0  0  0
  1  3  1  0  0  0  0
  1  8  1  0  0  0  0
  3  4  1  0  0  0  0
  3 32  1  1  0  0  0
  4  5  1  0  0  0  0
  4 33  1  6  0  0  0
  5  6  1  1  0  0  0
  5  7  1  0  0  0  0
  7  8  1  0  0  0  0
  7  9  1  6  0  0  0
  9 10  1  0  0  0  0
 11 12  1  6  0  0  0
 11 13  1  0  0  0  0
 11 19  1  0  0  0  0
 12 35  1  0  0  0  0
 13 14  1  0  0  0  0
 14 15  1  1  0  0  0
 14 16  1  0  0  0  0
 16  2  1  1  0  0  0
 16 17  1  0  0  0  0
 17 18  1  6  0  0  0
 17 19  1  0  0  0  0
 19 20  1  6  0  0  0
 21 20  1  1  0  0  0
 21 22  1  0  0  0  0
 21 29  1  0  0  0  0
 22 23  1  1  0  0  0
 22 24  1  0  0  0  0
 24 25  1  6  0  0  0
 24 26  1  0  0  0  0
 26 27  1  1  0  0  0
 26 28  1  0  0  0  0
 28 29  1  0  0  0  0
 28 30  1  6  0  0  0
 30 31  1  0  0  0  0
 34 39  1  0  0  0  0
 35 36  2  0  0  0  0
 37 35  1  1  0  0  0
 37 38  1  0  0  0  0
 37 40  1  0  0  0  0
 38 39  1  0  0  0  0
M  END
>  <CHROM.1>
-139.82016526,55.68290971,54.01916318,-168.92293590,146.45897081,-162.97237515
-178.22474876,78.04122838,-177.84220692,65.37395484,0.58930098,-8.77625838
17.42715286,0.90499278,0.16564793,0.79655745

>  <Name>
2g5q_lig

>  <RI>
0

>  <Rbt.Current_Directory>
/home/itssahil/PROJECTS/Mol_Feturizer/New_Systems/rnas/2g5q

>  <Rbt.Executable>
rbdock ($Id: //depot/dev/client3/rdock/2013.1/src/exe/rbdock.cxx#4 $)

>  <Rbt.Library>
libRbt.so (2013.1, Build901 2013/11/27)

>  <Rbt.Parameter_File>
/export/apps/rDock/src/rDock_2013.1_src/data/scripts/dock_solv.prm

>  <Rbt.Receptor>
prm/pocket_docking_3.prm

>  <SCORE>
-12.0067

>  <SCORE.INTER>
-8.55578

>  <SCORE.INTER.CONST>
1

>  <SCORE.INTER.POLAR>
-0.893922

>  <SCORE.INTER.ROT>
10

>  <SCORE.INTER.SOLV>
26.6533

>  <SCORE.INTER.VDW>
-21.8752

>  <SCORE.INTER.norm>
-0.213895

>  <SCORE.INTRA>
-3.45677

>  <SCORE.INTRA.DIHEDRAL>
-9.55428

>  <SCORE.INTRA.DIHEDRAL.0>
22.5778

>  <SCORE.INTRA.POLAR>
0

>  <SCORE.INTRA.POLAR.0>
0

>  <SCORE.INTRA.REPUL>
0

>  <SCORE.INTRA.REPUL.0>
0

>  <SCORE.INTRA.SOLV>
2.24661

>  <SCORE.INTRA.SOLV.lig_0>
-102.332

>  <SCORE.INTRA.VDW>
0.197064

>  <SCORE.INTRA.VDW.0>
-5.08747

>  <SCORE.INTRA.norm>
-0.0864193

>  <SCORE.RESTR>
0.00585786

>  <SCORE.RESTR.CAVITY>
0.00585786

>  <SCORE.RESTR.norm>
0.000146447

>  <SCORE.SYSTEM>
0

>  <SCORE.SYSTEM.CONST>
0

>  <SCORE.SYSTEM.DIHEDRAL>
0

>  <SCORE.SYSTEM.SOLV>
0

>  <SCORE.SYSTEM.norm>
0

>  <SCORE.heavy>
40

>  <SCORE.norm>
-0.300167

>  <RMSD>
1.386

$$$$
2g5q_lig
 OpenBabel11021811433D
libRbt.so/2013.1/901 2013/11/27
 40 42  0  0  0  0  0  0  0  0999 V2000
    3.0066   -7.3271   18.3053 C   0  0  2  0  0  0  0  0  0  0  0  0
    1.9398   -7.9567   18.9798 O   0  0  0  0  0  0  0  0  0  0  0  0
    4.3429   -7.9940   18.7463 C   0  0  1  0  0  0  0  0  0  0  0  0
    4.6619   -7.7197   20.2485 C   0  0  2  0  0  0  0  0  0  0  0  0
    4.7564   -6.1838   20.4405 C   0  0  2  0  0  0  0  0  0  0  0  0
    5.0728   -5.8902   21.8109 O   0  0  0  0  0  0  0  0  0  0  0  0
    3.3688   -5.5458   20.0263 C   0  0  2  0  0  0  0  0  0  0  0  0
    3.0612   -5.8718   18.6043 O   0  0  0  0  0  0  0  0  0  0  0  0
    3.3532   -4.0270   20.1633 C   0  0  0  0  0  0  0  0  0  0  0  0
    3.3655   -3.5921   21.5959 N   0  0  0  0  0  0  0  0  0  0  0  0
   -1.2808  -10.5947   17.6585 C   0  0  2  0  0  0  0  0  0  0  0  0
   -2.4840  -11.0774   16.9914 N   0  0  0  0  0  0  0  0  0  0  0  0
   -1.6348   -9.3841   18.6203 C   0  0  0  0  0  0  0  0  0  0  0  0
   -0.3351   -8.8627   19.3505 C   0  0  2  0  0  0  0  0  0  0  0  0
   -0.6824   -7.7354   20.2575 N   0  0  0  0  0  0  0  0  0  0  0  0
    0.7357   -8.4258   18.2733 C   0  0  2  0  0  0  0  0  0  0  0  0
    1.0589   -9.6541   17.3332 C   0  0  2  0  0  0  0  0  0  0  0  0
    2.0238   -9.2544   16.3548 O   0  0  0  0  0  0  0  0  0  0  0  0
   -0.2479  -10.1483   16.6031 C   0  0  1  0  0  0  0  0  0  0  0  0
    0.0504  -11.2873   15.7475 O   0  0  0  0  0  0  0  0  0  0  0  0
   -0.5012  -11.4803   14.4681 C   0  0  2  0  0  0  0  0  0  0  0  0
   -0.6053  -13.0249   14.2300 C   0  0  2  0  0  0  0  0  0  0  0  0
   -1.4222  -13.5914   15.2037 O   0  0  0  0  0  0  0  0  0  0  0  0
    0.8195  -13.6978   14.2285 C   0  0  1  0  0  0  0  0  0  0  0  0
    0.7307  -15.1771   13.9965 N   0  0  0  0  0  0  0  0  0  0  0  0
    1.6938  -13.0063   13.1083 C   0  0  2  0  0  0  0  0  0  0  0  0
    3.0006  -13.5820   13.0537 O   0  0  0  0  0  0  0  0  0  0  0  0
    1.7600  -11.4699   13.4042 C   0  0  2  0  0  0  0  0  0  0  0  0
    0.3820  -10.8715   13.4575 O   0  0  0  0  0  0  0  0  0  0  0  0
    2.5516  -10.7361   12.3608 C   0  0  0  0  0  0  0  0  0  0  0  0
    2.8243   -9.3851   12.7672 O   0  0  0  0  0  0  0  0  0  0  0  0
    4.2492   -9.4358   18.4807 O   0  0  0  0  0  0  0  0  0  0  0  0
    5.8569   -8.3194   20.5799 O   0  0  0  0  0  0  0  0  0  0  0  0
   -8.2122   -9.9767   14.8952 N   0  0  0  0  0  0  0  0  0  0  0  0
   -3.4355  -10.2754   16.3770 C   0  0  0  0  0  0  0  0  0  0  0  0
   -3.3728   -9.0517   16.3327 O   0  0  0  0  0  0  0  0  0  0  0  0
   -4.5953  -11.0967   15.7679 C   0  0  1  0  0  0  0  0  0  0  0  0
   -5.8389  -10.2026   15.5887 C   0  0  0  0  0  0  0  0  0  0  0  0
   -7.0828  -10.8957   15.0207 C   0  0  0  0  0  0  0  0  0  0  0  0
   -4.1699  -11.6492   14.5018 O   0  0  0  0  0  0  0  0  0  0  0  0
  1  2  1  1  0  0  0
  1  3  1  0  0  0  0
  1  8  1  0  0  0  0
  3  4  1  0  0  0  0
  3 32  1  1  0  0  0
  4  5  1  0  0  0  0
  4 33  1  6  0  0  0
  5  6  1  1  0  0  0
  5  7  1  0  0  0  0
  7  8  1  0  0  0  0
  7  9  1  6  0  0  0
  9 10  1  0  0  0  0
 11 12  1  6  0  0  0
 11 13  1  0  0  0  0
 11 19  1  0  0  0  0
 12 35  1  0  0  0  0
 13 14  1  0  0  0  0
 14 15  1  1  0  0  0
 14 16  1  0  0  0  0
 16  2  1  1  0  0  0
 16 17  1  0  0  0  0
 17 18  1  6  0  0  0
 17 19  1  0  0  0  0
 19 20  1  6  0  0  0
 21 20  1  1  0  0  0
 21 22  1  0  0  0  0
 21 29  1  0  0  0  0
 22 23  1  1  0  0  0
 22 24  1  0  0  0  0
 24 25  1  6  0  0  0
 24 26  1  0  0  0  0
 26 27  1  1  0  0  0
 26 28  1  0  0  0  0
 28 29  1  0  0  0  0
 28 30  1  6  0  0  0
 30 31  1  0  0  0  0
 34 39  1  0  0  0  0
 35 36  2  0  0  0  0
 37 35  1  6  0  0  0
 37 38  1  0  0  0  0
 37 40  1  0  0  0  0
 38 39  1  0  0  0  0
M  END
>  <CHROM.1>
-131.33859862,-70.46997601,46.73385558,-171.09791156,100.57207239,-149.36880178
-168.93452395,158.62401316,-178.66052630,179.56723545,0.51007847,-9.63360643
16.83431548,-0.84942769,-0.00640811,-2.33841486

>  <Name>
2g5q_lig

>  <RI>
0

>  <Rbt.Current_Directory>
/home/itssahil/PROJECTS/Mol_Feturizer/New_Systems/rnas/2g5q

>  <Rbt.Executable>
rbdock ($Id: //depot/dev/client3/rdock/2013.1/src/exe/rbdock.cxx#4 $)

>  <Rbt.Library>
libRbt.so (2013.1, Build901 2013/11/27)

>  <Rbt.Parameter_File>
/export/apps/rDock/src/rDock_2013.1_src/data/scripts/dock_solv.prm

>  <Rbt.Receptor>
prm/pocket_docking_3.prm

>  <SCORE>
-20.7869

>  <SCORE.INTER>
-19.3252

>  <SCORE.INTER.CONST>
1

>  <SCORE.INTER.POLAR>
-1.423

>  <SCORE.INTER.ROT>
10

>  <SCORE.INTER.SOLV>
19.914

>  <SCORE.INTER.VDW>
-25.0448

>  <SCORE.INTER.norm>
-0.483129

>  <SCORE.INTRA>
-1.46173

>  <SCORE.INTRA.DIHEDRAL>
-4.1752

>  <SCORE.INTRA.DIHEDRAL.0>
22.5778

>  <SCORE.INTRA.POLAR>
0

>  <SCORE.INTRA.POLAR.0>
0

>  <SCORE.INTRA.REPUL>
0

>  <SCORE.INTRA.REPUL.0>
0

>  <SCORE.INTRA.SOLV>
0.520329

>  <SCORE.INTRA.SOLV.lig_0>
-102.332

>  <SCORE.INTRA.VDW>
0.365704

>  <SCORE.INTRA.VDW.0>
-5.08747

>  <SCORE.INTRA.norm>
-0.0365432

>  <SCORE.RESTR>
0

>  <SCORE.RESTR.CAVITY>
0

>  <SCORE.RESTR.norm>
0

>  <SCORE.SYSTEM>
0

>  <SCORE.SYSTEM.CONST>
0

>  <SCORE.SYSTEM.DIHEDRAL>
0

>  <SCORE.SYSTEM.SOLV>
0

>  <SCORE.SYSTEM.norm>
0

>  <SCORE.heavy>
40

>  <SCORE.norm>
-0.519673

>  <RMSD>
1.391

$$$$
2g5q_lig
 OpenBabel11021811433D
libRbt.so/2013.1/901 2013/11/27
 40 42  0  0  0  0  0  0  0  0999 V2000
    3.8568   -7.4667   18.8290 C   0  0  2  0  0  0  0  0  0  0  0  0
    2.7155   -8.1467   19.3027 O   0  0  0  0  0  0  0  0  0  0  0  0
    5.0894   -7.9064   19.6729 C   0  0  1  0  0  0  0  0  0  0  0  0
    4.9810   -7.4284   21.1539 C   0  0  2  0  0  0  0  0  0  0  0  0
    4.8781   -5.8810   21.1464 C   0  0  2  0  0  0  0  0  0  0  0  0
    4.7996   -5.3990   22.4976 O   0  0  0  0  0  0  0  0  0  0  0  0
    3.5919   -5.4733   20.3197 C   0  0  2  0  0  0  0  0  0  0  0  0
    3.6954   -5.9920   18.9257 O   0  0  0  0  0  0  0  0  0  0  0  0
    3.3991   -3.9630   20.2350 C   0  0  0  0  0  0  0  0  0  0  0  0
    2.9207   -3.3842   21.5303 N   0  0  0  0  0  0  0  0  0  0  0  0
   -1.2166   -9.4697   17.9368 C   0  0  2  0  0  0  0  0  0  0  0  0
   -2.4808   -9.5222   17.2123 N   0  0  0  0  0  0  0  0  0  0  0  0
   -1.1121   -8.1182   18.7604 C   0  0  0  0  0  0  0  0  0  0  0  0
    0.2530   -8.0603   19.5526 C   0  0  2  0  0  0  0  0  0  0  0  0
    0.3337   -6.7937   20.3293 N   0  0  0  0  0  0  0  0  0  0  0  0
    1.4576   -8.1909   18.5378 C   0  0  2  0  0  0  0  0  0  0  0  0
    1.3168   -9.5443   17.7346 C   0  0  2  0  0  0  0  0  0  0  0  0
    2.4050   -9.6573   16.8120 O   0  0  0  0  0  0  0  0  0  0  0  0
   -0.0441   -9.5745   16.9396 C   0  0  1  0  0  0  0  0  0  0  0  0
   -0.1768  -10.8272   16.2107 O   0  0  0  0  0  0  0  0  0  0  0  0
   -0.7550  -10.9408   14.9335 C   0  0  2  0  0  0  0  0  0  0  0  0
   -0.9876  -12.4649   14.6574 C   0  0  2  0  0  0  0  0  0  0  0  0
   -1.8385  -12.9883   15.6262 O   0  0  0  0  0  0  0  0  0  0  0  0
    0.3771  -13.2516   14.6218 C   0  0  1  0  0  0  0  0  0  0  0  0
    0.1650  -14.7122   14.3533 N   0  0  0  0  0  0  0  0  0  0  0  0
    1.2940  -12.6047   13.5092 C   0  0  2  0  0  0  0  0  0  0  0  0
    2.5487  -13.2836   13.4243 O   0  0  0  0  0  0  0  0  0  0  0  0
    1.4889  -11.0871   13.8431 C   0  0  2  0  0  0  0  0  0  0  0  0
    0.1651  -10.3798   13.9282 O   0  0  0  0  0  0  0  0  0  0  0  0
    2.3276  -10.3932   12.8093 C   0  0  0  0  0  0  0  0  0  0  0  0
    3.6891  -10.8512   12.8489 O   0  0  0  0  0  0  0  0  0  0  0  0
    5.2033   -9.3691   19.5967 O   0  0  0  0  0  0  0  0  0  0  0  0
    6.1000   -7.8319   21.8485 O   0  0  0  0  0  0  0  0  0  0  0  0
   -6.1114   -6.7789   16.2873 N   0  0  0  0  0  0  0  0  0  0  0  0
   -3.7325   -9.6639   17.7949 C   0  0  0  0  0  0  0  0  0  0  0  0
   -3.9165   -9.7699   19.0024 O   0  0  0  0  0  0  0  0  0  0  0  0
   -4.8707   -9.6907   16.7488 C   0  0  1  0  0  0  0  0  0  0  0  0
   -6.1382   -9.0321   17.3300 C   0  0  0  0  0  0  0  0  0  0  0  0
   -6.0625   -7.5165   17.5481 C   0  0  0  0  0  0  0  0  0  0  0  0
   -4.4326   -9.0033   15.5551 O   0  0  0  0  0  0  0  0  0  0  0  0
  1  2  1  1  0  0  0
  1  3  1  0  0  0  0
  1  8  1  0  0  0  0
  3  4  1  0  0  0  0
  3 32  1  1  0  0  0
  4  5  1  0  0  0  0
  4 33  1  1  0  0  0
  5  6  1  1  0  0  0
  5  7  1  0  0  0  0
  7  8  1  0  0  0  0
  7  9  1  6  0  0  0
  9 10  1  0  0  0  0
 11 12  1  6  0  0  0
 11 13  1  0  0  0  0
 11 19  1  0  0  0  0
 12 35  1  0  0  0  0
 13 14  1  0  0  0  0
 14 15  1  6  0  0  0
 14 16  1  0  0  0  0
 16  2  1  1  0  0  0
 16 17  1  0  0  0  0
 17 18  1  6  0  0  0
 17 19  1  0  0  0  0
 19 20  1  1  0  0  0
 21 20  1  1  0  0  0
 21 22  1  0  0  0  0
 21 29  1  0  0  0  0
 22 23  1  1  0  0  0
 22 24  1  0  0  0  0
 24 25  1  6  0  0  0
 24 26  1  0  0  0  0
 26 27  1  1  0  0  0
 26 28  1  0  0  0  0
 28 29  1  0  0  0  0
 28 30  1  6  0  0  0
 30 31  1  0  0  0  0
 34 39  1  0  0  0  0
 35 36  2  0  0  0  0
 37 35  1  1  0  0  0
 37 38  1  0  0  0  0
 37 40  1  0  0  0  0
 38 39  1  0  0  0  0
M  END
>  <CHROM.1>
-165.86815988,-73.84091903,-69.27796549,-141.03459345,97.61752558,-167.65141336
-68.32474952,-146.61599890,69.30170615,72.92666391,0.67064524,-9.07094119
17.48965314,-0.83837178,0.06672399,-2.34168185

>  <Name>
2g5q_lig

>  <RI>
0

>  <Rbt.Current_Directory>
/home/itssahil/PROJECTS/Mol_Feturizer/New_Systems/rnas/2g5q

>  <Rbt.Executable>
rbdock ($Id: //depot/dev/client3/rdock/2013.1/src/exe/rbdock.cxx#4 $)

>  <Rbt.Library>
libRbt.so (2013.1, Build901 2013/11/27)

>  <Rbt.Parameter_File>
/export/apps/rDock/src/rDock_2013.1_src/data/scripts/dock_solv.prm

>  <Rbt.Receptor>
prm/pocket_docking_3.prm

>  <SCORE>
-22.4078

>  <SCORE.INTER>
-20.6549

>  <SCORE.INTER.CONST>
1

>  <SCORE.INTER.POLAR>
-1.74326

>  <SCORE.INTER.ROT>
10

>  <SCORE.INTER.SOLV>
20.1198

>  <SCORE.INTER.VDW>
-24.9323

>  <SCORE.INTER.norm>
-0.516372

>  <SCORE.INTRA>
-1.75297

>  <SCORE.INTRA.DIHEDRAL>
-7.00554

>  <SCORE.INTRA.DIHEDRAL.0>
22.5778

>  <SCORE.INTRA.POLAR>
0

>  <SCORE.INTRA.POLAR.0>
0

>  <SCORE.INTRA.REPUL>
0

>  <SCORE.INTRA.REPUL.0>
0

>  <SCORE.INTRA.SOLV>
3.17875

>  <SCORE.INTRA.SOLV.lig_0>
-102.332

>  <SCORE.INTRA.VDW>
0.160418

>  <SCORE.INTRA.VDW.0>
-5.08747

>  <SCORE.INTRA.norm>
-0.0438244

>  <SCORE.RESTR>
0

>  <SCORE.RESTR.CAVITY>
0

>  <SCORE.RESTR.norm>
0

>  <SCORE.SYSTEM>
0

>  <SCORE.SYSTEM.CONST>
0

>  <SCORE.SYSTEM.DIHEDRAL>
0

>  <SCORE.SYSTEM.SOLV>
0

>  <SCORE.SYSTEM.norm>
0

>  <SCORE.heavy>
40

>  <SCORE.norm>
-0.560196

>  <RMSD>
1.395

$$$$
2g5q_lig
 OpenBabel11021811433D
libRbt.so/2013.1/901 2013/11/27
 40 42  0  0  0  0  0  0  0  0999 V2000
    3.9941   -7.4676   18.8820 C   0  0  2  0  0  0  0  0  0  0  0  0
    2.8141   -8.1117   19.3088 O   0  0  0  0  0  0  0  0  0  0  0  0
    5.1745   -7.9326   19.7850 C   0  0  1  0  0  0  0  0  0  0  0  0
    5.0122   -7.4376   21.2554 C   0  0  2  0  0  0  0  0  0  0  0  0
    4.9526   -5.8881   21.2303 C   0  0  2  0  0  0  0  0  0  0  0  0
    4.8260   -5.3911   22.5725 O   0  0  0  0  0  0  0  0  0  0  0  0
    3.7170   -5.4535   20.3424 C   0  0  2  0  0  0  0  0  0  0  0  0
    3.8693   -5.9882   18.9590 O   0  0  0  0  0  0  0  0  0  0  0  0
    3.5700   -3.9393   20.2363 C   0  0  0  0  0  0  0  0  0  0  0  0
    3.2063   -3.3169   21.5485 N   0  0  0  0  0  0  0  0  0  0  0  0
   -1.2665   -8.9461   17.9936 C   0  0  2  0  0  0  0  0  0  0  0  0
   -2.5396   -8.8394   17.2910 N   0  0  0  0  0  0  0  0  0  0  0  0
   -0.9923   -7.6298   18.8350 C   0  0  0  0  0  0  0  0  0  0  0  0
    0.3827   -7.7441   19.6037 C   0  0  2  0  0  0  0  0  0  0  0  0
    0.6226   -6.5086   20.3974 N   0  0  0  0  0  0  0  0  0  0  0  0
    1.5476   -7.9967   18.5658 C   0  0  2  0  0  0  0  0  0  0  0  0
    1.2375   -9.3111   17.7454 C   0  0  2  0  0  0  0  0  0  0  0  0
    2.2903   -9.5343   16.8021 O   0  0  0  0  0  0  0  0  0  0  0  0
   -0.1302   -9.1698   16.9744 C   0  0  1  0  0  0  0  0  0  0  0  0
   -0.4194  -10.3863   16.2295 O   0  0  0  0  0  0  0  0  0  0  0  0
   -0.9654  -10.4083   14.9335 C   0  0  2  0  0  0  0  0  0  0  0  0
   -1.4800  -11.8632   14.6656 C   0  0  2  0  0  0  0  0  0  0  0  0
   -2.4483  -12.1948   15.6083 O   0  0  0  0  0  0  0  0  0  0  0  0
   -0.2934  -12.8996   14.6880 C   0  0  1  0  0  0  0  0  0  0  0  0
   -0.7757  -14.2960   14.4277 N   0  0  0  0  0  0  0  0  0  0  0  0
    0.7685  -12.4621   13.6025 C   0  0  2  0  0  0  0  0  0  0  0  0
    1.8696  -13.3723   13.5706 O   0  0  0  0  0  0  0  0  0  0  0  0
    1.2427  -11.0052   13.9270 C   0  0  2  0  0  0  0  0  0  0  0  0
    0.0793  -10.0537   13.9563 O   0  0  0  0  0  0  0  0  0  0  0  0
    2.2344  -10.5051   12.9170 C   0  0  0  0  0  0  0  0  0  0  0  0
    2.6601   -9.1670   13.2221 O   0  0  0  0  0  0  0  0  0  0  0  0
    5.2513   -9.3984   19.7264 O   0  0  0  0  0  0  0  0  0  0  0  0
    6.0868   -7.8646   22.0038 O   0  0  0  0  0  0  0  0  0  0  0  0
   -7.8143   -7.7913   16.1970 N   0  0  0  0  0  0  0  0  0  0  0  0
   -3.7881   -9.0506   17.8591 C   0  0  0  0  0  0  0  0  0  0  0  0
   -3.9615   -9.3628   19.0321 O   0  0  0  0  0  0  0  0  0  0  0  0
   -4.9381   -8.8652   16.8425 C   0  0  1  0  0  0  0  0  0  0  0  0
   -5.4614   -7.4155   16.8951 C   0  0  0  0  0  0  0  0  0  0  0  0
   -6.5769   -7.0722   15.9011 C   0  0  0  0  0  0  0  0  0  0  0  0
   -4.4574   -9.1928   15.5193 O   0  0  0  0  0  0  0  0  0  0  0  0
  1  2  1  1  0  0  0
  1  3  1  0  0  0  0
  1  8  1  0  0  0  0
  3  4  1  0  0  0  0
  3 32  1  1  0  0  0
  4  5  1  0  0  0  0
  4 33  1  1  0  0  0
  5  6  1  1  0  0  0
  5  7  1  0  0  0  0
  7  8  1  0  0  0  0
  7  9  1  6  0  0  0
  9 10  1  0  0  0  0
 11 12  1  6  0  0  0
 11 13  1  0  0  0  0
 11 19  1  0  0  0  0
 12 35  1  0  0  0  0
 13 14  1  0  0  0  0
 14 15  1  6  0  0  0
 14 16  1  0  0  0  0
 16  2  1  1  0  0  0
 16 17  1  0  0  0  0
 17 18  1  6  0  0  0
 17 19  1  0  0  0  0
 19 20  1  1  0  0  0
 21 20  1  1  0  0  0
 21 22  1  0  0  0  0
 21 29  1  0  0  0  0
 22 23  1  1  0  0  0
 22 24  1  0  0  0  0
 24 25  1  6  0  0  0
 24 26  1  0  0  0  0
 26 27  1  1  0  0  0
 26 28  1  0  0  0  0
 28 29  1  0  0  0  0
 28 30  1  6  0  0  0
 30 31  1  0  0  0  0
 34 39  1  0  0  0  0
 35 36  2  0  0  0  0
 37 35  1  1  0  0  0
 37 38  1  0  0  0  0
 37 40  1  0  0  0  0
 38 39  1  0  0  0  0
M  END
>  <CHROM.1>
-173.20680838,-67.06175916,-79.85614080,-135.64997292,100.95291571,-164.57813577
179.84824274,-92.99335348,177.97390531,66.60660396,0.51545040,-8.79263758
17.49468284,-0.73939667,0.12741722,-2.34371341

>  <Name>
2g5q_lig

>  <RI>
9.52566e+06

>  <Rbt.Current_Directory>
/home/itssahil/PROJECTS/Mol_Feturizer/New_Systems/rnas/2g5q

>  <Rbt.Executable>
rbdock ($Id: //depot/dev/client3/rdock/2013.1/src/exe/rbdock.cxx#4 $)

>  <Rbt.Library>
libRbt.so (2013.1, Build901 2013/11/27)

>  <Rbt.Parameter_File>
/export/apps/rDock/src/rDock_2013.1_src/data/scripts/dock_solv.prm

>  <Rbt.Receptor>
prm/pocket_docking_4.prm

>  <SCORE>
-31.6195

>  <SCORE.INTER>
-28.7992

>  <SCORE.INTER.CONST>
1

>  <SCORE.INTER.POLAR>
-2.64528

>  <SCORE.INTER.ROT>
10

>  <SCORE.INTER.SOLV>
21.6718

>  <SCORE.INTER.VDW>
-27.8724

>  <SCORE.INTER.norm>
-0.719979

>  <SCORE.INTRA>
-2.82033

>  <SCORE.INTRA.DIHEDRAL>
-7.23413

>  <SCORE.INTRA.DIHEDRAL.0>
22.5778

>  <SCORE.INTRA.POLAR>
0

>  <SCORE.INTRA.POLAR.0>
0

>  <SCORE.INTRA.REPUL>
0

>  <SCORE.INTRA.REPUL.0>
0

>  <SCORE.INTRA.SOLV>
2.94499

>  <SCORE.INTRA.SOLV.lig_0>
-102.332

>  <SCORE.INTRA.VDW>
-0.675769

>  <SCORE.INTRA.VDW.0>
-5.08747

>  <SCORE.INTRA.norm>
-0.0705084

>  <SCORE.RESTR>
0

>  <SCORE.RESTR.CAVITY>
0

>  <SCORE.RESTR.norm>
0

>  <SCORE.SYSTEM>
0

>  <SCORE.SYSTEM.CONST>
0

>  <SCORE.SYSTEM.DIHEDRAL>
0

>  <SCORE.SYSTEM.SOLV>
0

>  <SCORE.SYSTEM.norm>
0

>  <SCORE.heavy>
40

>  <SCORE.norm>
-0.790488

>  <RMSD>
1.418

$$$$
2g5q_lig
 OpenBabel11021811433D
libRbt.so/2013.1/901 2013/11/27
 40 42  0  0  0  0  0  0  0  0999 V2000
    3.7131   -7.0427   19.0157 C   0  0  2  0  0  0  0  0  0  0  0  0
    2.5029   -7.5602   19.5228 O   0  0  0  0  0  0  0  0  0  0  0  0
    4.8971   -7.6523   19.8227 C   0  0  1  0  0  0  0  0  0  0  0  0
    4.8992   -7.1702   21.3063 C   0  0  2  0  0  0  0  0  0  0  0  0
    5.0115   -5.6235   21.3021 C   0  0  2  0  0  0  0  0  0  0  0  0
    5.0400   -5.1409   22.6551 O   0  0  0  0  0  0  0  0  0  0  0  0
    3.7705   -5.0382   20.5138 C   0  0  2  0  0  0  0  0  0  0  0  0
    3.7603   -5.5603   19.1174 O   0  0  0  0  0  0  0  0  0  0  0  0
    3.7863   -3.5153   20.4351 C   0  0  0  0  0  0  0  0  0  0  0  0
    2.4268   -2.9530   20.1568 N   0  0  0  0  0  0  0  0  0  0  0  0
   -1.2461   -9.0559   17.8540 C   0  0  2  0  0  0  0  0  0  0  0  0
   -2.4784   -9.1335   17.0786 N   0  0  0  0  0  0  0  0  0  0  0  0
   -1.2932   -7.8110   18.8358 C   0  0  0  0  0  0  0  0  0  0  0  0
    0.0371   -7.7273   19.6830 C   0  0  2  0  0  0  0  0  0  0  0  0
   -0.0243   -6.5628   20.6071 N   0  0  0  0  0  0  0  0  0  0  0  0
    1.2773   -7.6240   18.7086 C   0  0  2  0  0  0  0  0  0  0  0  0
    1.2878   -8.8766   17.7454 C   0  0  2  0  0  0  0  0  0  0  0  0
    2.4078   -8.7777   16.8600 O   0  0  0  0  0  0  0  0  0  0  0  0
   -0.0409   -8.9323   16.8989 C   0  0  1  0  0  0  0  0  0  0  0  0
   -0.0339  -10.0936   16.0217 O   0  0  0  0  0  0  0  0  0  0  0  0
   -0.0341  -10.0228   14.6170 C   0  0  2  0  0  0  0  0  0  0  0  0
   -0.2800  -11.4712   14.0740 C   0  0  2  0  0  0  0  0  0  0  0  0
   -1.5050  -11.9401   14.5387 O   0  0  0  0  0  0  0  0  0  0  0  0
    0.8895  -12.4414   14.4906 C   0  0  1  0  0  0  0  0  0  0  0  0
    0.6653  -13.8307   13.9711 N   0  0  0  0  0  0  0  0  0  0  0  0
    2.2465  -11.8488   13.9384 C   0  0  2  0  0  0  0  0  0  0  0  0
    3.3478  -12.6929   14.2801 O   0  0  0  0  0  0  0  0  0  0  0  0
    2.4335  -10.4059   14.5178 C   0  0  2  0  0  0  0  0  0  0  0  0
    1.2724   -9.5238   14.1520 O   0  0  0  0  0  0  0  0  0  0  0  0
    3.6915   -9.7619   14.0115 C   0  0  0  0  0  0  0  0  0  0  0  0
    3.6910   -9.6722   12.5773 O   0  0  0  0  0  0  0  0  0  0  0  0
    4.8050   -9.1163   19.7430 O   0  0  0  0  0  0  0  0  0  0  0  0
    5.9714   -7.7276   21.9675 O   0  0  0  0  0  0  0  0  0  0  0  0
   -6.0170   -7.5435   18.5863 N   0  0  0  0  0  0  0  0  0  0  0  0
   -3.7378   -9.3945   17.6003 C   0  0  0  0  0  0  0  0  0  0  0  0
   -3.9563   -9.5995   18.7892 O   0  0  0  0  0  0  0  0  0  0  0  0
   -4.8350   -9.4153   16.5111 C   0  0  1  0  0  0  0  0  0  0  0  0
   -5.3368   -7.9827   16.2391 C   0  0  0  0  0  0  0  0  0  0  0  0
   -6.4269   -7.4665   17.1856 C   0  0  0  0  0  0  0  0  0  0  0  0
   -4.2971  -10.0108   15.3089 O   0  0  0  0  0  0  0  0  0  0  0  0
  1  2  1  1  0  0  0
  1  3  1  0  0  0  0
  1  8  1  0  0  0  0
  3  4  1  0  0  0  0
  3 32  1  1  0  0  0
  4  5  1  0  0  0  0
  4 33  1  1  0  0  0
  5  6  1  1  0  0  0
  5  7  1  0  0  0  0
  7  8  1  0  0  0  0
  7  9  1  6  0  0  0
  9 10  1  0  0  0  0
 11 12  1  6  0  0  0
 11 13  1  0  0  0  0
 11 19  1  0  0  0  0
 12 35  1  0  0  0  0
 13 14  1  0  0  0  0
 14 15  1  1  0  0  0
 14 16  1  0  0  0  0
 16  2  1  1  0  0  0
 16 17  1  0  0  0  0
 17 18  1  6  0  0  0
 17 19  1  0  0  0  0
 19 20  1  6  0  0  0
 21 20  1  1  0  0  0
 21 22  1  0  0  0  0
 21 29  1  0  0  0  0
 22 23  1  1  0  0  0
 22 24  1  0  0  0  0
 24 25  1  6  0  0  0
 24 26  1  0  0  0  0
 26 27  1  1  0  0  0
 26 28  1  0  0  0  0
 28 29  1  0  0  0  0
 28 30  1  6  0  0  0
 30 31  1  0  0  0  0
 34 39  1  0  0  0  0
 35 36  2  0  0  0  0
 37 35  1  1  0  0  0
 37 38  1  0  0  0  0
 37 40  1  0  0  0  0
 38 39  1  0  0  0  0
M  END
>  <CHROM.1>
-155.70933646,-159.07762825,-66.00857277,-159.15858614,124.62198029,-170.19244668
58.95902702,-84.94833203,-84.29859532,55.54416020,0.84739137,-8.60498130
17.52155149,-0.79507164,0.02879951,-2.28637639

>  <Name>
2g5q_lig

>  <RI>
0

>  <Rbt.Current_Directory>
/home/itssahil/PROJECTS/Mol_Feturizer/New_Systems/rnas/2g5q

>  <Rbt.Executable>
rbdock ($Id: //depot/dev/client3/rdock/2013.1/src/exe/rbdock.cxx#4 $)

>  <Rbt.Library>
libRbt.so (2013.1, Build901 2013/11/27)

>  <Rbt.Parameter_File>
/export/apps/rDock/src/rDock_2013.1_src/data/scripts/dock_solv.prm

>  <Rbt.Receptor>
prm/pocket_docking_3.prm

>  <SCORE>
-17.5854

>  <SCORE.INTER>
-15.9416

>  <SCORE.INTER.CONST>
1

>  <SCORE.INTER.POLAR>
-1.04719

>  <SCORE.INTER.ROT>
10

>  <SCORE.INTER.SOLV>
22.8157

>  <SCORE.INTER.VDW>
-25.009

>  <SCORE.INTER.norm>
-0.398541

>  <SCORE.INTRA>
-1.64407

>  <SCORE.INTRA.DIHEDRAL>
-5.7862

>  <SCORE.INTRA.DIHEDRAL.0>
22.5778

>  <SCORE.INTRA.POLAR>
0

>  <SCORE.INTRA.POLAR.0>
0

>  <SCORE.INTRA.REPUL>
0.108871

>  <SCORE.INTRA.REPUL.0>
0

>  <SCORE.INTRA.SOLV>
2.29971

>  <SCORE.INTRA.SOLV.lig_0>
-102.332

>  <SCORE.INTRA.VDW>
-0.445175

>  <SCORE.INTRA.VDW.0>
-5.08747

>  <SCORE.INTRA.norm>
-0.0411017

>  <SCORE.RESTR>
0.00026369

>  <SCORE.RESTR.CAVITY>
0.00026369

>  <SCORE.RESTR.norm>
6.59225e-06

>  <SCORE.SYSTEM>
0

>  <SCORE.SYSTEM.CONST>
0

>  <SCORE.SYSTEM.DIHEDRAL>
0

>  <SCORE.SYSTEM.SOLV>
0

>  <SCORE.SYSTEM.norm>
0

>  <SCORE.heavy>
40

>  <SCORE.norm>
-0.439636

>  <RMSD>
1.425

$$$$
2g5q_lig
 OpenBabel11021811433D
libRbt.so/2013.1/901 2013/11/27
 40 42  0  0  0  0  0  0  0  0999 V2000
    3.1158   -7.3175   18.5644 C   0  0  2  0  0  0  0  0  0  0  0  0
    1.9855   -7.7870   19.2655 O   0  0  0  0  0  0  0  0  0  0  0  0
    4.3665   -8.1167   19.0354 C   0  0  1  0  0  0  0  0  0  0  0  0
    4.7224   -7.8158   20.5242 C   0  0  2  0  0  0  0  0  0  0  0  0
    4.9974   -6.2946   20.6479 C   0  0  2  0  0  0  0  0  0  0  0  0
    5.3524   -5.9800   22.0041 O   0  0  0  0  0  0  0  0  0  0  0  0
    3.6925   -5.5169   20.2049 C   0  0  2  0  0  0  0  0  0  0  0  0
    3.3422   -5.8670   18.7986 O   0  0  0  0  0  0  0  0  0  0  0  0
    3.8559   -4.0023   20.2744 C   0  0  0  0  0  0  0  0  0  0  0  0
    2.5390   -3.3001   20.3938 N   0  0  0  0  0  0  0  0  0  0  0  0
   -1.4550  -10.1437   17.9669 C   0  0  2  0  0  0  0  0  0  0  0  0
   -2.7065  -10.5187   17.3197 N   0  0  0  0  0  0  0  0  0  0  0  0
   -1.6941   -8.9336   18.9641 C   0  0  0  0  0  0  0  0  0  0  0  0
   -0.3420   -8.5288   19.6729 C   0  0  2  0  0  0  0  0  0  0  0  0
   -0.5820   -7.4008   20.6132 N   0  0  0  0  0  0  0  0  0  0  0  0
    0.7333   -8.1475   18.5791 C   0  0  2  0  0  0  0  0  0  0  0  0
    0.9408   -9.3735   17.6041 C   0  0  2  0  0  0  0  0  0  0  0  0
    1.9100   -9.0237   16.6109 O   0  0  0  0  0  0  0  0  0  0  0  0
   -0.4162   -9.7507   16.8962 C   0  0  1  0  0  0  0  0  0  0  0  0
   -0.2249  -10.8878   16.0081 O   0  0  0  0  0  0  0  0  0  0  0  0
   -0.2722  -10.8110   14.6046 C   0  0  2  0  0  0  0  0  0  0  0  0
   -0.3085  -12.2773   14.0551 C   0  0  2  0  0  0  0  0  0  0  0  0
   -1.4353  -12.9299   14.5460 O   0  0  0  0  0  0  0  0  0  0  0  0
    1.0056  -13.0597   14.4340 C   0  0  1  0  0  0  0  0  0  0  0  0
    0.9824  -14.4644   13.9081 N   0  0  0  0  0  0  0  0  0  0  0  0
    2.2416  -12.2644   13.8536 C   0  0  2  0  0  0  0  0  0  0  0  0
    3.4672  -12.9322   14.1603 O   0  0  0  0  0  0  0  0  0  0  0  0
    2.2215  -10.8126   14.4407 C   0  0  2  0  0  0  0  0  0  0  0  0
    0.9305  -10.1162   14.1117 O   0  0  0  0  0  0  0  0  0  0  0  0
    3.3531   -9.9818   13.9090 C   0  0  0  0  0  0  0  0  0  0  0  0
    3.1631   -9.6696   12.5193 O   0  0  0  0  0  0  0  0  0  0  0  0
    4.1029   -9.5478   18.8340 O   0  0  0  0  0  0  0  0  0  0  0  0
    5.8402   -8.5366   20.8826 O   0  0  0  0  0  0  0  0  0  0  0  0
   -7.4330   -7.5011   16.5344 N   0  0  0  0  0  0  0  0  0  0  0  0
   -3.5875   -9.6375   16.7086 C   0  0  0  0  0  0  0  0  0  0  0  0
   -3.4120   -8.4254   16.6509 O   0  0  0  0  0  0  0  0  0  0  0  0
   -4.8263  -10.3531   16.1224 C   0  0  1  0  0  0  0  0  0  0  0  0
   -5.9211   -9.3215   15.7827 C   0  0  0  0  0  0  0  0  0  0  0  0
   -6.4005   -8.4489   16.9485 C   0  0  0  0  0  0  0  0  0  0  0  0
   -4.4320  -11.0938   14.9455 O   0  0  0  0  0  0  0  0  0  0  0  0
  1  2  1  1  0  0  0
  1  3  1  0  0  0  0
  1  8  1  0  0  0  0
  3  4  1  0  0  0  0
  3 32  1  1  0  0  0
  4  5  1  0  0  0  0
  4 33  1  6  0  0  0
  5  6  1  1  0  0  0
  5  7  1  0  0  0  0
  7  8  1  0  0  0  0
  7  9  1  6  0  0  0
  9 10  1  0  0  0  0
 11 12  1  6  0  0  0
 11 13  1  0  0  0  0
 11 19  1  0  0  0  0
 12 35  1  0  0  0  0
 13 14  1  0  0  0  0
 14 15  1  1  0  0  0
 14 16  1  0  0  0  0
 16  2  1  1  0  0  0
 16 17  1  0  0  0  0
 17 18  1  6  0  0  0
 17 19  1  0  0  0  0
 19 20  1  6  0  0  0
 21 20  1  1  0  0  0
 21 22  1  0  0  0  0
 21 29  1  0  0  0  0
 22 23  1  1  0  0  0
 22 24  1  0  0  0  0
 24 25  1  6  0  0  0
 24 26  1  0  0  0  0
 26 27  1  1  0  0  0
 26 28  1  0  0  0  0
 28 29  1  0  0  0  0
 28 30  1  6  0  0  0
 30 31  1  0  0  0  0
 34 39  1  0  0  0  0
 35 36  2  0  0  0  0
 37 35  1  6  0  0  0
 37 38  1  0  0  0  0
 37 40  1  0  0  0  0
 38 39  1  0  0  0  0
M  END
>  <CHROM.1>
-131.07966881,-157.27215489,48.98023431,-175.97852556,130.29078390,-168.73600359
70.13735025,165.74548145,-57.82531053,179.86131118,0.62593543,-9.17628840
17.18083804,0.73880660,-0.05130290,0.79751934

>  <Name>
2g5q_lig

>  <RI>
0

>  <Rbt.Current_Directory>
/home/itssahil/PROJECTS/Mol_Feturizer/New_Systems/rnas/2g5q

>  <Rbt.Executable>
rbdock ($Id: //depot/dev/client3/rdock/2013.1/src/exe/rbdock.cxx#4 $)

>  <Rbt.Library>
libRbt.so (2013.1, Build901 2013/11/27)

>  <Rbt.Parameter_File>
/export/apps/rDock/src/rDock_2013.1_src/data/scripts/dock_solv.prm

>  <Rbt.Receptor>
prm/pocket_docking_2.prm

>  <SCORE>
-10.8173

>  <SCORE.INTER>
-10.0237

>  <SCORE.INTER.CONST>
1

>  <SCORE.INTER.POLAR>
-0.636145

>  <SCORE.INTER.ROT>
10

>  <SCORE.INTER.SOLV>
20.7301

>  <SCORE.INTER.VDW>
-21.7387

>  <SCORE.INTER.norm>
-0.250592

>  <SCORE.INTRA>
-1.97987

>  <SCORE.INTRA.DIHEDRAL>
-5.42356

>  <SCORE.INTRA.DIHEDRAL.0>
22.5778

>  <SCORE.INTRA.POLAR>
0

>  <SCORE.INTRA.POLAR.0>
0

>  <SCORE.INTRA.REPUL>
0

>  <SCORE.INTRA.REPUL.0>
0

>  <SCORE.INTRA.SOLV>
-0.27574

>  <SCORE.INTRA.SOLV.lig_0>
-102.332

>  <SCORE.INTRA.VDW>
0.869776

>  <SCORE.INTRA.VDW.0>
-5.08747

>  <SCORE.INTRA.norm>
-0.0494968

>  <SCORE.RESTR>
1.18625

>  <SCORE.RESTR.CAVITY>
1.18625

>  <SCORE.RESTR.norm>
0.0296563

>  <SCORE.SYSTEM>
0

>  <SCORE.SYSTEM.CONST>
0

>  <SCORE.SYSTEM.DIHEDRAL>
0

>  <SCORE.SYSTEM.SOLV>
0

>  <SCORE.SYSTEM.norm>
0

>  <SCORE.heavy>
40

>  <SCORE.norm>
-0.270432

>  <RMSD>
1.432

$$$$
2g5q_lig
 OpenBabel11021811433D
libRbt.so/2013.1/901 2013/11/27
 40 42  0  0  0  0  0  0  0  0999 V2000
    3.9991   -7.4286   18.9070 C   0  0  2  0  0  0  0  0  0  0  0  0
    2.8303   -8.1061   19.3126 O   0  0  0  0  0  0  0  0  0  0  0  0
    5.1970   -7.9388   19.7611 C   0  0  1  0  0  0  0  0  0  0  0  0
    5.0556   -7.5352   21.2613 C   0  0  2  0  0  0  0  0  0  0  0  0
    4.9857   -5.9876   21.3315 C   0  0  2  0  0  0  0  0  0  0  0  0
    4.8780   -5.5740   22.7032 O   0  0  0  0  0  0  0  0  0  0  0  0
    3.7330   -5.5090   20.4914 C   0  0  2  0  0  0  0  0  0  0  0  0
    3.8661   -5.9576   19.0758 O   0  0  0  0  0  0  0  0  0  0  0  0
    3.5747   -3.9923   20.4800 C   0  0  0  0  0  0  0  0  0  0  0  0
    2.2186   -3.5726   20.0040 N   0  0  0  0  0  0  0  0  0  0  0  0
   -1.2422   -8.9665   17.9891 C   0  0  2  0  0  0  0  0  0  0  0  0
   -2.5131   -8.8702   17.2811 N   0  0  0  0  0  0  0  0  0  0  0  0
   -0.9762   -7.6428   18.8214 C   0  0  0  0  0  0  0  0  0  0  0  0
    0.3965   -7.7458   19.5959 C   0  0  2  0  0  0  0  0  0  0  0  0
    0.6287   -6.5033   20.3809 N   0  0  0  0  0  0  0  0  0  0  0  0
    1.5661   -8.0018   18.5642 C   0  0  2  0  0  0  0  0  0  0  0  0
    1.2640   -9.3236   17.7527 C   0  0  2  0  0  0  0  0  0  0  0  0
    2.3211   -9.5499   16.8149 O   0  0  0  0  0  0  0  0  0  0  0  0
   -0.1014   -9.1935   16.9757 C   0  0  1  0  0  0  0  0  0  0  0  0
   -0.3831  -10.4168   16.2392 O   0  0  0  0  0  0  0  0  0  0  0  0
   -0.9197  -10.4508   14.9395 C   0  0  2  0  0  0  0  0  0  0  0  0
   -1.4071  -11.9149   14.6710 C   0  0  2  0  0  0  0  0  0  0  0  0
   -2.3760  -12.2614   15.6078 O   0  0  0  0  0  0  0  0  0  0  0  0
   -0.2030  -12.9306   14.7038 C   0  0  1  0  0  0  0  0  0  0  0  0
   -0.6592  -14.3356   14.4430 N   0  0  0  0  0  0  0  0  0  0  0  0
    0.8586  -12.4767   13.6247 C   0  0  2  0  0  0  0  0  0  0  0  0
    1.9756  -13.3678   13.6022 O   0  0  0  0  0  0  0  0  0  0  0  0
    1.3053  -11.0113   13.9495 C   0  0  2  0  0  0  0  0  0  0  0  0
    0.1254  -10.0800   13.9688 O   0  0  0  0  0  0  0  0  0  0  0  0
    2.2951  -10.4960   12.9452 C   0  0  0  0  0  0  0  0  0  0  0  0
    2.6863   -9.1459   13.2436 O   0  0  0  0  0  0  0  0  0  0  0  0
    5.2821   -9.3978   19.6122 O   0  0  0  0  0  0  0  0  0  0  0  0
    6.1451   -7.9991   21.9651 O   0  0  0  0  0  0  0  0  0  0  0  0
   -7.6032   -8.7860   18.4153 N   0  0  0  0  0  0  0  0  0  0  0  0
   -3.7626   -8.8122   17.8826 C   0  0  0  0  0  0  0  0  0  0  0  0
   -3.9396   -8.8435   19.0954 O   0  0  0  0  0  0  0  0  0  0  0  0
   -4.9105   -8.7207   16.8509 C   0  0  1  0  0  0  0  0  0  0  0  0
   -5.8376   -7.5375   17.1952 C   0  0  0  0  0  0  0  0  0  0  0  0
   -6.6500   -7.6805   18.4875 C   0  0  0  0  0  0  0  0  0  0  0  0
   -4.3472   -8.5673   15.5286 O   0  0  0  0  0  0  0  0  0  0  0  0
  1  2  1  1  0  0  0
  1  3  1  0  0  0  0
  1  8  1  0  0  0  0
  3  4  1  0  0  0  0
  3 32  1  1  0  0  0
  4  5  1  0  0  0  0
  4 33  1  1  0  0  0
  5  6  1  1  0  0  0
  5  7  1  0  0  0  0
  7  8  1  0  0  0  0
  7  9  1  6  0  0  0
  9 10  1  0  0  0  0
 11 12  1  6  0  0  0
 11 13  1  0  0  0  0
 11 19  1  0  0  0  0
 12 35  1  0  0  0  0
 13 14  1  0  0  0  0
 14 15  1  6  0  0  0
 14 16  1  0  0  0  0
 16  2  1  1  0  0  0
 16 17  1  0  0  0  0
 17 18  1  6  0  0  0
 17 19  1  0  0  0  0
 19 20  1  1  0  0  0
 21 20  1  1  0  0  0
 21 22  1  0  0  0  0
 21 29  1  0  0  0  0
 22 23  1  1  0  0  0
 22 24  1  0  0  0  0
 24 25  1  6  0  0  0
 24 26  1  0  0  0  0
 26 27  1  1  0  0  0
 26 28  1  0  0  0  0
 28 29  1  0  0  0  0
 28 30  1  6  0  0  0
 30 31  1  0  0  0  0
 34 39  1  0  0  0  0
 35 36  2  0  0  0  0
 37 35  1  1  0  0  0
 37 38  1  0  0  0  0
 37 40  1  0  0  0  0
 38 39  1  0  0  0  0
M  END
>  <CHROM.1>
-170.48167389,-164.94226984,-66.06531253,-133.72386101,101.19958235,-165.54857862
179.32331255,-128.39318526,-67.49911057,-64.26948178,0.52268216,-8.82481181
17.60398678,-0.72295768,0.05277947,-2.30761447

>  <Name>
2g5q_lig

>  <RI>
9.52566e+06

>  <Rbt.Current_Directory>
/home/itssahil/PROJECTS/Mol_Feturizer/New_Systems/rnas/2g5q

>  <Rbt.Executable>
rbdock ($Id: //depot/dev/client3/rdock/2013.1/src/exe/rbdock.cxx#4 $)

>  <Rbt.Library>
libRbt.so (2013.1, Build901 2013/11/27)

>  <Rbt.Parameter_File>
/export/apps/rDock/src/rDock_2013.1_src/data/scripts/dock_solv.prm

>  <Rbt.Receptor>
prm/pocket_docking_4.prm

>  <SCORE>
-28.523

>  <SCORE.INTER>
-27.1244

>  <SCORE.INTER.CONST>
1

>  <SCORE.INTER.POLAR>
-2.65858

>  <SCORE.INTER.ROT>
10

>  <SCORE.INTER.SOLV>
23.8605

>  <SCORE.INTER.VDW>
-27.4412

>  <SCORE.INTER.norm>
-0.67811

>  <SCORE.INTRA>
-1.39856

>  <SCORE.INTRA.DIHEDRAL>
-5.78474

>  <SCORE.INTRA.DIHEDRAL.0>
22.5778

>  <SCORE.INTRA.POLAR>
0

>  <SCORE.INTRA.POLAR.0>
0

>  <SCORE.INTRA.REPUL>
0

>  <SCORE.INTRA.REPUL.0>
0

>  <SCORE.INTRA.SOLV>
3.35051

>  <SCORE.INTRA.SOLV.lig_0>
-102.332

>  <SCORE.INTRA.VDW>
-0.181441

>  <SCORE.INTRA.VDW.0>
-5.08747

>  <SCORE.INTRA.norm>
-0.034964

>  <SCORE.RESTR>
0

>  <SCORE.RESTR.CAVITY>
0

>  <SCORE.RESTR.norm>
0

>  <SCORE.SYSTEM>
0

>  <SCORE.SYSTEM.CONST>
0

>  <SCORE.SYSTEM.DIHEDRAL>
0

>  <SCORE.SYSTEM.SOLV>
0

>  <SCORE.SYSTEM.norm>
0

>  <SCORE.heavy>
40

>  <SCORE.norm>
-0.713074

>  <RMSD>
1.444

$$$$
2g5q_lig
 OpenBabel11021811433D
libRbt.so/2013.1/901 2013/11/27
 40 42  0  0  0  0  0  0  0  0999 V2000
    3.8108   -7.8475   18.7194 C   0  0  2  0  0  0  0  0  0  0  0  0
    2.6142   -8.3960   19.2260 O   0  0  0  0  0  0  0  0  0  0  0  0
    5.0121   -8.4530   19.5037 C   0  0  1  0  0  0  0  0  0  0  0  0
    5.0192   -8.0014   20.9968 C   0  0  2  0  0  0  0  0  0  0  0  0
    5.1049   -6.4532   21.0235 C   0  0  2  0  0  0  0  0  0  0  0  0
    5.1371   -5.9979   22.3859 O   0  0  0  0  0  0  0  0  0  0  0  0
    3.8472   -5.8734   20.2580 C   0  0  2  0  0  0  0  0  0  0  0  0
    3.8337   -6.3669   18.8512 O   0  0  0  0  0  0  0  0  0  0  0  0
    3.8364   -4.3491   20.2105 C   0  0  0  0  0  0  0  0  0  0  0  0
    2.4624   -3.8043   19.9717 N   0  0  0  0  0  0  0  0  0  0  0  0
   -0.9482  -10.2437   17.5017 C   0  0  2  0  0  0  0  0  0  0  0  0
   -2.1480  -10.4438   16.6979 N   0  0  0  0  0  0  0  0  0  0  0  0
   -1.1270   -8.9851   18.4504 C   0  0  0  0  0  0  0  0  0  0  0  0
    0.1679   -8.7689   19.3283 C   0  0  2  0  0  0  0  0  0  0  0  0
   -0.0169   -7.5930   20.2211 N   0  0  0  0  0  0  0  0  0  0  0  0
    1.4209   -8.5827   18.3831 C   0  0  2  0  0  0  0  0  0  0  0  0
    1.5635   -9.8517   17.4524 C   0  0  2  0  0  0  0  0  0  0  0  0
    2.6947   -9.6781   16.5932 O   0  0  0  0  0  0  0  0  0  0  0  0
    0.2678  -10.0398   16.5745 C   0  0  1  0  0  0  0  0  0  0  0  0
    0.3968  -11.2161   15.7272 O   0  0  0  0  0  0  0  0  0  0  0  0
   -0.2088  -11.3510   14.4650 C   0  0  2  0  0  0  0  0  0  0  0  0
   -0.3575  -12.8834   14.1771 C   0  0  2  0  0  0  0  0  0  0  0  0
   -1.1484  -13.4669   15.1622 O   0  0  0  0  0  0  0  0  0  0  0  0
    1.0502  -13.5863   14.0950 C   0  0  1  0  0  0  0  0  0  0  0  0
    0.9185  -15.0541   13.8148 N   0  0  0  0  0  0  0  0  0  0  0  0
    1.8956  -12.8740   12.9657 C   0  0  2  0  0  0  0  0  0  0  0  0
    3.1857  -13.4754   12.8386 O   0  0  0  0  0  0  0  0  0  0  0  0
    2.0086  -11.3510   13.3124 C   0  0  2  0  0  0  0  0  0  0  0  0
    0.6478  -10.7254   13.4418 O   0  0  0  0  0  0  0  0  0  0  0  0
    2.7753  -10.5973   12.2646 C   0  0  0  0  0  0  0  0  0  0  0  0
    3.0234   -9.2423   12.6733 O   0  0  0  0  0  0  0  0  0  0  0  0
    4.9444   -9.9165   19.3946 O   0  0  0  0  0  0  0  0  0  0  0  0
    6.1064   -8.5536   21.6374 O   0  0  0  0  0  0  0  0  0  0  0  0
   -6.7026   -9.1800   17.7475 N   0  0  0  0  0  0  0  0  0  0  0  0
   -3.0249  -11.5126   16.8202 C   0  0  0  0  0  0  0  0  0  0  0  0
   -2.8816  -12.4258   17.6257 O   0  0  0  0  0  0  0  0  0  0  0  0
   -4.1961  -11.4331   15.8140 C   0  0  1  0  0  0  0  0  0  0  0  0
   -5.1136  -10.2440   16.1638 C   0  0  0  0  0  0  0  0  0  0  0  0
   -5.8270  -10.3275   17.5183 C   0  0  0  0  0  0  0  0  0  0  0  0
   -3.6631  -11.2980   14.4772 O   0  0  0  0  0  0  0  0  0  0  0  0
  1  2  1  1  0  0  0
  1  3  1  0  0  0  0
  1  8  1  0  0  0  0
  3  4  1  0  0  0  0
  3 32  1  1  0  0  0
  4  5  1  0  0  0  0
  4 33  1  1  0  0  0
  5  6  1  1  0  0  0
  5  7  1  0  0  0  0
  7  8  1  0  0  0  0
  7  9  1  6  0  0  0
  9 10  1  0  0  0  0
 11 12  1  6  0  0  0
 11 13  1  0  0  0  0
 11 19  1  0  0  0  0
 12 35  1  0  0  0  0
 13 14  1  0  0  0  0
 14 15  1  6  0  0  0
 14 16  1  0  0  0  0
 16  2  1  1  0  0  0
 16 17  1  0  0  0  0
 17 18  1  6  0  0  0
 17 19  1  0  0  0  0
 19 20  1  6  0  0  0
 21 20  1  1  0  0  0
 21 22  1  0  0  0  0
 21 29  1  0  0  0  0
 22 23  1  1  0  0  0
 22 24  1  0  0  0  0
 24 25  1  6  0  0  0
 24 26  1  0  0  0  0
 26 27  1  1  0  0  0
 26 28  1  0  0  0  0
 28 29  1  0  0  0  0
 28 30  1  6  0  0  0
 30 31  1  0  0  0  0
 34 39  1  0  0  0  0
 35 36  2  0  0  0  0
 37 35  1  1  0  0  0
 37 38  1  0  0  0  0
 37 40  1  0  0  0  0
 38 39  1  0  0  0  0
M  END
>  <CHROM.1>
-149.73301020,-158.39458663,-112.03661967,-162.25066014,90.84001228,-155.99239691
-172.48209568,-67.75856555,-63.72449240,-178.32931978,0.94986213,-9.76588549
17.10328460,-0.89186075,-0.08639967,-2.25279809

>  <Name>
2g5q_lig

>  <RI>
0

>  <Rbt.Current_Directory>
/home/itssahil/PROJECTS/Mol_Feturizer/New_Systems/rnas/2g5q

>  <Rbt.Executable>
rbdock ($Id: //depot/dev/client3/rdock/2013.1/src/exe/rbdock.cxx#4 $)

>  <Rbt.Library>
libRbt.so (2013.1, Build901 2013/11/27)

>  <Rbt.Parameter_File>
/export/apps/rDock/src/rDock_2013.1_src/data/scripts/dock_solv.prm

>  <Rbt.Receptor>
prm/pocket_docking_3.prm

>  <SCORE>
-24.104

>  <SCORE.INTER>
-19.3404

>  <SCORE.INTER.CONST>
1

>  <SCORE.INTER.POLAR>
-1.79621

>  <SCORE.INTER.ROT>
10

>  <SCORE.INTER.SOLV>
20.0017

>  <SCORE.INTER.VDW>
-23.8401

>  <SCORE.INTER.norm>
-0.483509

>  <SCORE.INTRA>
-4.76364

>  <SCORE.INTRA.DIHEDRAL>
-7.42727

>  <SCORE.INTRA.DIHEDRAL.0>
22.5778

>  <SCORE.INTRA.POLAR>
0

>  <SCORE.INTRA.POLAR.0>
0

>  <SCORE.INTRA.REPUL>
0

>  <SCORE.INTRA.REPUL.0>
0

>  <SCORE.INTRA.SOLV>
-0.207403

>  <SCORE.INTRA.SOLV.lig_0>
-102.332

>  <SCORE.INTRA.VDW>
-0.946303

>  <SCORE.INTRA.VDW.0>
-5.08747

>  <SCORE.INTRA.norm>
-0.119091

>  <SCORE.RESTR>
0

>  <SCORE.RESTR.CAVITY>
0

>  <SCORE.RESTR.norm>
0

>  <SCORE.SYSTEM>
0

>  <SCORE.SYSTEM.CONST>
0

>  <SCORE.SYSTEM.DIHEDRAL>
0

>  <SCORE.SYSTEM.SOLV>
0

>  <SCORE.SYSTEM.norm>
0

>  <SCORE.heavy>
40

>  <SCORE.norm>
-0.6026

>  <RMSD>
1.449

$$$$
2g5q_lig
 OpenBabel11021811433D
libRbt.so/2013.1/901 2013/11/27
 40 42  0  0  0  0  0  0  0  0999 V2000
    3.5080   -7.5439   18.3966 C   0  0  2  0  0  0  0  0  0  0  0  0
    2.4760   -8.3707   18.8877 O   0  0  0  0  0  0  0  0  0  0  0  0
    4.8413   -7.9335   19.1003 C   0  0  1  0  0  0  0  0  0  0  0  0
    4.8141   -7.5996   20.6239 C   0  0  2  0  0  0  0  0  0  0  0  0
    4.5719   -6.0750   20.7710 C   0  0  2  0  0  0  0  0  0  0  0  0
    4.5632   -5.7228   22.1640 O   0  0  0  0  0  0  0  0  0  0  0  0
    3.1897   -5.7238   20.0853 C   0  0  2  0  0  0  0  0  0  0  0  0
    3.2229   -6.1061   18.6446 O   0  0  0  0  0  0  0  0  0  0  0  0
    2.8551   -4.2378   20.1589 C   0  0  0  0  0  0  0  0  0  0  0  0
    4.0519   -3.4092   20.5096 N   0  0  0  0  0  0  0  0  0  0  0  0
   -1.1945  -10.2734   17.4792 C   0  0  2  0  0  0  0  0  0  0  0  0
   -2.4527  -10.4953   16.7767 N   0  0  0  0  0  0  0  0  0  0  0  0
   -1.3092   -9.0032   18.4222 C   0  0  0  0  0  0  0  0  0  0  0  0
    0.0496   -8.7634   19.1907 C   0  0  2  0  0  0  0  0  0  0  0  0
   -0.0747   -7.5767   20.0796 N   0  0  0  0  0  0  0  0  0  0  0  0
    1.2211   -8.5796   18.1457 C   0  0  2  0  0  0  0  0  0  0  0  0
    1.3012   -9.8602   17.2235 C   0  0  2  0  0  0  0  0  0  0  0  0
    2.3584   -9.6888   16.2742 O   0  0  0  0  0  0  0  0  0  0  0  0
   -0.0586  -10.0719   16.4548 C   0  0  1  0  0  0  0  0  0  0  0  0
    0.0137  -11.2589   15.6157 O   0  0  0  0  0  0  0  0  0  0  0  0
   -0.5000  -11.3351   14.3086 C   0  0  2  0  0  0  0  0  0  0  0  0
   -0.6828  -12.8519   13.9637 C   0  0  2  0  0  0  0  0  0  0  0  0
   -1.5662  -13.4314   14.8693 O   0  0  0  0  0  0  0  0  0  0  0  0
    0.7004  -13.6064   13.9644 C   0  0  1  0  0  0  0  0  0  0  0  0
    0.5363  -15.0597   13.6305 N   0  0  0  0  0  0  0  0  0  0  0  0
    1.6536  -12.8964   12.9230 C   0  0  2  0  0  0  0  0  0  0  0  0
    2.9267  -13.5437   12.8734 O   0  0  0  0  0  0  0  0  0  0  0  0
    1.7961  -11.3891   13.3236 C   0  0  2  0  0  0  0  0  0  0  0  0
    0.4533  -10.7150   13.3712 O   0  0  0  0  0  0  0  0  0  0  0  0
    2.6664  -10.6370   12.3590 C   0  0  0  0  0  0  0  0  0  0  0  0
    2.8862   -9.2866   12.7982 O   0  0  0  0  0  0  0  0  0  0  0  0
    5.0798   -9.3659   18.8775 O   0  0  0  0  0  0  0  0  0  0  0  0
    6.0189   -7.9514   21.1915 O   0  0  0  0  0  0  0  0  0  0  0  0
   -6.5486   -7.6256   16.4763 N   0  0  0  0  0  0  0  0  0  0  0  0
   -3.6305  -10.9366   17.3635 C   0  0  0  0  0  0  0  0  0  0  0  0
   -3.7435  -11.2003   18.5555 O   0  0  0  0  0  0  0  0  0  0  0  0
   -4.7827  -11.0757   16.3419 C   0  0  1  0  0  0  0  0  0  0  0  0
   -5.8613  -10.0075   16.6131 C   0  0  0  0  0  0  0  0  0  0  0  0
   -5.4182   -8.5509   16.4327 C   0  0  0  0  0  0  0  0  0  0  0  0
   -4.2487  -10.9425   15.0053 O   0  0  0  0  0  0  0  0  0  0  0  0
  1  2  1  1  0  0  0
  1  3  1  0  0  0  0
  1  8  1  0  0  0  0
  3  4  1  0  0  0  0
  3 32  1  1  0  0  0
  4  5  1  0  0  0  0
  4 33  1  6  0  0  0
  5  6  1  1  0  0  0
  5  7  1  0  0  0  0
  7  8  1  0  0  0  0
  7  9  1  6  0  0  0
  9 10  1  0  0  0  0
 11 12  1  6  0  0  0
 11 13  1  0  0  0  0
 11 19  1  0  0  0  0
 12 35  1  0  0  0  0
 13 14  1  0  0  0  0
 14 15  1  6  0  0  0
 14 16  1  0  0  0  0
 16  2  1  1  0  0  0
 16 17  1  0  0  0  0
 17 18  1  6  0  0  0
 17 19  1  0  0  0  0
 19 20  1  6  0  0  0
 21 20  1  1  0  0  0
 21 22  1  0  0  0  0
 21 29  1  0  0  0  0
 22 23  1  1  0  0  0
 22 24  1  0  0  0  0
 24 25  1  6  0  0  0
 24 26  1  0  0  0  0
 26 27  1  1  0  0  0
 26 28  1  0  0  0  0
 28 29  1  0  0  0  0
 28 30  1  6  0  0  0
 30 31  1  0  0  0  0
 34 39  1  0  0  0  0
 35 36  2  0  0  0  0
 37 35  1  1  0  0  0
 37 38  1  0  0  0  0
 37 40  1  0  0  0  0
 38 39  1  0  0  0  0
M  END
>  <CHROM.1>
-159.35623159,15.89192566,-70.34957148,-146.85498639,102.14041723,-160.20078074
-174.92604562,-111.40118181,63.88081086,169.88763915,0.68147958,-9.52017707
16.99767607,-0.89248646,-0.04302180,-2.30927774

>  <Name>
2g5q_lig

>  <RI>
0

>  <Rbt.Current_Directory>
/home/itssahil/PROJECTS/Mol_Feturizer/New_Systems/rnas/2g5q

>  <Rbt.Executable>
rbdock ($Id: //depot/dev/client3/rdock/2013.1/src/exe/rbdock.cxx#4 $)

>  <Rbt.Library>
libRbt.so (2013.1, Build901 2013/11/27)

>  <Rbt.Parameter_File>
/export/apps/rDock/src/rDock_2013.1_src/data/scripts/dock_solv.prm

>  <Rbt.Receptor>
prm/pocket_docking_2.prm

>  <SCORE>
-16.3851

>  <SCORE.INTER>
-17.3152

>  <SCORE.INTER.CONST>
1

>  <SCORE.INTER.POLAR>
-1.40683

>  <SCORE.INTER.ROT>
10

>  <SCORE.INTER.SOLV>
23.9532

>  <SCORE.INTER.VDW>
-25.1051

>  <SCORE.INTER.norm>
-0.432881

>  <SCORE.INTRA>
0.377215

>  <SCORE.INTRA.DIHEDRAL>
-1.58905

>  <SCORE.INTRA.DIHEDRAL.0>
22.5778

>  <SCORE.INTRA.POLAR>
0

>  <SCORE.INTRA.POLAR.0>
0

>  <SCORE.INTRA.REPUL>
0

>  <SCORE.INTRA.REPUL.0>
0

>  <SCORE.INTRA.SOLV>
1.88214

>  <SCORE.INTRA.SOLV.lig_0>
-102.332

>  <SCORE.INTRA.VDW>
0.230674

>  <SCORE.INTRA.VDW.0>
-5.08747

>  <SCORE.INTRA.norm>
0.00943037

>  <SCORE.RESTR>
0.552873

>  <SCORE.RESTR.CAVITY>
0.552873

>  <SCORE.RESTR.norm>
0.0138218

>  <SCORE.SYSTEM>
0

>  <SCORE.SYSTEM.CONST>
0

>  <SCORE.SYSTEM.DIHEDRAL>
0

>  <SCORE.SYSTEM.SOLV>
0

>  <SCORE.SYSTEM.norm>
0

>  <SCORE.heavy>
40

>  <SCORE.norm>
-0.409628

>  <RMSD>
1.479

$$$$
2g5q_lig
 OpenBabel11021811433D
libRbt.so/2013.1/901 2013/11/27
 40 42  0  0  0  0  0  0  0  0999 V2000
    2.9498   -7.2648   18.3906 C   0  0  2  0  0  0  0  0  0  0  0  0
    1.7664   -7.6911   19.0287 O   0  0  0  0  0  0  0  0  0  0  0  0
    4.1085   -8.2265   18.7873 C   0  0  1  0  0  0  0  0  0  0  0  0
    4.4631   -8.1164   20.3025 C   0  0  2  0  0  0  0  0  0  0  0  0
    4.8808   -6.6501   20.5864 C   0  0  2  0  0  0  0  0  0  0  0  0
    5.2383   -6.5127   21.9712 O   0  0  0  0  0  0  0  0  0  0  0  0
    3.6655   -5.7072   20.2149 C   0  0  2  0  0  0  0  0  0  0  0  0
    3.3103   -5.8751   18.7767 O   0  0  0  0  0  0  0  0  0  0  0  0
    3.9726   -4.2310   20.4432 C   0  0  0  0  0  0  0  0  0  0  0  0
    2.7283   -3.4000   20.4961 N   0  0  0  0  0  0  0  0  0  0  0  0
   -1.6482  -10.0505   17.6680 C   0  0  2  0  0  0  0  0  0  0  0  0
   -2.8532  -10.4482   16.9500 N   0  0  0  0  0  0  0  0  0  0  0  0
   -1.9199   -8.7328   18.5082 C   0  0  0  0  0  0  0  0  0  0  0  0
   -0.6190   -8.3024   19.2935 C   0  0  2  0  0  0  0  0  0  0  0  0
   -0.8902   -7.0724   20.0857 N   0  0  0  0  0  0  0  0  0  0  0  0
    0.5648   -8.0786   18.2704 C   0  0  2  0  0  0  0  0  0  0  0  0
    0.8024   -9.4085   17.4508 C   0  0  2  0  0  0  0  0  0  0  0  0
    1.8703   -9.2016   16.5208 O   0  0  0  0  0  0  0  0  0  0  0  0
   -0.5023   -9.8112   16.6631 C   0  0  1  0  0  0  0  0  0  0  0  0
   -0.2845  -11.0430   15.9190 O   0  0  0  0  0  0  0  0  0  0  0  0
   -0.5972  -11.2097   14.5579 C   0  0  2  0  0  0  0  0  0  0  0  0
   -0.5590  -12.7453   14.2522 C   0  0  2  0  0  0  0  0  0  0  0  0
   -1.4909  -13.4016   15.0505 O   0  0  0  0  0  0  0  0  0  0  0  0
    0.8858  -13.3338   14.4729 C   0  0  1  0  0  0  0  0  0  0  0  0
    0.9337  -14.8039   14.1780 N   0  0  0  0  0  0  0  0  0  0  0  0
    1.8910  -12.5431   13.5446 C   0  0  2  0  0  0  0  0  0  0  0  0
    3.2226  -13.0390   13.6960 O   0  0  0  0  0  0  0  0  0  0  0  0
    1.8063  -11.0203   13.9003 C   0  0  2  0  0  0  0  0  0  0  0  0
    0.4034  -10.5057   13.7362 O   0  0  0  0  0  0  0  0  0  0  0  0
    2.7143  -10.1955   13.0349 C   0  0  0  0  0  0  0  0  0  0  0  0
    4.0853  -10.5993   13.1836 O   0  0  0  0  0  0  0  0  0  0  0  0
    3.7124   -9.5967   18.4356 O   0  0  0  0  0  0  0  0  0  0  0  0
    5.4992   -8.9759   20.5942 O   0  0  0  0  0  0  0  0  0  0  0  0
   -6.8929   -7.6739   16.2176 N   0  0  0  0  0  0  0  0  0  0  0  0
   -4.0760  -10.7403   17.5377 C   0  0  0  0  0  0  0  0  0  0  0  0
   -4.2801  -10.7030   18.7461 O   0  0  0  0  0  0  0  0  0  0  0  0
   -5.1507  -11.1357   16.4988 C   0  0  1  0  0  0  0  0  0  0  0  0
   -5.7837   -9.8703   15.8855 C   0  0  0  0  0  0  0  0  0  0  0  0
   -6.2927   -8.8265   16.8863 C   0  0  0  0  0  0  0  0  0  0  0  0
   -4.5412  -11.9556   15.4763 O   0  0  0  0  0  0  0  0  0  0  0  0
  1  2  1  1  0  0  0
  1  3  1  0  0  0  0
  1  8  1  0  0  0  0
  3  4  1  0  0  0  0
  3 32  1  1  0  0  0
  4  5  1  0  0  0  0
  4 33  1  6  0  0  0
  5  6  1  1  0  0  0
  5  7  1  0  0  0  0
  7  8  1  0  0  0  0
  7  9  1  6  0  0  0
  9 10  1  0  0  0  0
 11 12  1  6  0  0  0
 11 13  1  0  0  0  0
 11 19  1  0  0  0  0
 12 35  1  0  0  0  0
 13 14  1  0  0  0  0
 14 15  1  6  0  0  0
 14 16  1  0  0  0  0
 16  2  1  1  0  0  0
 16 17  1  0  0  0  0
 17 18  1  6  0  0  0
 17 19  1  0  0  0  0
 19 20  1  1  0  0  0
 21 20  1  1  0  0  0
 21 22  1  0  0  0  0
 21 29  1  0  0  0  0
 22 23  1  1  0  0  0
 22 24  1  0  0  0  0
 24 25  1  6  0  0  0
 24 26  1  0  0  0  0
 26 27  1  1  0  0  0
 26 28  1  0  0  0  0
 28 29  1  0  0  0  0
 28 30  1  6  0  0  0
 30 31  1  0  0  0  0
 34 39  1  0  0  0  0
 35 36  2  0  0  0  0
 37 35  1  1  0  0  0
 37 38  1  0  0  0  0
 37 40  1  0  0  0  0
 38 39  1  0  0  0  0
M  END
>  <CHROM.1>
-120.29089169,-162.57738485,-58.53166359,-172.20774086,110.17836946,-165.71350644
-59.76431379,-82.70404231,-51.09366349,-179.14227663,0.47067289,-9.48024048
17.14668265,0.76272193,0.02600304,0.79124660

>  <Name>
2g5q_lig

>  <RI>
0

>  <Rbt.Current_Directory>
/home/itssahil/PROJECTS/Mol_Feturizer/New_Systems/rnas/2g5q

>  <Rbt.Executable>
rbdock ($Id: //depot/dev/client3/rdock/2013.1/src/exe/rbdock.cxx#4 $)

>  <Rbt.Library>
libRbt.so (2013.1, Build901 2013/11/27)

>  <Rbt.Parameter_File>
/export/apps/rDock/src/rDock_2013.1_src/data/scripts/dock_solv.prm

>  <Rbt.Receptor>
prm/pocket_docking_2.prm

>  <SCORE>
-12.859

>  <SCORE.INTER>
-11.4229

>  <SCORE.INTER.CONST>
1

>  <SCORE.INTER.POLAR>
-0.62023

>  <SCORE.INTER.ROT>
10

>  <SCORE.INTER.SOLV>
18.6752

>  <SCORE.INTER.VDW>
-22.0396

>  <SCORE.INTER.norm>
-0.285572

>  <SCORE.INTRA>
-2.11245

>  <SCORE.INTRA.DIHEDRAL>
-4.7659

>  <SCORE.INTRA.DIHEDRAL.0>
22.5778

>  <SCORE.INTRA.POLAR>
0

>  <SCORE.INTRA.POLAR.0>
0

>  <SCORE.INTRA.REPUL>
0

>  <SCORE.INTRA.REPUL.0>
0

>  <SCORE.INTRA.SOLV>
-0.497593

>  <SCORE.INTRA.SOLV.lig_0>
-102.332

>  <SCORE.INTRA.VDW>
0.519295

>  <SCORE.INTRA.VDW.0>
-5.08747

>  <SCORE.INTRA.norm>
-0.0528113

>  <SCORE.RESTR>
0.676306

>  <SCORE.RESTR.CAVITY>
0.676306

>  <SCORE.RESTR.norm>
0.0169077

>  <SCORE.SYSTEM>
0

>  <SCORE.SYSTEM.CONST>
0

>  <SCORE.SYSTEM.DIHEDRAL>
0

>  <SCORE.SYSTEM.SOLV>
0

>  <SCORE.SYSTEM.norm>
0

>  <SCORE.heavy>
40

>  <SCORE.norm>
-0.321476

>  <RMSD>
1.516

$$$$
2g5q_lig
 OpenBabel11021811433D
libRbt.so/2013.1/901 2013/11/27
 40 42  0  0  0  0  0  0  0  0999 V2000
    4.1849   -7.4760   18.7441 C   0  0  2  0  0  0  0  0  0  0  0  0
    3.0971   -8.3201   19.0501 O   0  0  0  0  0  0  0  0  0  0  0  0
    5.3906   -7.8622   19.6508 C   0  0  1  0  0  0  0  0  0  0  0  0
    5.1116   -7.5505   21.1536 C   0  0  2  0  0  0  0  0  0  0  0  0
    4.8300   -6.0306   21.2784 C   0  0  2  0  0  0  0  0  0  0  0  0
    4.5903   -5.6986   22.6556 O   0  0  0  0  0  0  0  0  0  0  0  0
    3.5736   -5.6836   20.3811 C   0  0  2  0  0  0  0  0  0  0  0  0
    3.8456   -6.0448   18.9604 O   0  0  0  0  0  0  0  0  0  0  0  0
    3.2132   -4.2023   20.4178 C   0  0  0  0  0  0  0  0  0  0  0  0
    4.3421   -3.3377   19.9488 N   0  0  0  0  0  0  0  0  0  0  0  0
   -1.0176   -9.1911   17.8722 C   0  0  2  0  0  0  0  0  0  0  0  0
   -2.3142   -9.0963   17.2121 N   0  0  0  0  0  0  0  0  0  0  0  0
   -0.7268   -7.8712   18.7023 C   0  0  0  0  0  0  0  0  0  0  0  0
    0.6738   -7.9726   19.4250 C   0  0  2  0  0  0  0  0  0  0  0  0
    0.9294   -6.7339   20.2087 N   0  0  0  0  0  0  0  0  0  0  0  0
    1.8058   -8.2170   18.3494 C   0  0  2  0  0  0  0  0  0  0  0  0
    1.4797   -9.5353   17.5414 C   0  0  2  0  0  0  0  0  0  0  0  0
    2.5025   -9.7510   16.5640 O   0  0  0  0  0  0  0  0  0  0  0  0
    0.0861   -9.4068   16.8161 C   0  0  1  0  0  0  0  0  0  0  0  0
   -0.2173  -10.6268   16.0828 O   0  0  0  0  0  0  0  0  0  0  0  0
   -0.7730  -10.6549   14.7911 C   0  0  2  0  0  0  0  0  0  0  0  0
   -1.0995  -12.1490   14.4529 C   0  0  2  0  0  0  0  0  0  0  0  0
   -2.0046  -12.6493   15.3840 O   0  0  0  0  0  0  0  0  0  0  0  0
    0.2107  -13.0233   14.4146 C   0  0  1  0  0  0  0  0  0  0  0  0
   -0.0912  -14.4556   14.0868 N   0  0  0  0  0  0  0  0  0  0  0  0
    1.1930  -12.3988   13.3457 C   0  0  2  0  0  0  0  0  0  0  0  0
    2.4017  -13.1564   13.2601 O   0  0  0  0  0  0  0  0  0  0  0  0
    1.4801  -10.9108   13.7407 C   0  0  2  0  0  0  0  0  0  0  0  0
    0.2043  -10.1203   13.8262 O   0  0  0  0  0  0  0  0  0  0  0  0
    2.3857  -10.2373   12.7509 C   0  0  0  0  0  0  0  0  0  0  0  0
    3.6945  -10.8303   12.7535 O   0  0  0  0  0  0  0  0  0  0  0  0
    5.6798   -9.2887   19.4518 O   0  0  0  0  0  0  0  0  0  0  0  0
    6.2122   -7.8982   21.9055 O   0  0  0  0  0  0  0  0  0  0  0  0
   -7.0956   -8.5262   18.5949 N   0  0  0  0  0  0  0  0  0  0  0  0
   -3.5433   -9.2731   17.8319 C   0  0  0  0  0  0  0  0  0  0  0  0
   -3.6772   -9.5404   19.0210 O   0  0  0  0  0  0  0  0  0  0  0  0
   -4.7275   -9.1124   16.8509 C   0  0  1  0  0  0  0  0  0  0  0  0
   -5.3620   -7.7162   17.0127 C   0  0  0  0  0  0  0  0  0  0  0  0
   -6.1175   -7.4745   18.3247 C   0  0  0  0  0  0  0  0  0  0  0  0
   -4.2531   -9.3105   15.5000 O   0  0  0  0  0  0  0  0  0  0  0  0
  1  2  1  1  0  0  0
  1  3  1  0  0  0  0
  1  8  1  0  0  0  0
  3  4  1  0  0  0  0
  3 32  1  1  0  0  0
  4  5  1  0  0  0  0
  4 33  1  1  0  0  0
  5  6  1  1  0  0  0
  5  7  1  0  0  0  0
  7  8  1  0  0  0  0
  7  9  1  6  0  0  0
  9 10  1  0  0  0  0
 11 12  1  6  0  0  0
 11 13  1  0  0  0  0
 11 19  1  0  0  0  0
 12 35  1  0  0  0  0
 13 14  1  0  0  0  0
 14 15  1  6  0  0  0
 14 16  1  0  0  0  0
 16  2  1  1  0  0  0
 16 17  1  0  0  0  0
 17 18  1  6  0  0  0
 17 19  1  0  0  0  0
 19 20  1  1  0  0  0
 21 20  1  1  0  0  0
 21 22  1  0  0  0  0
 21 29  1  0  0  0  0
 22 23  1  1  0  0  0
 22 24  1  0  0  0  0
 24 25  1  6  0  0  0
 24 26  1  0  0  0  0
 26 27  1  1  0  0  0
 26 28  1  0  0  0  0
 28 29  1  0  0  0  0
 28 30  1  6  0  0  0
 30 31  1  0  0  0  0
 34 39  1  0  0  0  0
 35 36  2  0  0  0  0
 37 35  1  1  0  0  0
 37 38  1  0  0  0  0
 37 40  1  0  0  0  0
 38 39  1  0  0  0  0
M  END
>  <CHROM.1>
-179.29146945,59.05338474,-77.56793875,-123.18553909,102.72184764,-173.08525781
-65.47386940,-100.96188972,-69.34589572,-51.48820324,0.79225729,-8.99872553
17.44855534,-0.78634329,0.01808891,-2.28780797

>  <Name>
2g5q_lig

>  <RI>
0

>  <Rbt.Current_Directory>
/home/itssahil/PROJECTS/Mol_Feturizer/New_Systems/rnas/2g5q

>  <Rbt.Executable>
rbdock ($Id: //depot/dev/client3/rdock/2013.1/src/exe/rbdock.cxx#4 $)

>  <Rbt.Library>
libRbt.so (2013.1, Build901 2013/11/27)

>  <Rbt.Parameter_File>
/export/apps/rDock/src/rDock_2013.1_src/data/scripts/dock_solv.prm

>  <Rbt.Receptor>
prm/pocket_docking_3.prm

>  <SCORE>
-21.2029

>  <SCORE.INTER>
-20.2566

>  <SCORE.INTER.CONST>
1

>  <SCORE.INTER.POLAR>
-1.80275

>  <SCORE.INTER.ROT>
10

>  <SCORE.INTER.SOLV>
24.733

>  <SCORE.INTER.VDW>
-26.0062

>  <SCORE.INTER.norm>
-0.506414

>  <SCORE.INTRA>
-1.02621

>  <SCORE.INTRA.DIHEDRAL>
-6.38717

>  <SCORE.INTRA.DIHEDRAL.0>
22.5778

>  <SCORE.INTRA.POLAR>
0

>  <SCORE.INTRA.POLAR.0>
0

>  <SCORE.INTRA.REPUL>
0

>  <SCORE.INTRA.REPUL.0>
0

>  <SCORE.INTRA.SOLV>
5.18747

>  <SCORE.INTRA.SOLV.lig_0>
-102.332

>  <SCORE.INTRA.VDW>
-0.426357

>  <SCORE.INTRA.VDW.0>
-5.08747

>  <SCORE.INTRA.norm>
-0.0256552

>  <SCORE.RESTR>
0.0798701

>  <SCORE.RESTR.CAVITY>
0.0798701

>  <SCORE.RESTR.norm>
0.00199675

>  <SCORE.SYSTEM>
0

>  <SCORE.SYSTEM.CONST>
0

>  <SCORE.SYSTEM.DIHEDRAL>
0

>  <SCORE.SYSTEM.SOLV>
0

>  <SCORE.SYSTEM.norm>
0

>  <SCORE.heavy>
40

>  <SCORE.norm>
-0.530072

>  <RMSD>
1.523

$$$$
2g5q_lig
 OpenBabel11021811433D
libRbt.so/2013.1/901 2013/11/27
 40 42  0  0  0  0  0  0  0  0999 V2000
    2.8591   -7.2720   18.2305 C   0  0  2  0  0  0  0  0  0  0  0  0
    1.7746   -7.8334   18.9364 O   0  0  0  0  0  0  0  0  0  0  0  0
    4.1309   -8.1294   18.4993 C   0  0  1  0  0  0  0  0  0  0  0  0
    4.5906   -8.0377   19.9872 C   0  0  2  0  0  0  0  0  0  0  0  0
    4.8888   -6.5485   20.3005 C   0  0  2  0  0  0  0  0  0  0  0  0
    5.3387   -6.4248   21.6594 O   0  0  0  0  0  0  0  0  0  0  0  0
    3.5646   -5.7161   20.0602 C   0  0  2  0  0  0  0  0  0  0  0  0
    3.1157   -5.8680   18.6466 O   0  0  0  0  0  0  0  0  0  0  0  0
    3.7477   -4.2258   20.3267 C   0  0  0  0  0  0  0  0  0  0  0  0
    2.4483   -3.4833   20.2820 N   0  0  0  0  0  0  0  0  0  0  0  0
   -1.6906  -10.2871   17.9122 C   0  0  2  0  0  0  0  0  0  0  0  0
   -2.9202  -10.7417   17.2741 N   0  0  0  0  0  0  0  0  0  0  0  0
   -1.9301   -8.8964   18.6364 C   0  0  0  0  0  0  0  0  0  0  0  0
   -0.6022   -8.4036   19.3352 C   0  0  2  0  0  0  0  0  0  0  0  0
   -0.8431   -7.1047   20.0199 N   0  0  0  0  0  0  0  0  0  0  0  0
    0.5471   -8.2815   18.2572 C   0  0  2  0  0  0  0  0  0  0  0  0
    0.7532   -9.6823   17.5556 C   0  0  2  0  0  0  0  0  0  0  0  0
    1.7898   -9.5678   16.5756 O   0  0  0  0  0  0  0  0  0  0  0  0
   -0.5785  -10.1477   16.8520 C   0  0  1  0  0  0  0  0  0  0  0  0
   -0.3894  -11.4437   16.2172 O   0  0  0  0  0  0  0  0  0  0  0  0
   -0.8064  -11.7515   14.9098 C   0  0  2  0  0  0  0  0  0  0  0  0
   -0.6710  -13.3011   14.7264 C   0  0  2  0  0  0  0  0  0  0  0  0
   -1.4725  -13.9514   15.6597 O   0  0  0  0  0  0  0  0  0  0  0  0
    0.8306  -13.7604   14.8559 C   0  0  1  0  0  0  0  0  0  0  0  0
    0.9714  -15.2432   14.6772 N   0  0  0  0  0  0  0  0  0  0  0  0
    1.6826  -12.9825   13.7759 C   0  0  2  0  0  0  0  0  0  0  0  0
    3.0582  -13.3643   13.8399 O   0  0  0  0  0  0  0  0  0  0  0  0
    1.5065  -11.4447   14.0143 C   0  0  2  0  0  0  0  0  0  0  0  0
    0.0575  -11.0508   13.9429 O   0  0  0  0  0  0  0  0  0  0  0  0
    2.2647  -10.6346   13.0031 C   0  0  0  0  0  0  0  0  0  0  0  0
    2.4386   -9.2785   13.4454 O   0  0  0  0  0  0  0  0  0  0  0  0
    3.8397   -9.5187   18.1209 O   0  0  0  0  0  0  0  0  0  0  0  0
    5.7229   -8.8018   20.1648 O   0  0  0  0  0  0  0  0  0  0  0  0
   -7.2328   -9.1836   16.9871 N   0  0  0  0  0  0  0  0  0  0  0  0
   -4.1056  -11.0317   17.9350 C   0  0  0  0  0  0  0  0  0  0  0  0
   -4.2505  -10.9435   19.1493 O   0  0  0  0  0  0  0  0  0  0  0  0
   -5.2209  -11.4960   16.9702 C   0  0  1  0  0  0  0  0  0  0  0  0
   -5.4231  -10.4510   15.8542 C   0  0  0  0  0  0  0  0  0  0  0  0
   -5.9426   -9.0819   16.3082 C   0  0  0  0  0  0  0  0  0  0  0  0
   -4.8615  -12.7812   16.4149 O   0  0  0  0  0  0  0  0  0  0  0  0
  1  2  1  1  0  0  0
  1  3  1  0  0  0  0
  1  8  1  0  0  0  0
  3  4  1  0  0  0  0
  3 32  1  1  0  0  0
  4  5  1  0  0  0  0
  4 33  1  6  0  0  0
  5  6  1  1  0  0  0
  5  7  1  0  0  0  0
  7  8  1  0  0  0  0
  7  9  1  6  0  0  0
  9 10  1  0  0  0  0
 11 12  1  6  0  0  0
 11 13  1  0  0  0  0
 11 19  1  0  0  0  0
 12 35  1  0  0  0  0
 13 14  1  0  0  0  0
 14 15  1  6  0  0  0
 14 16  1  0  0  0  0
 16  2  1  1  0  0  0
 16 17  1  0  0  0  0
 17 18  1  6  0  0  0
 17 19  1  0  0  0  0
 19 20  1  1  0  0  0
 21 20  1  1  0  0  0
 21 22  1  0  0  0  0
 21 29  1  0  0  0  0
 22 23  1  1  0  0  0
 22 24  1  0  0  0  0
 24 25  1  6  0  0  0
 24 26  1  0  0  0  0
 26 27  1  1  0  0  0
 26 28  1  0  0  0  0
 28 29  1  0  0  0  0
 28 30  1  6  0  0  0
 30 31  1  0  0  0  0
 34 39  1  0  0  0  0
 35 36  2  0  0  0  0
 37 35  1  1  0  0  0
 37 38  1  0  0  0  0
 37 40  1  0  0  0  0
 38 39  1  0  0  0  0
M  END
>  <CHROM.1>
-121.70807931,-172.00854887,-61.73656132,-161.79017690,106.98345360,-169.05164399
-162.50282942,-54.43763722,-64.98186674,-58.94739476,0.36322202,-9.71181875
17.24978568,0.76451200,0.08819782,0.72982865

>  <Name>
2g5q_lig

>  <RI>
0

>  <Rbt.Current_Directory>
/home/itssahil/PROJECTS/Mol_Feturizer/New_Systems/rnas/2g5q

>  <Rbt.Executable>
rbdock ($Id: //depot/dev/client3/rdock/2013.1/src/exe/rbdock.cxx#4 $)

>  <Rbt.Library>
libRbt.so (2013.1, Build901 2013/11/27)

>  <Rbt.Parameter_File>
/export/apps/rDock/src/rDock_2013.1_src/data/scripts/dock_solv.prm

>  <Rbt.Receptor>
prm/pocket_docking_3.prm

>  <SCORE>
-18.3917

>  <SCORE.INTER>
-16.2856

>  <SCORE.INTER.CONST>
1

>  <SCORE.INTER.POLAR>
-1.75624

>  <SCORE.INTER.ROT>
10

>  <SCORE.INTER.SOLV>
18.6623

>  <SCORE.INTER.VDW>
-21.4904

>  <SCORE.INTER.norm>
-0.407139

>  <SCORE.INTRA>
-2.10615

>  <SCORE.INTRA.DIHEDRAL>
-4.68995

>  <SCORE.INTRA.DIHEDRAL.0>
22.5778

>  <SCORE.INTRA.POLAR>
0

>  <SCORE.INTRA.POLAR.0>
0

>  <SCORE.INTRA.REPUL>
0.0089041

>  <SCORE.INTRA.REPUL.0>
0

>  <SCORE.INTRA.SOLV>
0.55351

>  <SCORE.INTRA.SOLV.lig_0>
-102.332

>  <SCORE.INTRA.VDW>
-0.0824561

>  <SCORE.INTRA.VDW.0>
-5.08747

>  <SCORE.INTRA.norm>
-0.0526538

>  <SCORE.RESTR>
0

>  <SCORE.RESTR.CAVITY>
0

>  <SCORE.RESTR.norm>
0

>  <SCORE.SYSTEM>
0

>  <SCORE.SYSTEM.CONST>
0

>  <SCORE.SYSTEM.DIHEDRAL>
0

>  <SCORE.SYSTEM.SOLV>
0

>  <SCORE.SYSTEM.norm>
0

>  <SCORE.heavy>
40

>  <SCORE.norm>
-0.459793

>  <RMSD>
1.591

$$$$
2g5q_lig
 OpenBabel11021811433D
libRbt.so/2013.1/901 2013/11/27
 40 42  0  0  0  0  0  0  0  0999 V2000
    4.1172   -7.9013   18.7660 C   0  0  2  0  0  0  0  0  0  0  0  0
    2.9803   -8.6147   19.1997 O   0  0  0  0  0  0  0  0  0  0  0  0
    5.3173   -8.2585   19.6917 C   0  0  1  0  0  0  0  0  0  0  0  0
    5.1052   -7.7371   21.1466 C   0  0  2  0  0  0  0  0  0  0  0  0
    4.9382   -6.1968   21.0787 C   0  0  2  0  0  0  0  0  0  0  0  0
    4.7630   -5.6744   22.4056 O   0  0  0  0  0  0  0  0  0  0  0  0
    3.6849   -5.8734   20.1683 C   0  0  2  0  0  0  0  0  0  0  0  0
    3.8889   -6.4327   18.8015 O   0  0  0  0  0  0  0  0  0  0  0  0
    3.4341   -4.3765   20.0197 C   0  0  0  0  0  0  0  0  0  0  0  0
    3.0680   -3.7362   21.3227 N   0  0  0  0  0  0  0  0  0  0  0  0
   -0.9877   -9.8642   17.8691 C   0  0  2  0  0  0  0  0  0  0  0  0
   -2.2268   -9.9409   17.1045 N   0  0  0  0  0  0  0  0  0  0  0  0
   -0.8143   -8.4144   18.4888 C   0  0  0  0  0  0  0  0  0  0  0  0
    0.5234   -8.3290   19.3241 C   0  0  2  0  0  0  0  0  0  0  0  0
    0.6685   -6.9685   19.9088 N   0  0  0  0  0  0  0  0  0  0  0  0
    1.7496   -8.6896   18.3943 C   0  0  2  0  0  0  0  0  0  0  0  0
    1.5392  -10.1358   17.7934 C   0  0  2  0  0  0  0  0  0  0  0  0
    2.6474  -10.4576   16.9470 O   0  0  0  0  0  0  0  0  0  0  0  0
    0.2077  -10.1946   16.9516 C   0  0  1  0  0  0  0  0  0  0  0  0
    0.0101  -11.5309   16.4096 O   0  0  0  0  0  0  0  0  0  0  0  0
   -0.8761  -11.8350   15.3606 C   0  0  2  0  0  0  0  0  0  0  0  0
   -1.1147  -13.3829   15.3815 C   0  0  2  0  0  0  0  0  0  0  0  0
   -1.6635  -13.7521   16.6059 O   0  0  0  0  0  0  0  0  0  0  0  0
    0.2224  -14.1686   15.1035 C   0  0  1  0  0  0  0  0  0  0  0  0
    0.0032  -15.6526   15.1169 N   0  0  0  0  0  0  0  0  0  0  0  0
    0.7927  -13.6991   13.7065 C   0  0  2  0  0  0  0  0  0  0  0  0
    2.0067  -14.3855   13.3946 O   0  0  0  0  0  0  0  0  0  0  0  0
    1.0102  -12.1489   13.7516 C   0  0  2  0  0  0  0  0  0  0  0  0
   -0.2715  -11.4342   14.0777 O   0  0  0  0  0  0  0  0  0  0  0  0
    1.5238  -11.6209   12.4435 C   0  0  0  0  0  0  0  0  0  0  0  0
    2.8494  -12.1036   12.1704 O   0  0  0  0  0  0  0  0  0  0  0  0
    5.4966   -9.7165   19.6737 O   0  0  0  0  0  0  0  0  0  0  0  0
    6.1989   -8.0680   21.9158 O   0  0  0  0  0  0  0  0  0  0  0  0
   -6.0944   -7.5012   16.8751 N   0  0  0  0  0  0  0  0  0  0  0  0
   -3.4743  -10.2476   17.6298 C   0  0  0  0  0  0  0  0  0  0  0  0
   -3.6749  -10.4995   18.8128 O   0  0  0  0  0  0  0  0  0  0  0  0
   -4.5831  -10.2534   16.5523 C   0  0  1  0  0  0  0  0  0  0  0  0
   -5.9511   -9.9585   17.2001 C   0  0  0  0  0  0  0  0  0  0  0  0
   -6.0945   -8.5818   17.8591 C   0  0  0  0  0  0  0  0  0  0  0  0
   -4.2669   -9.2685   15.5427 O   0  0  0  0  0  0  0  0  0  0  0  0
  1  2  1  1  0  0  0
  1  3  1  0  0  0  0
  1  8  1  0  0  0  0
  3  4  1  0  0  0  0
  3 32  1  1  0  0  0
  4  5  1  0  0  0  0
  4 33  1  1  0  0  0
  5  6  1  1  0  0  0
  5  7  1  0  0  0  0
  7  8  1  0  0  0  0
  7  9  1  6  0  0  0
  9 10  1  0  0  0  0
 11 12  1  6  0  0  0
 11 13  1  0  0  0  0
 11 19  1  0  0  0  0
 12 35  1  0  0  0  0
 13 14  1  0  0  0  0
 14 15  1  6  0  0  0
 14 16  1  0  0  0  0
 16  2  1  1  0  0  0
 16 17  1  0  0  0  0
 17 18  1  6  0  0  0
 17 19  1  0  0  0  0
 19 20  1  1  0  0  0
 21 20  1  1  0  0  0
 21 22  1  0  0  0  0
 21 29  1  0  0  0  0
 22 23  1  1  0  0  0
 22 24  1  0  0  0  0
 24 25  1  6  0  0  0
 24 26  1  0  0  0  0
 26 27  1  1  0  0  0
 26 28  1  0  0  0  0
 28 29  1  0  0  0  0
 28 30  1  6  0  0  0
 30 31  1  0  0  0  0
 34 39  1  0  0  0  0
 35 36  2  0  0  0  0
 37 35  1  1  0  0  0
 37 38  1  0  0  0  0
 37 40  1  0  0  0  0
 38 39  1  0  0  0  0
M  END
>  <CHROM.1>
-168.60962620,-64.73853217,-86.46775765,-130.61712386,77.19900108,-162.96729581
-66.54936212,-154.43503545,62.91799174,68.60156968,0.70449713,-9.70259390
17.51607121,-0.88085178,0.07335943,-2.41566749

>  <Name>
2g5q_lig

>  <RI>
0

>  <Rbt.Current_Directory>
/home/itssahil/PROJECTS/Mol_Feturizer/New_Systems/rnas/2g5q

>  <Rbt.Executable>
rbdock ($Id: //depot/dev/client3/rdock/2013.1/src/exe/rbdock.cxx#4 $)

>  <Rbt.Library>
libRbt.so (2013.1, Build901 2013/11/27)

>  <Rbt.Parameter_File>
/export/apps/rDock/src/rDock_2013.1_src/data/scripts/dock_solv.prm

>  <Rbt.Receptor>
prm/pocket_docking_3.prm

>  <SCORE>
-21.9279

>  <SCORE.INTER>
-19.4876

>  <SCORE.INTER.CONST>
1

>  <SCORE.INTER.POLAR>
-1.81094

>  <SCORE.INTER.ROT>
10

>  <SCORE.INTER.SOLV>
18.0381

>  <SCORE.INTER.VDW>
-23.2346

>  <SCORE.INTER.norm>
-0.487191

>  <SCORE.INTRA>
-2.44028

>  <SCORE.INTRA.DIHEDRAL>
-10.1044

>  <SCORE.INTRA.DIHEDRAL.0>
22.5778

>  <SCORE.INTRA.POLAR>
0

>  <SCORE.INTRA.POLAR.0>
0

>  <SCORE.INTRA.REPUL>
0

>  <SCORE.INTRA.REPUL.0>
0

>  <SCORE.INTRA.SOLV>
4.41795

>  <SCORE.INTRA.SOLV.lig_0>
-102.332

>  <SCORE.INTRA.VDW>
0.402942

>  <SCORE.INTRA.VDW.0>
-5.08747

>  <SCORE.INTRA.norm>
-0.0610071

>  <SCORE.RESTR>
0

>  <SCORE.RESTR.CAVITY>
0

>  <SCORE.RESTR.norm>
0

>  <SCORE.SYSTEM>
0

>  <SCORE.SYSTEM.CONST>
0

>  <SCORE.SYSTEM.DIHEDRAL>
0

>  <SCORE.SYSTEM.SOLV>
0

>  <SCORE.SYSTEM.norm>
0

>  <SCORE.heavy>
40

>  <SCORE.norm>
-0.548198

>  <RMSD>
1.651

$$$$
2g5q_lig
 OpenBabel11021811433D
libRbt.so/2013.1/901 2013/11/27
 40 42  0  0  0  0  0  0  0  0999 V2000
    4.0606   -7.3229   19.0189 C   0  0  2  0  0  0  0  0  0  0  0  0
    2.8956   -8.0067   19.4245 O   0  0  0  0  0  0  0  0  0  0  0  0
    5.2351   -7.7330   19.9554 C   0  0  1  0  0  0  0  0  0  0  0  0
    5.0182   -7.2288   21.4156 C   0  0  2  0  0  0  0  0  0  0  0  0
    4.9008   -5.6831   21.3711 C   0  0  2  0  0  0  0  0  0  0  0  0
    4.7227   -5.1770   22.7040 O   0  0  0  0  0  0  0  0  0  0  0  0
    3.6719   -5.3053   20.4486 C   0  0  2  0  0  0  0  0  0  0  0  0
    3.8782   -5.8485   19.0756 O   0  0  0  0  0  0  0  0  0  0  0  0
    3.4706   -3.7990   20.3215 C   0  0  0  0  0  0  0  0  0  0  0  0
    2.9807   -3.1880   21.5976 N   0  0  0  0  0  0  0  0  0  0  0  0
   -0.0856  -10.4350   17.3524 C   0  0  2  0  0  0  0  0  0  0  0  0
   -1.1481  -10.8321   16.4364 N   0  0  0  0  0  0  0  0  0  0  0  0
   -0.5826   -9.2576   18.2917 C   0  0  0  0  0  0  0  0  0  0  0  0
    0.5633   -8.8290   19.2907 C   0  0  2  0  0  0  0  0  0  0  0  0
    0.0810   -7.7323   20.1730 N   0  0  0  0  0  0  0  0  0  0  0  0
    1.8404   -8.3884   18.4704 C   0  0  2  0  0  0  0  0  0  0  0  0
    2.3023   -9.5832   17.5453 C   0  0  2  0  0  0  0  0  0  0  0  0
    3.4549   -9.1798   16.7990 O   0  0  0  0  0  0  0  0  0  0  0  0
    1.1504   -9.9843   16.5467 C   0  0  1  0  0  0  0  0  0  0  0  0
    1.5741  -11.0930   15.7043 O   0  0  0  0  0  0  0  0  0  0  0  0
    1.0345  -11.3727   14.4359 C   0  0  2  0  0  0  0  0  0  0  0  0
    1.4251  -12.8457   14.0740 C   0  0  2  0  0  0  0  0  0  0  0  0
    0.9023  -13.7131   15.0284 O   0  0  0  0  0  0  0  0  0  0  0  0
    2.9882  -13.0085   13.9607 C   0  0  1  0  0  0  0  0  0  0  0  0
    3.3723  -14.4155   13.6098 N   0  0  0  0  0  0  0  0  0  0  0  0
    3.5149  -11.9949   12.8687 C   0  0  2  0  0  0  0  0  0  0  0  0
    4.9317  -12.1017   12.7151 O   0  0  0  0  0  0  0  0  0  0  0  0
    3.0950  -10.5458   13.2888 C   0  0  2  0  0  0  0  0  0  0  0  0
    1.6036  -10.4412   13.4457 O   0  0  0  0  0  0  0  0  0  0  0  0
    3.5349   -9.5248   12.2800 C   0  0  0  0  0  0  0  0  0  0  0  0
    3.0277   -9.8323   10.9712 O   0  0  0  0  0  0  0  0  0  0  0  0
    5.3686   -9.1954   19.9156 O   0  0  0  0  0  0  0  0  0  0  0  0
    6.0895   -7.6068   22.1947 O   0  0  0  0  0  0  0  0  0  0  0  0
   -6.5647   -9.9729   16.6848 N   0  0  0  0  0  0  0  0  0  0  0  0
   -2.3572  -11.4013   16.8110 C   0  0  0  0  0  0  0  0  0  0  0  0
   -2.6680  -11.6442   17.9719 O   0  0  0  0  0  0  0  0  0  0  0  0
   -3.2642  -11.7119   15.5980 C   0  0  1  0  0  0  0  0  0  0  0  0
   -4.7445  -11.5068   15.9787 C   0  0  0  0  0  0  0  0  0  0  0  0
   -5.1466  -10.0737   16.3460 C   0  0  0  0  0  0  0  0  0  0  0  0
   -2.8909  -10.8541   14.4961 O   0  0  0  0  0  0  0  0  0  0  0  0
  1  2  1  1  0  0  0
  1  3  1  0  0  0  0
  1  8  1  0  0  0  0
  3  4  1  0  0  0  0
  3 32  1  1  0  0  0
  4  5  1  0  0  0  0
  4 33  1  1  0  0  0
  5  6  1  1  0  0  0
  5  7  1  0  0  0  0
  7  8  1  0  0  0  0
  7  9  1  6  0  0  0
  9 10  1  0  0  0  0
 11 12  1  6  0  0  0
 11 13  1  0  0  0  0
 11 19  1  0  0  0  0
 12 35  1  0  0  0  0
 13 14  1  0  0  0  0
 14 15  1  6  0  0  0
 14 16  1  0  0  0  0
 16  2  1  1  0  0  0
 16 17  1  0  0  0  0
 17 18  1  6  0  0  0
 17 19  1  0  0  0  0
 19 20  1  6  0  0  0
 21 20  1  1  0  0  0
 21 22  1  0  0  0  0
 21 29  1  0  0  0  0
 22 23  1  1  0  0  0
 22 24  1  0  0  0  0
 24 25  1  6  0  0  0
 24 26  1  0  0  0  0
 26 27  1  1  0  0  0
 26 28  1  0  0  0  0
 28 29  1  0  0  0  0
 28 30  1  6  0  0  0
 30 31  1  0  0  0  0
 34 39  1  0  0  0  0
 35 36  2  0  0  0  0
 37 35  1  1  0  0  0
 37 38  1  0  0  0  0
 37 40  1  0  0  0  0
 38 39  1  0  0  0  0
M  END
>  <CHROM.1>
-149.41480132,-70.12961591,-64.65998055,-167.31760865,84.86793230,-162.89068496
56.13556252,-145.72185037,63.98083884,179.69453528,1.61647377,-9.45728482
17.10610515,-1.05247888,-0.13891485,-2.20885603

>  <Name>
2g5q_lig

>  <RI>
9.52566e+06

>  <Rbt.Current_Directory>
/home/itssahil/PROJECTS/Mol_Feturizer/New_Systems/rnas/2g5q

>  <Rbt.Executable>
rbdock ($Id: //depot/dev/client3/rdock/2013.1/src/exe/rbdock.cxx#4 $)

>  <Rbt.Library>
libRbt.so (2013.1, Build901 2013/11/27)

>  <Rbt.Parameter_File>
/export/apps/rDock/src/rDock_2013.1_src/data/scripts/dock_solv.prm

>  <Rbt.Receptor>
prm/pocket_docking_4.prm

>  <SCORE>
-18.4776

>  <SCORE.INTER>
-13.5089

>  <SCORE.INTER.CONST>
1

>  <SCORE.INTER.POLAR>
-1.10376

>  <SCORE.INTER.ROT>
10

>  <SCORE.INTER.SOLV>
14.5699

>  <SCORE.INTER.VDW>
-20.45

>  <SCORE.INTER.norm>
-0.337722

>  <SCORE.INTRA>
-4.96868

>  <SCORE.INTRA.DIHEDRAL>
-11.7839

>  <SCORE.INTRA.DIHEDRAL.0>
22.5778

>  <SCORE.INTRA.POLAR>
0

>  <SCORE.INTRA.POLAR.0>
0

>  <SCORE.INTRA.REPUL>
0

>  <SCORE.INTRA.REPUL.0>
0

>  <SCORE.INTRA.SOLV>
0.0459727

>  <SCORE.INTRA.SOLV.lig_0>
-102.332

>  <SCORE.INTRA.VDW>
0.900262

>  <SCORE.INTRA.VDW.0>
-5.08747

>  <SCORE.INTRA.norm>
-0.124217

>  <SCORE.RESTR>
0

>  <SCORE.RESTR.CAVITY>
0

>  <SCORE.RESTR.norm>
0

>  <SCORE.SYSTEM>
0

>  <SCORE.SYSTEM.CONST>
0

>  <SCORE.SYSTEM.DIHEDRAL>
0

>  <SCORE.SYSTEM.SOLV>
0

>  <SCORE.SYSTEM.norm>
0

>  <SCORE.heavy>
40

>  <SCORE.norm>
-0.461939

>  <RMSD>
1.661

$$$$
2g5q_lig
 OpenBabel11021811433D
libRbt.so/2013.1/901 2013/11/27
 40 42  0  0  0  0  0  0  0  0999 V2000
    4.2506   -7.8531   18.8517 C   0  0  2  0  0  0  0  0  0  0  0  0
    3.1718   -8.6662   19.2571 O   0  0  0  0  0  0  0  0  0  0  0  0
    5.4535   -8.1009   19.8090 C   0  0  1  0  0  0  0  0  0  0  0  0
    5.1574   -7.6013   21.2568 C   0  0  2  0  0  0  0  0  0  0  0  0
    4.8540   -6.0823   21.1815 C   0  0  2  0  0  0  0  0  0  0  0  0
    4.5979   -5.5782   22.5024 O   0  0  0  0  0  0  0  0  0  0  0  0
    3.6009   -5.8729   20.2382 C   0  0  2  0  0  0  0  0  0  0  0  0
    3.8901   -6.4111   18.8782 O   0  0  0  0  0  0  0  0  0  0  0  0
    3.2201   -4.4047   20.0801 C   0  0  0  0  0  0  0  0  0  0  0  0
    2.8091   -3.7877   21.3810 N   0  0  0  0  0  0  0  0  0  0  0  0
   -0.1764  -10.5616   17.1895 C   0  0  2  0  0  0  0  0  0  0  0  0
   -1.3923  -10.7390   16.4049 N   0  0  0  0  0  0  0  0  0  0  0  0
   -0.4757   -9.6795   18.4733 C   0  0  0  0  0  0  0  0  0  0  0  0
    0.8376   -9.4907   19.3301 C   0  0  2  0  0  0  0  0  0  0  0  0
    0.5411   -8.6716   20.5364 N   0  0  0  0  0  0  0  0  0  0  0  0
    1.9566   -8.8188   18.4390 C   0  0  2  0  0  0  0  0  0  0  0  0
    2.2236   -9.7222   17.1703 C   0  0  2  0  0  0  0  0  0  0  0  0
    3.2325   -9.1087   16.3618 O   0  0  0  0  0  0  0  0  0  0  0  0
    0.9050   -9.8847   16.3220 C   0  0  1  0  0  0  0  0  0  0  0  0
    1.1507  -10.7273   15.1609 O   0  0  0  0  0  0  0  0  0  0  0  0
    0.8215  -10.3695   13.8412 C   0  0  2  0  0  0  0  0  0  0  0  0
    0.7106  -11.6924   13.0100 C   0  0  2  0  0  0  0  0  0  0  0  0
   -0.2793  -12.5034   13.5567 O   0  0  0  0  0  0  0  0  0  0  0  0
    2.0921  -12.4482   12.9561 C   0  0  1  0  0  0  0  0  0  0  0  0
    1.9972  -13.7149   12.1580 N   0  0  0  0  0  0  0  0  0  0  0  0
    3.1677  -11.4725   12.3330 C   0  0  2  0  0  0  0  0  0  0  0  0
    4.4453  -12.1074   12.2512 O   0  0  0  0  0  0  0  0  0  0  0  0
    3.2312  -10.1752   13.2080 C   0  0  2  0  0  0  0  0  0  0  0  0
    1.8844   -9.5121   13.2869 O   0  0  0  0  0  0  0  0  0  0  0  0
    4.2135   -9.1815   12.6590 C   0  0  0  0  0  0  0  0  0  0  0  0
    3.9550   -8.9034   11.2731 O   0  0  0  0  0  0  0  0  0  0  0  0
    5.7638   -9.5368   19.7986 O   0  0  0  0  0  0  0  0  0  0  0  0
    6.2560   -7.8325   22.0549 O   0  0  0  0  0  0  0  0  0  0  0  0
   -5.0054  -11.2714   18.5657 N   0  0  0  0  0  0  0  0  0  0  0  0
   -2.4759  -11.5240   16.7735 C   0  0  0  0  0  0  0  0  0  0  0  0
   -2.5287  -12.1717   17.8132 O   0  0  0  0  0  0  0  0  0  0  0  0
   -3.6049  -11.5049   15.7173 C   0  0  1  0  0  0  0  0  0  0  0  0
   -4.7556  -10.5936   16.1902 C   0  0  0  0  0  0  0  0  0  0  0  0
   -5.6728  -11.1820   17.2686 C   0  0  0  0  0  0  0  0  0  0  0  0
   -3.0664  -11.0447   14.4573 O   0  0  0  0  0  0  0  0  0  0  0  0
  1  2  1  1  0  0  0
  1  3  1  0  0  0  0
  1  8  1  0  0  0  0
  3  4  1  0  0  0  0
  3 32  1  1  0  0  0
  4  5  1  0  0  0  0
  4 33  1  1  0  0  0
  5  6  1  1  0  0  0
  5  7  1  0  0  0  0
  7  8  1  0  0  0  0
  7  9  1  6  0  0  0
  9 10  1  0  0  0  0
 11 12  1  6  0  0  0
 11 13  1  0  0  0  0
 11 19  1  0  0  0  0
 12 35  1  0  0  0  0
 13 14  1  0  0  0  0
 14 15  1  1  0  0  0
 14 16  1  0  0  0  0
 16  2  1  1  0  0  0
 16 17  1  0  0  0  0
 17 18  1  6  0  0  0
 17 19  1  0  0  0  0
 19 20  1  6  0  0  0
 21 20  1  1  0  0  0
 21 22  1  0  0  0  0
 21 29  1  0  0  0  0
 22 23  1  1  0  0  0
 22 24  1  0  0  0  0
 24 25  1  6  0  0  0
 24 26  1  0  0  0  0
 26 27  1  1  0  0  0
 26 28  1  0  0  0  0
 28 29  1  0  0  0  0
 28 30  1  6  0  0  0
 30 31  1  0  0  0  0
 34 39  1  0  0  0  0
 35 36  2  0  0  0  0
 37 35  1  1  0  0  0
 37 38  1  0  0  0  0
 37 40  1  0  0  0  0
 38 39  1  0  0  0  0
M  END
>  <CHROM.1>
-170.52447183,-62.76448017,-71.16382680,-166.34491136,112.39768952,-158.03432697
53.03799682,-103.24975824,-76.49171042,71.28786037,1.56268715,-9.50796556
16.93818420,-0.97476996,-0.28517524,-2.03336735

>  <Name>
2g5q_lig

>  <RI>
0

>  <Rbt.Current_Directory>
/home/itssahil/PROJECTS/Mol_Feturizer/New_Systems/rnas/2g5q

>  <Rbt.Executable>
rbdock ($Id: //depot/dev/client3/rdock/2013.1/src/exe/rbdock.cxx#4 $)

>  <Rbt.Library>
libRbt.so (2013.1, Build901 2013/11/27)

>  <Rbt.Parameter_File>
/export/apps/rDock/src/rDock_2013.1_src/data/scripts/dock_solv.prm

>  <Rbt.Receptor>
prm/pocket_docking_3.prm

>  <SCORE>
-19.5256

>  <SCORE.INTER>
-16.885

>  <SCORE.INTER.CONST>
1

>  <SCORE.INTER.POLAR>
-1.701

>  <SCORE.INTER.ROT>
10

>  <SCORE.INTER.SOLV>
17.0832

>  <SCORE.INTER.VDW>
-21.5477

>  <SCORE.INTER.norm>
-0.422125

>  <SCORE.INTRA>
-2.64216

>  <SCORE.INTRA.DIHEDRAL>
-8.40823

>  <SCORE.INTRA.DIHEDRAL.0>
22.5778

>  <SCORE.INTRA.POLAR>
0

>  <SCORE.INTRA.POLAR.0>
0

>  <SCORE.INTRA.REPUL>
0

>  <SCORE.INTRA.REPUL.0>
0

>  <SCORE.INTRA.SOLV>
3.5165

>  <SCORE.INTRA.SOLV.lig_0>
-102.332

>  <SCORE.INTRA.VDW>
-0.196299

>  <SCORE.INTRA.VDW.0>
-5.08747

>  <SCORE.INTRA.norm>
-0.0660541

>  <SCORE.RESTR>
0.00150791

>  <SCORE.RESTR.CAVITY>
0.00150791

>  <SCORE.RESTR.norm>
3.76978e-05

>  <SCORE.SYSTEM>
0

>  <SCORE.SYSTEM.CONST>
0

>  <SCORE.SYSTEM.DIHEDRAL>
0

>  <SCORE.SYSTEM.SOLV>
0

>  <SCORE.SYSTEM.norm>
0

>  <SCORE.heavy>
40

>  <SCORE.norm>
-0.488141

>  <RMSD>
1.795

$$$$
2g5q_lig
 OpenBabel11021811433D
libRbt.so/2013.1/901 2013/11/27
 40 42  0  0  0  0  0  0  0  0999 V2000
    3.7202   -7.0469   19.1584 C   0  0  2  0  0  0  0  0  0  0  0  0
    2.4904   -7.4955   19.6838 O   0  0  0  0  0  0  0  0  0  0  0  0
    4.8763   -7.6080   20.0379 C   0  0  1  0  0  0  0  0  0  0  0  0
    4.8617   -7.0006   21.4747 C   0  0  2  0  0  0  0  0  0  0  0  0
    5.0065   -5.4624   21.3407 C   0  0  2  0  0  0  0  0  0  0  0  0
    5.0206   -4.8662   22.6479 O   0  0  0  0  0  0  0  0  0  0  0  0
    3.7925   -4.9229   20.4809 C   0  0  2  0  0  0  0  0  0  0  0  0
    3.7967   -5.5625   19.1342 O   0  0  0  0  0  0  0  0  0  0  0  0
    3.8418   -3.4129   20.2728 C   0  0  0  0  0  0  0  0  0  0  0  0
    2.4728   -2.8134   20.1823 N   0  0  0  0  0  0  0  0  0  0  0  0
   -1.3063   -8.9417   18.0805 C   0  0  2  0  0  0  0  0  0  0  0  0
   -2.5367   -9.0180   17.3019 N   0  0  0  0  0  0  0  0  0  0  0  0
   -1.3090   -7.6382   18.9842 C   0  0  0  0  0  0  0  0  0  0  0  0
    0.0191   -7.5553   19.8349 C   0  0  2  0  0  0  0  0  0  0  0  0
   -0.0008   -6.3349   20.6860 N   0  0  0  0  0  0  0  0  0  0  0  0
    1.2675   -7.5607   18.8656 C   0  0  2  0  0  0  0  0  0  0  0  0
    1.2333   -8.8693   17.9806 C   0  0  2  0  0  0  0  0  0  0  0  0
    2.3609   -8.8689   17.0994 O   0  0  0  0  0  0  0  0  0  0  0  0
   -0.0921   -8.9242   17.1289 C   0  0  1  0  0  0  0  0  0  0  0  0
   -0.1267  -10.1364   16.3241 O   0  0  0  0  0  0  0  0  0  0  0  0
    0.5670  -10.2999   15.1116 C   0  0  2  0  0  0  0  0  0  0  0  0
   -0.4013  -11.0150   14.1095 C   0  0  2  0  0  0  0  0  0  0  0  0
   -1.5359  -10.2319   13.9203 O   0  0  0  0  0  0  0  0  0  0  0  0
   -0.7888  -12.4539   14.6213 C   0  0  1  0  0  0  0  0  0  0  0  0
   -1.7127  -13.1491   13.6656 N   0  0  0  0  0  0  0  0  0  0  0  0
    0.5407  -13.2848   14.8199 C   0  0  2  0  0  0  0  0  0  0  0  0
    0.2518  -14.6072   15.2781 O   0  0  0  0  0  0  0  0  0  0  0  0
    1.4610  -12.5201   15.8302 C   0  0  2  0  0  0  0  0  0  0  0  0
    1.7622  -11.1314   15.3400 O   0  0  0  0  0  0  0  0  0  0  0  0
    2.7630  -13.2351   16.0477 C   0  0  0  0  0  0  0  0  0  0  0  0
    3.4861  -13.3885   14.8154 O   0  0  0  0  0  0  0  0  0  0  0  0
    4.7550   -9.0714   20.0816 O   0  0  0  0  0  0  0  0  0  0  0  0
    5.9098   -7.5199   22.2022 O   0  0  0  0  0  0  0  0  0  0  0  0
   -6.0324   -7.5197   18.5876 N   0  0  0  0  0  0  0  0  0  0  0  0
   -3.7220   -9.5979   17.7320 C   0  0  0  0  0  0  0  0  0  0  0  0
   -3.8662  -10.1256   18.8293 O   0  0  0  0  0  0  0  0  0  0  0  0
   -4.8382   -9.5200   16.6650 C   0  0  1  0  0  0  0  0  0  0  0  0
   -5.1462   -8.0468   16.3290 C   0  0  0  0  0  0  0  0  0  0  0  0
   -6.2646   -7.3948   17.1502 C   0  0  0  0  0  0  0  0  0  0  0  0
   -4.4165  -10.2413   15.4855 O   0  0  0  0  0  0  0  0  0  0  0  0
  1  2  1  1  0  0  0
  1  3  1  0  0  0  0
  1  8  1  0  0  0  0
  3  4  1  0  0  0  0
  3 32  1  1  0  0  0
  4  5  1  0  0  0  0
  4 33  1  1  0  0  0
  5  6  1  1  0  0  0
  5  7  1  0  0  0  0
  7  8  1  0  0  0  0
  7  9  1  6  0  0  0
  9 10  1  0  0  0  0
 11 12  1  6  0  0  0
 11 13  1  0  0  0  0
 11 19  1  0  0  0  0
 12 35  1  0  0  0  0
 13 14  1  0  0  0  0
 14 15  1  6  0  0  0
 14 16  1  0  0  0  0
 16  2  1  1  0  0  0
 16 17  1  0  0  0  0
 17 18  1  6  0  0  0
 17 19  1  0  0  0  0
 19 20  1  1  0  0  0
 21 20  1  1  0  0  0
 21 22  1  0  0  0  0
 21 29  1  0  0  0  0
 22 23  1  1  0  0  0
 22 24  1  0  0  0  0
 24 25  1  6  0  0  0
 24 26  1  0  0  0  0
 26 27  1  1  0  0  0
 26 28  1  0  0  0  0
 28 29  1  0  0  0  0
 28 30  1  6  0  0  0
 30 31  1  0  0  0  0
 34 39  1  0  0  0  0
 35 36  2  0  0  0  0
 37 35  1  1  0  0  0
 37 38  1  0  0  0  0
 37 40  1  0  0  0  0
 38 39  1  0  0  0  0
M  END
>  <CHROM.1>
-157.88097497,-148.09710755,-87.44078537,-158.59189553,160.97779022,-137.33975423
59.11838173,-60.55132909,-91.98405656,53.98701048,0.59397934,-8.88322597
17.82955520,-0.84507129,0.16779700,-2.50011391

>  <Name>
2g5q_lig

>  <RI>
0

>  <Rbt.Current_Directory>
/home/itssahil/PROJECTS/Mol_Feturizer/New_Systems/rnas/2g5q

>  <Rbt.Executable>
rbdock ($Id: //depot/dev/client3/rdock/2013.1/src/exe/rbdock.cxx#4 $)

>  <Rbt.Library>
libRbt.so (2013.1, Build901 2013/11/27)

>  <Rbt.Parameter_File>
/export/apps/rDock/src/rDock_2013.1_src/data/scripts/dock_solv.prm

>  <Rbt.Receptor>
prm/pocket_docking_3.prm

>  <SCORE>
-10.8897

>  <SCORE.INTER>
-10.052

>  <SCORE.INTER.CONST>
1

>  <SCORE.INTER.POLAR>
-1.05288

>  <SCORE.INTER.ROT>
10

>  <SCORE.INTER.SOLV>
28.567

>  <SCORE.INTER.VDW>
-22.9808

>  <SCORE.INTER.norm>
-0.2513

>  <SCORE.INTRA>
-0.853226

>  <SCORE.INTRA.DIHEDRAL>
-3.72672

>  <SCORE.INTRA.DIHEDRAL.0>
22.5778

>  <SCORE.INTRA.POLAR>
0

>  <SCORE.INTRA.POLAR.0>
0

>  <SCORE.INTRA.REPUL>
0.118551

>  <SCORE.INTRA.REPUL.0>
0

>  <SCORE.INTRA.SOLV>
1.82573

>  <SCORE.INTRA.SOLV.lig_0>
-102.332

>  <SCORE.INTRA.VDW>
-0.495488

>  <SCORE.INTRA.VDW.0>
-5.08747

>  <SCORE.INTRA.norm>
-0.0213307

>  <SCORE.RESTR>
0.015542

>  <SCORE.RESTR.CAVITY>
0.015542

>  <SCORE.RESTR.norm>
0.000388551

>  <SCORE.SYSTEM>
0

>  <SCORE.SYSTEM.CONST>
0

>  <SCORE.SYSTEM.DIHEDRAL>
0

>  <SCORE.SYSTEM.SOLV>
0

>  <SCORE.SYSTEM.norm>
0

>  <SCORE.heavy>
40

>  <SCORE.norm>
-0.272242

>  <RMSD>
2.018

$$$$
2g5q_lig
 OpenBabel11021811433D
libRbt.so/2013.1/901 2013/11/27
 40 42  0  0  0  0  0  0  0  0999 V2000
    3.0925   -6.2254   19.2022 C   0  0  2  0  0  0  0  0  0  0  0  0
    2.0280   -7.0403   19.6407 O   0  0  0  0  0  0  0  0  0  0  0  0
    4.4384   -6.9063   19.5889 C   0  0  1  0  0  0  0  0  0  0  0  0
    4.6427   -6.9552   21.1347 C   0  0  2  0  0  0  0  0  0  0  0  0
    4.6248   -5.4968   21.6617 C   0  0  2  0  0  0  0  0  0  0  0  0
    4.8336   -5.4978   23.0832 O   0  0  0  0  0  0  0  0  0  0  0  0
    3.2278   -4.8524   21.2909 C   0  0  2  0  0  0  0  0  0  0  0  0
    3.0333   -4.8712   19.8129 O   0  0  0  0  0  0  0  0  0  0  0  0
    3.1049   -3.4041   21.7523 C   0  0  0  0  0  0  0  0  0  0  0  0
    4.0527   -2.5008   21.0260 N   0  0  0  0  0  0  0  0  0  0  0  0
   -0.7868   -9.6772   17.5911 C   0  0  2  0  0  0  0  0  0  0  0  0
   -1.8594  -10.1415   16.7195 N   0  0  0  0  0  0  0  0  0  0  0  0
   -1.3499   -8.6365   18.6474 C   0  0  0  0  0  0  0  0  0  0  0  0
   -0.1924   -8.1363   19.5985 C   0  0  2  0  0  0  0  0  0  0  0  0
   -0.7356   -7.1699   20.5910 N   0  0  0  0  0  0  0  0  0  0  0  0
    0.9582   -7.4859   18.7319 C   0  0  2  0  0  0  0  0  0  0  0  0
    1.4896   -8.5491   17.6908 C   0  0  2  0  0  0  0  0  0  0  0  0
    2.5269   -7.9560   16.9031 O   0  0  0  0  0  0  0  0  0  0  0  0
    0.3230   -9.0229   16.7424 C   0  0  1  0  0  0  0  0  0  0  0  0
    0.8124  -10.0111   15.7926 O   0  0  0  0  0  0  0  0  0  0  0  0
    1.9989  -10.7477   15.9596 C   0  0  2  0  0  0  0  0  0  0  0  0
    2.8018  -10.6549   14.6180 C   0  0  2  0  0  0  0  0  0  0  0  0
    3.0902   -9.3222   14.3400 O   0  0  0  0  0  0  0  0  0  0  0  0
    2.0056  -11.3184   13.4312 C   0  0  1  0  0  0  0  0  0  0  0  0
    2.7687  -11.2387   12.1422 N   0  0  0  0  0  0  0  0  0  0  0  0
    1.7070  -12.8224   13.8135 C   0  0  2  0  0  0  0  0  0  0  0  0
    0.9900  -13.4816   12.7677 O   0  0  0  0  0  0  0  0  0  0  0  0
    0.9035  -12.8458   15.1576 C   0  0  2  0  0  0  0  0  0  0  0  0
    1.6653  -12.1530   16.2528 O   0  0  0  0  0  0  0  0  0  0  0  0
    0.6077  -14.2481   15.6045 C   0  0  0  0  0  0  0  0  0  0  0  0
   -0.1849  -14.9493   14.6324 O   0  0  0  0  0  0  0  0  0  0  0  0
    4.4557   -8.2567   19.0107 O   0  0  0  0  0  0  0  0  0  0  0  0
    5.8506   -7.5534   21.4185 O   0  0  0  0  0  0  0  0  0  0  0  0
   -7.0389  -11.0198   15.1830 N   0  0  0  0  0  0  0  0  0  0  0  0
   -3.0740  -10.6573   17.1493 C   0  0  0  0  0  0  0  0  0  0  0  0
   -3.3820  -10.7889   18.3288 O   0  0  0  0  0  0  0  0  0  0  0  0
   -3.9914  -11.0647   15.9733 C   0  0  1  0  0  0  0  0  0  0  0  0
   -5.1425  -11.9545   16.4847 C   0  0  0  0  0  0  0  0  0  0  0  0
   -6.2711  -12.2265   15.4834 C   0  0  0  0  0  0  0  0  0  0  0  0
   -4.5041   -9.8719   15.3379 O   0  0  0  0  0  0  0  0  0  0  0  0
  1  2  1  1  0  0  0
  1  3  1  0  0  0  0
  1  8  1  0  0  0  0
  3  4  1  0  0  0  0
  3 32  1  1  0  0  0
  4  5  1  0  0  0  0
  4 33  1  6  0  0  0
  5  6  1  1  0  0  0
  5  7  1  0  0  0  0
  7  8  1  0  0  0  0
  7  9  1  6  0  0  0
  9 10  1  0  0  0  0
 11 12  1  6  0  0  0
 11 13  1  0  0  0  0
 11 19  1  0  0  0  0
 12 35  1  0  0  0  0
 13 14  1  0  0  0  0
 14 15  1  1  0  0  0
 14 16  1  0  0  0  0
 16  2  1  1  0  0  0
 16 17  1  0  0  0  0
 17 18  1  6  0  0  0
 17 19  1  0  0  0  0
 19 20  1  6  0  0  0
 21 20  1  6  0  0  0
 21 22  1  0  0  0  0
 21 29  1  0  0  0  0
 22 23  1  6  0  0  0
 22 24  1  0  0  0  0
 24 25  1  6  0  0  0
 24 26  1  0  0  0  0
 26 27  1  6  0  0  0
 26 28  1  0  0  0  0
 28 29  1  0  0  0  0
 28 30  1  1  0  0  0
 30 31  1  0  0  0  0
 34 39  1  0  0  0  0
 35 36  2  0  0  0  0
 37 35  1  1  0  0  0
 37 38  1  0  0  0  0
 37 40  1  0  0  0  0
 38 39  1  0  0  0  0
M  END
>  <CHROM.1>
-126.54786769,66.21810781,-51.91461548,-169.36642777,-100.52910863,-131.48307365
-60.59820590,165.21724866,169.32840168,-67.79607593,0.86342453,-9.20322068
17.50399427,-0.97228564,-0.09284856,-2.34782726

>  <Name>
2g5q_lig

>  <RI>
0

>  <Rbt.Current_Directory>
/home/itssahil/PROJECTS/Mol_Feturizer/New_Systems/rnas/2g5q

>  <Rbt.Executable>
rbdock ($Id: //depot/dev/client3/rdock/2013.1/src/exe/rbdock.cxx#4 $)

>  <Rbt.Library>
libRbt.so (2013.1, Build901 2013/11/27)

>  <Rbt.Parameter_File>
/export/apps/rDock/src/rDock_2013.1_src/data/scripts/dock_solv.prm

>  <Rbt.Receptor>
prm/pocket_docking_2.prm

>  <SCORE>
-5.99966

>  <SCORE.INTER>
-10.6728

>  <SCORE.INTER.CONST>
1

>  <SCORE.INTER.POLAR>
-0.982752

>  <SCORE.INTER.ROT>
10

>  <SCORE.INTER.SOLV>
22.8195

>  <SCORE.INTER.VDW>
-21.7125

>  <SCORE.INTER.norm>
-0.26682

>  <SCORE.INTRA>
2.84749

>  <SCORE.INTRA.DIHEDRAL>
-1.14832

>  <SCORE.INTRA.DIHEDRAL.0>
22.5778

>  <SCORE.INTRA.POLAR>
0

>  <SCORE.INTRA.POLAR.0>
0

>  <SCORE.INTRA.REPUL>
0

>  <SCORE.INTRA.REPUL.0>
0

>  <SCORE.INTRA.SOLV>
2.2144

>  <SCORE.INTRA.SOLV.lig_0>
-102.332

>  <SCORE.INTRA.VDW>
2.31445

>  <SCORE.INTRA.VDW.0>
-5.08747

>  <SCORE.INTRA.norm>
0.0711872

>  <SCORE.RESTR>
1.82566

>  <SCORE.RESTR.CAVITY>
1.82566

>  <SCORE.RESTR.norm>
0.0456414

>  <SCORE.SYSTEM>
0

>  <SCORE.SYSTEM.CONST>
0

>  <SCORE.SYSTEM.DIHEDRAL>
0

>  <SCORE.SYSTEM.SOLV>
0

>  <SCORE.SYSTEM.norm>
0

>  <SCORE.heavy>
40

>  <SCORE.norm>
-0.149991

>  <RMSD>
2.296

$$$$
2g5q_lig
 OpenBabel11021811433D
libRbt.so/2013.1/901 2013/11/27
 40 42  0  0  0  0  0  0  0  0999 V2000
    1.9311   -7.3713   20.1914 C   0  0  2  0  0  0  0  0  0  0  0  0
    1.4453   -8.6486   19.8424 O   0  0  0  0  0  0  0  0  0  0  0  0
    2.9015   -6.8813   19.0765 C   0  0  1  0  0  0  0  0  0  0  0  0
    4.1971   -7.7478   19.0108 C   0  0  2  0  0  0  0  0  0  0  0  0
    4.8986   -7.6571   20.3909 C   0  0  2  0  0  0  0  0  0  0  0  0
    6.1122   -8.4259   20.3636 O   0  0  0  0  0  0  0  0  0  0  0  0
    3.9016   -8.2042   21.4912 C   0  0  2  0  0  0  0  0  0  0  0  0
    2.6493   -7.3951   21.4928 O   0  0  0  0  0  0  0  0  0  0  0  0
    4.4869   -8.1482   22.8982 C   0  0  0  0  0  0  0  0  0  0  0  0
    4.7455   -6.7422   23.3434 N   0  0  0  0  0  0  0  0  0  0  0  0
   -1.8883  -10.4167   17.6428 C   0  0  2  0  0  0  0  0  0  0  0  0
   -2.9362  -10.6145   16.6485 N   0  0  0  0  0  0  0  0  0  0  0  0
   -2.1309   -9.0635   18.4337 C   0  0  0  0  0  0  0  0  0  0  0  0
   -1.0017   -8.8488   19.5170 C   0  0  2  0  0  0  0  0  0  0  0  0
   -1.2468   -7.5826   20.2589 N   0  0  0  0  0  0  0  0  0  0  0  0
    0.4119   -8.8373   18.8101 C   0  0  2  0  0  0  0  0  0  0  0  0
    0.6149  -10.1967   18.0306 C   0  0  2  0  0  0  0  0  0  0  0  0
    1.8926  -10.1814   17.3862 O   0  0  0  0  0  0  0  0  0  0  0  0
   -0.5128  -10.3834   16.9450 C   0  0  1  0  0  0  0  0  0  0  0  0
   -0.3305  -11.6420   16.2371 O   0  0  0  0  0  0  0  0  0  0  0  0
   -0.8631  -11.9172   14.9648 C   0  0  2  0  0  0  0  0  0  0  0  0
   -0.8131  -13.4693   14.7607 C   0  0  2  0  0  0  0  0  0  0  0  0
   -1.5671  -14.0929   15.7502 O   0  0  0  0  0  0  0  0  0  0  0  0
    0.6717  -13.9967   14.7675 C   0  0  1  0  0  0  0  0  0  0  0  0
    0.7304  -15.4823   14.5680 N   0  0  0  0  0  0  0  0  0  0  0  0
    1.4701  -13.2464   13.6286 C   0  0  2  0  0  0  0  0  0  0  0  0
    2.8277  -13.6900   13.5806 O   0  0  0  0  0  0  0  0  0  0  0  0
    1.3834  -11.7049   13.8907 C   0  0  2  0  0  0  0  0  0  0  0  0
   -0.0474  -11.2459   13.9372 O   0  0  0  0  0  0  0  0  0  0  0  0
    2.0954  -10.9191   12.8280 C   0  0  0  0  0  0  0  0  0  0  0  0
    2.4466   -9.6069   13.2967 O   0  0  0  0  0  0  0  0  0  0  0  0
    2.1834   -6.9067   17.7952 O   0  0  0  0  0  0  0  0  0  0  0  0
    5.0224   -7.2635   18.0200 O   0  0  0  0  0  0  0  0  0  0  0  0
   -7.7483   -9.0546   16.8925 N   0  0  0  0  0  0  0  0  0  0  0  0
   -4.0513  -11.4248   16.8105 C   0  0  0  0  0  0  0  0  0  0  0  0
   -4.2788  -12.0807   17.8211 O   0  0  0  0  0  0  0  0  0  0  0  0
   -4.9684  -11.4223   15.5658 C   0  0  1  0  0  0  0  0  0  0  0  0
   -5.9632  -10.2465   15.6446 C   0  0  0  0  0  0  0  0  0  0  0  0
   -6.8888  -10.2363   16.8667 C   0  0  0  0  0  0  0  0  0  0  0  0
   -4.1520  -11.3289   14.3766 O   0  0  0  0  0  0  0  0  0  0  0  0
  1  2  1  6  0  0  0
  1  3  1  0  0  0  0
  1  8  1  0  0  0  0
  3  4  1  0  0  0  0
  3 32  1  6  0  0  0
  4  5  1  0  0  0  0
  4 33  1  6  0  0  0
  5  6  1  6  0  0  0
  5  7  1  0  0  0  0
  7  8  1  0  0  0  0
  7  9  1  1  0  0  0
  9 10  1  0  0  0  0
 11 12  1  6  0  0  0
 11 13  1  0  0  0  0
 11 19  1  0  0  0  0
 12 35  1  0  0  0  0
 13 14  1  0  0  0  0
 14 15  1  6  0  0  0
 14 16  1  0  0  0  0
 16  2  1  1  0  0  0
 16 17  1  0  0  0  0
 17 18  1  6  0  0  0
 17 19  1  0  0  0  0
 19 20  1  1  0  0  0
 21 20  1  1  0  0  0
 21 22  1  0  0  0  0
 21 29  1  0  0  0  0
 22 23  1  1  0  0  0
 22 24  1  0  0  0  0
 24 25  1  6  0  0  0
 24 26  1  0  0  0  0
 26 27  1  1  0  0  0
 26 28  1  0  0  0  0
 28 29  1  0  0  0  0
 28 30  1  6  0  0  0
 30 31  1  0  0  0  0
 34 39  1  0  0  0  0
 35 36  2  0  0  0  0
 37 35  1  1  0  0  0
 37 38  1  0  0  0  0
 37 40  1  0  0  0  0
 38 39  1  0  0  0  0
M  END
>  <CHROM.1>
-75.89147412,64.20714390,-98.81689355,-92.61513770,82.06174820,-163.28816506
-158.53218478,-86.58673599,-59.22546334,177.13745115,0.23030699,-10.10629351
17.32470813,0.76028788,0.01782358,0.91060618

>  <Name>
2g5q_lig

>  <RI>
0

>  <Rbt.Current_Directory>
/home/itssahil/PROJECTS/Mol_Feturizer/New_Systems/rnas/2g5q

>  <Rbt.Executable>
rbdock ($Id: //depot/dev/client3/rdock/2013.1/src/exe/rbdock.cxx#4 $)

>  <Rbt.Library>
libRbt.so (2013.1, Build901 2013/11/27)

>  <Rbt.Parameter_File>
/export/apps/rDock/src/rDock_2013.1_src/data/scripts/dock_solv.prm

>  <Rbt.Receptor>
prm/pocket_docking_3.prm

>  <SCORE>
-16.5978

>  <SCORE.INTER>
-11.9982

>  <SCORE.INTER.CONST>
1

>  <SCORE.INTER.POLAR>
-1.54824

>  <SCORE.INTER.ROT>
10

>  <SCORE.INTER.SOLV>
22.9387

>  <SCORE.INTER.VDW>
-20.7509

>  <SCORE.INTER.norm>
-0.299955

>  <SCORE.INTRA>
-4.59964

>  <SCORE.INTRA.DIHEDRAL>
-9.92786

>  <SCORE.INTRA.DIHEDRAL.0>
22.5778

>  <SCORE.INTRA.POLAR>
0

>  <SCORE.INTRA.POLAR.0>
0

>  <SCORE.INTRA.REPUL>
0

>  <SCORE.INTRA.REPUL.0>
0

>  <SCORE.INTRA.SOLV>
1.5065

>  <SCORE.INTRA.SOLV.lig_0>
-102.332

>  <SCORE.INTRA.VDW>
-0.388967

>  <SCORE.INTRA.VDW.0>
-5.08747

>  <SCORE.INTRA.norm>
-0.114991

>  <SCORE.RESTR>
0

>  <SCORE.RESTR.CAVITY>
0

>  <SCORE.RESTR.norm>
0

>  <SCORE.SYSTEM>
0

>  <SCORE.SYSTEM.CONST>
0

>  <SCORE.SYSTEM.DIHEDRAL>
0

>  <SCORE.SYSTEM.SOLV>
0

>  <SCORE.SYSTEM.norm>
0

>  <SCORE.heavy>
40

>  <SCORE.norm>
-0.414946

>  <RMSD>
2.338

$$$$
2g5q_lig
 OpenBabel11021811433D
libRbt.so/2013.1/901 2013/11/27
 40 42  0  0  0  0  0  0  0  0999 V2000
    3.6483   -6.5280   19.1696 C   0  0  2  0  0  0  0  0  0  0  0  0
    2.4450   -7.0965   19.6369 O   0  0  0  0  0  0  0  0  0  0  0  0
    4.8203   -7.0267   20.0655 C   0  0  1  0  0  0  0  0  0  0  0  0
    4.7121   -6.4802   21.5226 C   0  0  2  0  0  0  0  0  0  0  0  0
    4.7321   -4.9312   21.4508 C   0  0  2  0  0  0  0  0  0  0  0  0
    4.6573   -4.3883   22.7790 O   0  0  0  0  0  0  0  0  0  0  0  0
    3.5038   -4.4594   20.5718 C   0  0  2  0  0  0  0  0  0  0  0  0
    3.6016   -5.0424   19.2031 O   0  0  0  0  0  0  0  0  0  0  0  0
    3.4332   -2.9435   20.4217 C   0  0  0  0  0  0  0  0  0  0  0  0
    2.7959   -2.2905   21.6087 N   0  0  0  0  0  0  0  0  0  0  0  0
   -0.6985   -9.2964   17.5498 C   0  0  2  0  0  0  0  0  0  0  0  0
   -1.8369   -9.5938   16.6887 N   0  0  0  0  0  0  0  0  0  0  0  0
   -1.1149   -8.2514   18.6681 C   0  0  0  0  0  0  0  0  0  0  0  0
    0.1137   -7.9317   19.6077 C   0  0  2  0  0  0  0  0  0  0  0  0
   -0.2927   -6.9596   20.6583 N   0  0  0  0  0  0  0  0  0  0  0  0
    1.3107   -7.3738   18.7394 C   0  0  2  0  0  0  0  0  0  0  0  0
    1.6933   -8.4384   17.6361 C   0  0  2  0  0  0  0  0  0  0  0  0
    2.7730   -7.9285   16.8472 O   0  0  0  0  0  0  0  0  0  0  0  0
    0.4587   -8.7309   16.7007 C   0  0  1  0  0  0  0  0  0  0  0  0
    0.8103   -9.7207   15.6932 O   0  0  0  0  0  0  0  0  0  0  0  0
    1.4812  -10.9256   15.9696 C   0  0  2  0  0  0  0  0  0  0  0  0
    1.8999  -11.5551   14.5978 C   0  0  2  0  0  0  0  0  0  0  0  0
    2.7375  -10.6752   13.9190 O   0  0  0  0  0  0  0  0  0  0  0  0
    0.6367  -11.9151   13.7276 C   0  0  1  0  0  0  0  0  0  0  0  0
    1.0275  -12.5231   12.4131 N   0  0  0  0  0  0  0  0  0  0  0  0
   -0.2705  -12.9084   14.5568 C   0  0  2  0  0  0  0  0  0  0  0  0
   -1.4333  -13.2784   13.8130 O   0  0  0  0  0  0  0  0  0  0  0  0
   -0.6550  -12.2213   15.9106 C   0  0  2  0  0  0  0  0  0  0  0  0
    0.5732  -11.8376   16.6879 O   0  0  0  0  0  0  0  0  0  0  0  0
   -1.4951  -13.1196   16.7714 C   0  0  0  0  0  0  0  0  0  0  0  0
   -2.7614  -13.4001   16.1527 O   0  0  0  0  0  0  0  0  0  0  0  0
    4.8201   -8.4957   20.0508 O   0  0  0  0  0  0  0  0  0  0  0  0
    5.7775   -6.9402   22.2647 O   0  0  0  0  0  0  0  0  0  0  0  0
   -7.4798  -12.1418   15.9444 N   0  0  0  0  0  0  0  0  0  0  0  0
   -2.9694  -10.2980   17.0730 C   0  0  0  0  0  0  0  0  0  0  0  0
   -3.1378  -10.7622   18.1953 O   0  0  0  0  0  0  0  0  0  0  0  0
   -3.9902  -10.4478   15.9215 C   0  0  1  0  0  0  0  0  0  0  0  0
   -5.1771  -11.3204   16.3776 C   0  0  0  0  0  0  0  0  0  0  0  0
   -6.3083  -11.4942   15.3576 C   0  0  0  0  0  0  0  0  0  0  0  0
   -4.4403   -9.1359   15.5146 O   0  0  0  0  0  0  0  0  0  0  0  0
  1  2  1  1  0  0  0
  1  3  1  0  0  0  0
  1  8  1  0  0  0  0
  3  4  1  0  0  0  0
  3 32  1  1  0  0  0
  4  5  1  0  0  0  0
  4 33  1  1  0  0  0
  5  6  1  1  0  0  0
  5  7  1  0  0  0  0
  7  8  1  0  0  0  0
  7  9  1  6  0  0  0
  9 10  1  0  0  0  0
 11 12  1  6  0  0  0
 11 13  1  0  0  0  0
 11 19  1  0  0  0  0
 12 35  1  0  0  0  0
 13 14  1  0  0  0  0
 14 15  1  1  0  0  0
 14 16  1  0  0  0  0
 16  2  1  1  0  0  0
 16 17  1  0  0  0  0
 17 18  1  6  0  0  0
 17 19  1  0  0  0  0
 19 20  1  6  0  0  0
 21 20  1  6  0  0  0
 21 22  1  0  0  0  0
 21 29  1  0  0  0  0
 22 23  1  6  0  0  0
 22 24  1  0  0  0  0
 24 25  1  6  0  0  0
 24 26  1  0  0  0  0
 26 27  1  6  0  0  0
 26 28  1  0  0  0  0
 28 29  1  0  0  0  0
 28 30  1  1  0  0  0
 30 31  1  0  0  0  0
 34 39  1  0  0  0  0
 35 36  2  0  0  0  0
 37 35  1  1  0  0  0
 37 38  1  0  0  0  0
 37 40  1  0  0  0  0
 38 39  1  0  0  0  0
M  END
>  <CHROM.1>
-150.59219934,-81.58087516,-68.99267166,-177.00463142,-72.20208039,-169.38702482
-64.24339715,176.02957468,176.88348872,-170.51195620,0.52964552,-9.02629851
17.66511889,-0.89458275,-0.07177744,-2.38193473

>  <Name>
2g5q_lig

>  <RI>
0

>  <Rbt.Current_Directory>
/home/itssahil/PROJECTS/Mol_Feturizer/New_Systems/rnas/2g5q

>  <Rbt.Executable>
rbdock ($Id: //depot/dev/client3/rdock/2013.1/src/exe/rbdock.cxx#4 $)

>  <Rbt.Library>
libRbt.so (2013.1, Build901 2013/11/27)

>  <Rbt.Parameter_File>
/export/apps/rDock/src/rDock_2013.1_src/data/scripts/dock_solv.prm

>  <Rbt.Receptor>
prm/pocket_docking_2.prm

>  <SCORE>
-16.6299

>  <SCORE.INTER>
-11.015

>  <SCORE.INTER.CONST>
1

>  <SCORE.INTER.POLAR>
-0.978158

>  <SCORE.INTER.ROT>
10

>  <SCORE.INTER.SOLV>
24.1795

>  <SCORE.INTER.VDW>
-22.4093

>  <SCORE.INTER.norm>
-0.275374

>  <SCORE.INTRA>
-6.84871

>  <SCORE.INTRA.DIHEDRAL>
-14.9689

>  <SCORE.INTRA.DIHEDRAL.0>
22.5778

>  <SCORE.INTRA.POLAR>
0

>  <SCORE.INTRA.POLAR.0>
0

>  <SCORE.INTRA.REPUL>
0

>  <SCORE.INTRA.REPUL.0>
0

>  <SCORE.INTRA.SOLV>
1.17917

>  <SCORE.INTRA.SOLV.lig_0>
-102.332

>  <SCORE.INTRA.VDW>
0.0461457

>  <SCORE.INTRA.VDW.0>
-5.08747

>  <SCORE.INTRA.norm>
-0.171218

>  <SCORE.RESTR>
1.23378

>  <SCORE.RESTR.CAVITY>
1.23378

>  <SCORE.RESTR.norm>
0.0308446

>  <SCORE.SYSTEM>
0

>  <SCORE.SYSTEM.CONST>
0

>  <SCORE.SYSTEM.DIHEDRAL>
0

>  <SCORE.SYSTEM.SOLV>
0

>  <SCORE.SYSTEM.norm>
0

>  <SCORE.heavy>
40

>  <SCORE.norm>
-0.415747

>  <RMSD>
2.379

$$$$
2g5q_lig
 OpenBabel11021811433D
libRbt.so/2013.1/901 2013/11/27
 40 42  0  0  0  0  0  0  0  0999 V2000
    4.0100   -6.8017   19.7494 C   0  0  2  0  0  0  0  0  0  0  0  0
    2.7953   -7.4280   20.0982 O   0  0  0  0  0  0  0  0  0  0  0  0
    5.1892   -7.6284   20.3417 C   0  0  1  0  0  0  0  0  0  0  0  0
    5.2036   -7.5867   21.9010 C   0  0  2  0  0  0  0  0  0  0  0  0
    5.3358   -6.1036   22.3345 C   0  0  2  0  0  0  0  0  0  0  0  0
    5.3760   -6.0247   23.7686 O   0  0  0  0  0  0  0  0  0  0  0  0
    4.0993   -5.3049   21.7538 C   0  0  2  0  0  0  0  0  0  0  0  0
    4.0768   -5.4095   20.2668 O   0  0  0  0  0  0  0  0  0  0  0  0
    4.1345   -3.8224   22.1098 C   0  0  0  0  0  0  0  0  0  0  0  0
    2.9454   -3.0876   21.5734 N   0  0  0  0  0  0  0  0  0  0  0  0
   -0.5233   -9.4289   18.0830 C   0  0  2  0  0  0  0  0  0  0  0  0
   -1.5853   -9.7181   17.1269 N   0  0  0  0  0  0  0  0  0  0  0  0
   -0.7946   -8.0408   18.8010 C   0  0  0  0  0  0  0  0  0  0  0  0
    0.3500   -7.7270   19.8431 C   0  0  2  0  0  0  0  0  0  0  0  0
    0.0781   -6.4287   20.5173 N   0  0  0  0  0  0  0  0  0  0  0  0
    1.7466   -7.7099   19.1032 C   0  0  2  0  0  0  0  0  0  0  0  0
    1.9788   -9.1047   18.3980 C   0  0  2  0  0  0  0  0  0  0  0  0
    3.2409   -9.0847   17.7236 O   0  0  0  0  0  0  0  0  0  0  0  0
    0.8347   -9.3908   17.3520 C   0  0  1  0  0  0  0  0  0  0  0  0
    1.0443  -10.6815   16.7129 O   0  0  0  0  0  0  0  0  0  0  0  0
    2.3028  -11.1773   16.3274 C   0  0  2  0  0  0  0  0  0  0  0  0
    2.5089  -10.8124   14.8182 C   0  0  2  0  0  0  0  0  0  0  0  0
    2.4609   -9.4303   14.6633 O   0  0  0  0  0  0  0  0  0  0  0  0
    1.4326  -11.5188   13.9098 C   0  0  1  0  0  0  0  0  0  0  0  0
    1.6244  -11.1790   12.4614 N   0  0  0  0  0  0  0  0  0  0  0  0
    1.5373  -13.0790   14.1381 C   0  0  2  0  0  0  0  0  0  0  0  0
    0.5863  -13.7772   13.3317 O   0  0  0  0  0  0  0  0  0  0  0  0
    1.3210  -13.3765   15.6603 C   0  0  2  0  0  0  0  0  0  0  0  0
    2.3265  -12.6406   16.5013 O   0  0  0  0  0  0  0  0  0  0  0  0
    1.4374  -14.8423   15.9627 C   0  0  0  0  0  0  0  0  0  0  0  0
    1.0879  -15.1227   17.3280 O   0  0  0  0  0  0  0  0  0  0  0  0
    5.0780   -9.0086   19.8510 O   0  0  0  0  0  0  0  0  0  0  0  0
    6.2711   -8.3207   22.3691 O   0  0  0  0  0  0  0  0  0  0  0  0
   -4.3602  -12.5281   18.3620 N   0  0  0  0  0  0  0  0  0  0  0  0
   -2.9032  -10.0033   17.4557 C   0  0  0  0  0  0  0  0  0  0  0  0
   -3.3258  -10.0518   18.6056 O   0  0  0  0  0  0  0  0  0  0  0  0
   -3.7778  -10.2706   16.2091 C   0  0  1  0  0  0  0  0  0  0  0  0
   -5.1134  -10.9171   16.6294 C   0  0  0  0  0  0  0  0  0  0  0  0
   -5.0349  -12.3822   17.0739 C   0  0  0  0  0  0  0  0  0  0  0  0
   -4.0041   -9.0239   15.5136 O   0  0  0  0  0  0  0  0  0  0  0  0
  1  2  1  1  0  0  0
  1  3  1  0  0  0  0
  1  8  1  0  0  0  0
  3  4  1  0  0  0  0
  3 32  1  1  0  0  0
  4  5  1  0  0  0  0
  4 33  1  6  0  0  0
  5  6  1  1  0  0  0
  5  7  1  0  0  0  0
  7  8  1  0  0  0  0
  7  9  1  6  0  0  0
  9 10  1  0  0  0  0
 11 12  1  6  0  0  0
 11 13  1  0  0  0  0
 11 19  1  0  0  0  0
 12 35  1  0  0  0  0
 13 14  1  0  0  0  0
 14 15  1  6  0  0  0
 14 16  1  0  0  0  0
 16  2  1  1  0  0  0
 16 17  1  0  0  0  0
 17 18  1  6  0  0  0
 17 19  1  0  0  0  0
 19 20  1  1  0  0  0
 21 20  1  6  0  0  0
 21 22  1  0  0  0  0
 21 29  1  0  0  0  0
 22 23  1  1  0  0  0
 22 24  1  0  0  0  0
 24 25  1  6  0  0  0
 24 26  1  0  0  0  0
 26 27  1  6  0  0  0
 26 28  1  0  0  0  0
 28 29  1  0  0  0  0
 28 30  1  6  0  0  0
 30 31  1  0  0  0  0
 34 39  1  0  0  0  0
 35 36  2  0  0  0  0
 37 35  1  1  0  0  0
 37 38  1  0  0  0  0
 37 40  1  0  0  0  0
 38 39  1  0  0  0  0
M  END
>  <CHROM.1>
-130.72958516,-178.97904025,-67.80758704,-152.64063043,-158.89298170,-94.87481883
-173.39542793,165.92005701,-73.04711773,70.34225655,1.30280443,-9.41658213
18.12471700,-0.97426385,0.05519496,-2.40290092

>  <Name>
2g5q_lig

>  <RI>
9.52566e+06

>  <Rbt.Current_Directory>
/home/itssahil/PROJECTS/Mol_Feturizer/New_Systems/rnas/2g5q

>  <Rbt.Executable>
rbdock ($Id: //depot/dev/client3/rdock/2013.1/src/exe/rbdock.cxx#4 $)

>  <Rbt.Library>
libRbt.so (2013.1, Build901 2013/11/27)

>  <Rbt.Parameter_File>
/export/apps/rDock/src/rDock_2013.1_src/data/scripts/dock_solv.prm

>  <Rbt.Receptor>
prm/pocket_docking_4.prm

>  <SCORE>
-12.5605

>  <SCORE.INTER>
-13.3135

>  <SCORE.INTER.CONST>
1

>  <SCORE.INTER.POLAR>
-1.59671

>  <SCORE.INTER.ROT>
10

>  <SCORE.INTER.SOLV>
18.6459

>  <SCORE.INTER.VDW>
-20.0353

>  <SCORE.INTER.norm>
-0.332838

>  <SCORE.INTRA>
0.753058

>  <SCORE.INTRA.DIHEDRAL>
-4.14004

>  <SCORE.INTRA.DIHEDRAL.0>
22.5778

>  <SCORE.INTRA.POLAR>
0

>  <SCORE.INTRA.POLAR.0>
0

>  <SCORE.INTRA.REPUL>
0

>  <SCORE.INTRA.REPUL.0>
0

>  <SCORE.INTRA.SOLV>
2.08995

>  <SCORE.INTRA.SOLV.lig_0>
-102.332

>  <SCORE.INTRA.VDW>
1.77811

>  <SCORE.INTRA.VDW.0>
-5.08747

>  <SCORE.INTRA.norm>
0.0188264

>  <SCORE.RESTR>
0

>  <SCORE.RESTR.CAVITY>
0

>  <SCORE.RESTR.norm>
0

>  <SCORE.SYSTEM>
0

>  <SCORE.SYSTEM.CONST>
0

>  <SCORE.SYSTEM.DIHEDRAL>
0

>  <SCORE.SYSTEM.SOLV>
0

>  <SCORE.SYSTEM.norm>
0

>  <SCORE.heavy>
40

>  <SCORE.norm>
-0.314011

>  <RMSD>
2.386

$$$$
2g5q_lig
 OpenBabel11021811433D
libRbt.so/2013.1/901 2013/11/27
 40 42  0  0  0  0  0  0  0  0999 V2000
    3.8322   -7.2865   19.2237 C   0  0  2  0  0  0  0  0  0  0  0  0
    2.5920   -7.7266   19.7312 O   0  0  0  0  0  0  0  0  0  0  0  0
    4.9689   -7.8168   20.1465 C   0  0  1  0  0  0  0  0  0  0  0  0
    4.9164   -7.1697   21.5649 C   0  0  2  0  0  0  0  0  0  0  0  0
    5.0575   -5.6351   21.3915 C   0  0  2  0  0  0  0  0  0  0  0  0
    5.0369   -5.0026   22.6815 O   0  0  0  0  0  0  0  0  0  0  0  0
    3.8626   -5.1260   20.4876 C   0  0  2  0  0  0  0  0  0  0  0  0
    3.9027   -5.8029   19.1598 O   0  0  0  0  0  0  0  0  0  0  0  0
    3.9101   -3.6223   20.2385 C   0  0  0  0  0  0  0  0  0  0  0  0
    2.5437   -3.0412   20.0464 N   0  0  0  0  0  0  0  0  0  0  0  0
   -0.8853   -9.8485   18.1555 C   0  0  2  0  0  0  0  0  0  0  0  0
   -2.0219  -10.2025   17.3138 N   0  0  0  0  0  0  0  0  0  0  0  0
   -1.0928   -8.4048   18.7787 C   0  0  0  0  0  0  0  0  0  0  0  0
    0.1331   -8.0202   19.6973 C   0  0  2  0  0  0  0  0  0  0  0  0
   -0.0790   -6.6694   20.2842 N   0  0  0  0  0  0  0  0  0  0  0  0
    1.4656   -8.0765   18.8492 C   0  0  2  0  0  0  0  0  0  0  0  0
    1.6352   -9.5256   18.2424 C   0  0  2  0  0  0  0  0  0  0  0  0
    2.8389   -9.5724   17.4699 O   0  0  0  0  0  0  0  0  0  0  0  0
    0.4096   -9.8828   17.3176 C   0  0  1  0  0  0  0  0  0  0  0  0
    0.5623  -11.2226   16.7699 O   0  0  0  0  0  0  0  0  0  0  0  0
    1.7515  -11.7129   16.2010 C   0  0  2  0  0  0  0  0  0  0  0  0
    1.6925  -11.4189   14.6637 C   0  0  2  0  0  0  0  0  0  0  0  0
    1.5822  -10.0473   14.4567 O   0  0  0  0  0  0  0  0  0  0  0  0
    0.4988  -12.1893   13.9824 C   0  0  1  0  0  0  0  0  0  0  0  0
    0.4367  -11.9177   12.5084 N   0  0  0  0  0  0  0  0  0  0  0  0
    0.6822  -13.7342   14.2602 C   0  0  2  0  0  0  0  0  0  0  0  0
   -0.3711  -14.4891   13.6579 O   0  0  0  0  0  0  0  0  0  0  0  0
    0.7315  -13.9604   15.8091 C   0  0  2  0  0  0  0  0  0  0  0  0
    1.8433  -13.1652   16.4347 O   0  0  0  0  0  0  0  0  0  0  0  0
    0.9361  -15.4071   16.1537 C   0  0  0  0  0  0  0  0  0  0  0  0
    2.1428  -15.9183   15.5642 O   0  0  0  0  0  0  0  0  0  0  0  0
    4.8532   -9.2790   20.2282 O   0  0  0  0  0  0  0  0  0  0  0  0
    5.9486   -7.6631   22.3321 O   0  0  0  0  0  0  0  0  0  0  0  0
   -6.5978  -10.8562   15.5230 N   0  0  0  0  0  0  0  0  0  0  0  0
   -2.3549  -11.4904   16.9178 C   0  0  0  0  0  0  0  0  0  0  0  0
   -1.7157  -12.4887   17.2308 O   0  0  0  0  0  0  0  0  0  0  0  0
   -3.6145  -11.5252   16.0219 C   0  0  1  0  0  0  0  0  0  0  0  0
   -4.8319  -12.0017   16.8399 C   0  0  0  0  0  0  0  0  0  0  0  0
   -6.1464  -12.1372   16.0627 C   0  0  0  0  0  0  0  0  0  0  0  0
   -3.8435  -10.2066   15.4760 O   0  0  0  0  0  0  0  0  0  0  0  0
  1  2  1  1  0  0  0
  1  3  1  0  0  0  0
  1  8  1  0  0  0  0
  3  4  1  0  0  0  0
  3 32  1  1  0  0  0
  4  5  1  0  0  0  0
  4 33  1  1  0  0  0
  5  6  1  1  0  0  0
  5  7  1  0  0  0  0
  7  8  1  0  0  0  0
  7  9  1  6  0  0  0
  9 10  1  0  0  0  0
 11 12  1  6  0  0  0
 11 13  1  0  0  0  0
 11 19  1  0  0  0  0
 12 35  1  0  0  0  0
 13 14  1  0  0  0  0
 14 15  1  6  0  0  0
 14 16  1  0  0  0  0
 16  2  1  1  0  0  0
 16 17  1  0  0  0  0
 17 18  1  6  0  0  0
 17 19  1  0  0  0  0
 19 20  1  1  0  0  0
 21 20  1  1  0  0  0
 21 22  1  0  0  0  0
 21 29  1  0  0  0  0
 22 23  1  1  0  0  0
 22 24  1  0  0  0  0
 24 25  1  6  0  0  0
 24 26  1  0  0  0  0
 26 27  1  1  0  0  0
 26 28  1  0  0  0  0
 28 29  1  0  0  0  0
 28 30  1  6  0  0  0
 30 31  1  0  0  0  0
 34 39  1  0  0  0  0
 35 36  2  0  0  0  0
 37 35  1  1  0  0  0
 37 38  1  0  0  0  0
 37 40  1  0  0  0  0
 38 39  1  0  0  0  0
M  END
>  <CHROM.1>
-145.50360413,-150.25347915,-161.27399422,-160.06818602,-165.68224356,-91.75796026
57.69966827,-102.91082550,-177.73690909,-62.46023703,0.96667144,-9.80091460
17.69857709,-0.96520533,0.15212187,-2.56265410

>  <Name>
2g5q_lig

>  <RI>
9.52566e+06

>  <Rbt.Current_Directory>
/home/itssahil/PROJECTS/Mol_Feturizer/New_Systems/rnas/2g5q

>  <Rbt.Executable>
rbdock ($Id: //depot/dev/client3/rdock/2013.1/src/exe/rbdock.cxx#4 $)

>  <Rbt.Library>
libRbt.so (2013.1, Build901 2013/11/27)

>  <Rbt.Parameter_File>
/export/apps/rDock/src/rDock_2013.1_src/data/scripts/dock_solv.prm

>  <Rbt.Receptor>
prm/pocket_docking_4.prm

>  <SCORE>
-13.1603

>  <SCORE.INTER>
-11.3881

>  <SCORE.INTER.CONST>
1

>  <SCORE.INTER.POLAR>
-1.23787

>  <SCORE.INTER.ROT>
10

>  <SCORE.INTER.SOLV>
25.7952

>  <SCORE.INTER.VDW>
-22.3309

>  <SCORE.INTER.norm>
-0.284702

>  <SCORE.INTRA>
-1.77221

>  <SCORE.INTRA.DIHEDRAL>
-6.38153

>  <SCORE.INTRA.DIHEDRAL.0>
22.5778

>  <SCORE.INTRA.POLAR>
0

>  <SCORE.INTRA.POLAR.0>
0

>  <SCORE.INTRA.REPUL>
0

>  <SCORE.INTRA.REPUL.0>
0

>  <SCORE.INTRA.SOLV>
1.7355

>  <SCORE.INTRA.SOLV.lig_0>
-102.332

>  <SCORE.INTRA.VDW>
0.550799

>  <SCORE.INTRA.VDW.0>
-5.08747

>  <SCORE.INTRA.norm>
-0.0443053

>  <SCORE.RESTR>
0

>  <SCORE.RESTR.CAVITY>
0

>  <SCORE.RESTR.norm>
0

>  <SCORE.SYSTEM>
0

>  <SCORE.SYSTEM.CONST>
0

>  <SCORE.SYSTEM.DIHEDRAL>
0

>  <SCORE.SYSTEM.SOLV>
0

>  <SCORE.SYSTEM.norm>
0

>  <SCORE.heavy>
40

>  <SCORE.norm>
-0.329007

>  <RMSD>
2.402

$$$$
2g5q_lig
 OpenBabel11021811433D
libRbt.so/2013.1/901 2013/11/27
 40 42  0  0  0  0  0  0  0  0999 V2000
    4.3814   -6.8087   19.8262 C   0  0  2  0  0  0  0  0  0  0  0  0
    3.1704   -7.4837   20.0858 O   0  0  0  0  0  0  0  0  0  0  0  0
    5.2873   -6.8989   21.0895 C   0  0  1  0  0  0  0  0  0  0  0  0
    4.6895   -6.1051   22.2921 C   0  0  2  0  0  0  0  0  0  0  0  0
    4.5453   -4.6235   21.8574 C   0  0  2  0  0  0  0  0  0  0  0  0
    4.0176   -3.8525   22.9491 O   0  0  0  0  0  0  0  0  0  0  0  0
    3.5841   -4.5661   20.6017 C   0  0  2  0  0  0  0  0  0  0  0  0
    4.1504   -5.3796   19.4879 O   0  0  0  0  0  0  0  0  0  0  0  0
    3.3811   -3.1483   20.0782 C   0  0  0  0  0  0  0  0  0  0  0  0
    2.7015   -2.2705   21.0829 N   0  0  0  0  0  0  0  0  0  0  0  0
   -0.0112   -9.4752   17.8523 C   0  0  2  0  0  0  0  0  0  0  0  0
   -1.0118   -9.7583   16.8303 N   0  0  0  0  0  0  0  0  0  0  0  0
   -0.3311   -8.0952   18.5658 C   0  0  0  0  0  0  0  0  0  0  0  0
    0.7465   -7.7879   19.6789 C   0  0  2  0  0  0  0  0  0  0  0  0
    0.4289   -6.4973   20.3477 N   0  0  0  0  0  0  0  0  0  0  0  0
    2.1856   -7.7590   19.0259 C   0  0  2  0  0  0  0  0  0  0  0  0
    2.4657   -9.1461   18.3227 C   0  0  2  0  0  0  0  0  0  0  0  0
    3.7665   -9.1153   17.7269 O   0  0  0  0  0  0  0  0  0  0  0  0
    1.3888   -9.4254   17.2060 C   0  0  1  0  0  0  0  0  0  0  0  0
    1.6419  -10.7091   16.5685 O   0  0  0  0  0  0  0  0  0  0  0  0
    2.9030  -11.1270   16.1068 C   0  0  2  0  0  0  0  0  0  0  0  0
    3.0781  -10.5721   14.6526 C   0  0  2  0  0  0  0  0  0  0  0  0
    3.0021   -9.1828   14.6729 O   0  0  0  0  0  0  0  0  0  0  0  0
    2.0006  -11.1811   13.6775 C   0  0  1  0  0  0  0  0  0  0  0  0
    2.1629  -10.6591   12.2806 N   0  0  0  0  0  0  0  0  0  0  0  0
    2.1379  -12.7552   13.7069 C   0  0  2  0  0  0  0  0  0  0  0  0
    1.1872  -13.3663   12.8324 O   0  0  0  0  0  0  0  0  0  0  0  0
    1.9516  -13.2450   15.1827 C   0  0  2  0  0  0  0  0  0  0  0  0
    2.9567  -12.5998   16.0956 O   0  0  0  0  0  0  0  0  0  0  0  0
    2.0999  -14.7345   15.2974 C   0  0  0  0  0  0  0  0  0  0  0  0
    1.0346  -15.4187   14.6178 O   0  0  0  0  0  0  0  0  0  0  0  0
    5.4663   -8.3169   21.4291 O   0  0  0  0  0  0  0  0  0  0  0  0
    5.5352   -6.2078   23.3745 O   0  0  0  0  0  0  0  0  0  0  0  0
   -6.1675  -10.4969   16.4560 N   0  0  0  0  0  0  0  0  0  0  0  0
   -2.2849  -10.2552   17.0719 C   0  0  0  0  0  0  0  0  0  0  0  0
   -2.7139  -10.5227   18.1889 O   0  0  0  0  0  0  0  0  0  0  0  0
   -3.0985  -10.4510   15.7718 C   0  0  1  0  0  0  0  0  0  0  0  0
   -4.0424  -11.6619   15.9163 C   0  0  0  0  0  0  0  0  0  0  0  0
   -5.1981  -11.4923   16.9092 C   0  0  0  0  0  0  0  0  0  0  0  0
   -3.8450   -9.2447   15.4945 O   0  0  0  0  0  0  0  0  0  0  0  0
  1  2  1  1  0  0  0
  1  3  1  0  0  0  0
  1  8  1  0  0  0  0
  3  4  1  0  0  0  0
  3 32  1  1  0  0  0
  4  5  1  0  0  0  0
  4 33  1  1  0  0  0
  5  6  1  1  0  0  0
  5  7  1  0  0  0  0
  7  8  1  0  0  0  0
  7  9  1  6  0  0  0
  9 10  1  0  0  0  0
 11 12  1  6  0  0  0
 11 13  1  0  0  0  0
 11 19  1  0  0  0  0
 12 35  1  0  0  0  0
 13 14  1  0  0  0  0
 14 15  1  6  0  0  0
 14 16  1  0  0  0  0
 16  2  1  1  0  0  0
 16 17  1  0  0  0  0
 17 18  1  6  0  0  0
 17 19  1  0  0  0  0
 19 20  1  1  0  0  0
 21 20  1  6  0  0  0
 21 22  1  0  0  0  0
 21 29  1  0  0  0  0
 22 23  1  1  0  0  0
 22 24  1  0  0  0  0
 24 25  1  6  0  0  0
 24 26  1  0  0  0  0
 26 27  1  6  0  0  0
 26 28  1  0  0  0  0
 28 29  1  0  0  0  0
 28 30  1  6  0  0  0
 30 31  1  0  0  0  0
 34 39  1  0  0  0  0
 35 36  2  0  0  0  0
 37 35  1  1  0  0  0
 37 38  1  0  0  0  0
 37 40  1  0  0  0  0
 38 39  1  0  0  0  0
M  END
>  <CHROM.1>
-170.38856007,-63.54717621,-78.60515673,-150.39663166,-167.06814959,-86.02679615
-66.64904526,146.99081527,68.41949601,67.38865977,1.50658687,-9.07382009
17.78693088,-1.09543116,0.03372733,-2.41175126

>  <Name>
2g5q_lig

>  <RI>
9.52566e+06

>  <Rbt.Current_Directory>
/home/itssahil/PROJECTS/Mol_Feturizer/New_Systems/rnas/2g5q

>  <Rbt.Executable>
rbdock ($Id: //depot/dev/client3/rdock/2013.1/src/exe/rbdock.cxx#4 $)

>  <Rbt.Library>
libRbt.so (2013.1, Build901 2013/11/27)

>  <Rbt.Parameter_File>
/export/apps/rDock/src/rDock_2013.1_src/data/scripts/dock_solv.prm

>  <Rbt.Receptor>
prm/pocket_docking_4.prm

>  <SCORE>
-18.8369

>  <SCORE.INTER>
-16.1662

>  <SCORE.INTER.CONST>
1

>  <SCORE.INTER.POLAR>
-1.86855

>  <SCORE.INTER.ROT>
10

>  <SCORE.INTER.SOLV>
18.5847

>  <SCORE.INTER.VDW>
-21.0105

>  <SCORE.INTER.norm>
-0.404154

>  <SCORE.INTRA>
-2.67073

>  <SCORE.INTRA.DIHEDRAL>
-12.2959

>  <SCORE.INTRA.DIHEDRAL.0>
22.5778

>  <SCORE.INTRA.POLAR>
0

>  <SCORE.INTRA.POLAR.0>
0

>  <SCORE.INTRA.REPUL>
0

>  <SCORE.INTRA.REPUL.0>
0

>  <SCORE.INTRA.SOLV>
3.34439

>  <SCORE.INTRA.SOLV.lig_0>
-102.332

>  <SCORE.INTRA.VDW>
1.80504

>  <SCORE.INTRA.VDW.0>
-5.08747

>  <SCORE.INTRA.norm>
-0.0667684

>  <SCORE.RESTR>
0

>  <SCORE.RESTR.CAVITY>
0

>  <SCORE.RESTR.norm>
0

>  <SCORE.SYSTEM>
0

>  <SCORE.SYSTEM.CONST>
0

>  <SCORE.SYSTEM.DIHEDRAL>
0

>  <SCORE.SYSTEM.SOLV>
0

>  <SCORE.SYSTEM.norm>
0

>  <SCORE.heavy>
40

>  <SCORE.norm>
-0.470922

>  <RMSD>
2.475

$$$$
2g5q_lig
 OpenBabel11021811433D
libRbt.so/2013.1/901 2013/11/27
 40 42  0  0  0  0  0  0  0  0999 V2000
    1.7155   -7.5099   20.1544 C   0  0  2  0  0  0  0  0  0  0  0  0
    1.5686   -7.3151   18.7652 O   0  0  0  0  0  0  0  0  0  0  0  0
    2.6118   -6.3734   20.7287 C   0  0  1  0  0  0  0  0  0  0  0  0
    4.0769   -6.4649   20.2008 C   0  0  2  0  0  0  0  0  0  0  0  0
    4.6476   -7.8438   20.6225 C   0  0  2  0  0  0  0  0  0  0  0  0
    6.0077   -7.9577   20.1733 O   0  0  0  0  0  0  0  0  0  0  0  0
    3.7400   -8.9724   19.9849 C   0  0  2  0  0  0  0  0  0  0  0  0
    2.3345   -8.8265   20.4605 O   0  0  0  0  0  0  0  0  0  0  0  0
    4.2045  -10.3787   20.3483 C   0  0  0  0  0  0  0  0  0  0  0  0
    3.5365  -11.4249   19.5111 N   0  0  0  0  0  0  0  0  0  0  0  0
   -1.6898   -9.9000   17.4316 C   0  0  2  0  0  0  0  0  0  0  0  0
   -2.8832  -10.3711   16.7391 N   0  0  0  0  0  0  0  0  0  0  0  0
   -2.0375   -8.6379   18.3272 C   0  0  0  0  0  0  0  0  0  0  0  0
   -0.7487   -8.1285   19.0849 C   0  0  2  0  0  0  0  0  0  0  0  0
   -1.0904   -6.9521   19.9294 N   0  0  0  0  0  0  0  0  0  0  0  0
    0.3763   -7.7744   18.0327 C   0  0  2  0  0  0  0  0  0  0  0  0
    0.6917   -9.0522   17.1583 C   0  0  2  0  0  0  0  0  0  0  0  0
    1.7058   -8.7275   16.2023 O   0  0  0  0  0  0  0  0  0  0  0  0
   -0.6032   -9.5342   16.3994 C   0  0  1  0  0  0  0  0  0  0  0  0
   -0.3129  -10.7184   15.6046 O   0  0  0  0  0  0  0  0  0  0  0  0
   -0.2242  -10.7258   14.2010 C   0  0  2  0  0  0  0  0  0  0  0  0
   -0.2877  -12.2196   13.7344 C   0  0  2  0  0  0  0  0  0  0  0  0
   -1.4890  -12.7858   14.1501 O   0  0  0  0  0  0  0  0  0  0  0  0
    0.9411  -13.0397   14.2824 C   0  0  1  0  0  0  0  0  0  0  0  0
    0.8917  -14.4712   13.8369 N   0  0  0  0  0  0  0  0  0  0  0  0
    2.2671  -12.3420   13.7802 C   0  0  2  0  0  0  0  0  0  0  0  0
    3.4208  -13.0479   14.2414 O   0  0  0  0  0  0  0  0  0  0  0  0
    2.2702  -10.8576   14.2795 C   0  0  2  0  0  0  0  0  0  0  0  0
    1.0551  -10.1214   13.7883 O   0  0  0  0  0  0  0  0  0  0  0  0
    3.4897  -10.1165   13.8137 C   0  0  0  0  0  0  0  0  0  0  0  0
    3.4576   -9.8994   12.3936 O   0  0  0  0  0  0  0  0  0  0  0  0
    2.0032   -5.0832   20.3776 O   0  0  0  0  0  0  0  0  0  0  0  0
    4.8258   -5.4472   20.7493 O   0  0  0  0  0  0  0  0  0  0  0  0
   -7.5915  -13.3400   16.3332 N   0  0  0  0  0  0  0  0  0  0  0  0
   -4.0506  -10.7990   17.3559 C   0  0  0  0  0  0  0  0  0  0  0  0
   -4.2077  -10.8361   18.5713 O   0  0  0  0  0  0  0  0  0  0  0  0
   -5.1276  -11.2413   16.3385 C   0  0  1  0  0  0  0  0  0  0  0  0
   -6.5229  -11.1985   16.9938 C   0  0  0  0  0  0  0  0  0  0  0  0
   -7.6488  -11.8848   16.2117 C   0  0  0  0  0  0  0  0  0  0  0  0
   -5.0726  -10.3734   15.1839 O   0  0  0  0  0  0  0  0  0  0  0  0
  1  2  1  6  0  0  0
  1  3  1  0  0  0  0
  1  8  1  0  0  0  0
  3  4  1  0  0  0  0
  3 32  1  6  0  0  0
  4  5  1  0  0  0  0
  4 33  1  1  0  0  0
  5  6  1  6  0  0  0
  5  7  1  0  0  0  0
  7  8  1  0  0  0  0
  7  9  1  1  0  0  0
  9 10  1  0  0  0  0
 11 12  1  6  0  0  0
 11 13  1  0  0  0  0
 11 19  1  0  0  0  0
 12 35  1  0  0  0  0
 13 14  1  0  0  0  0
 14 15  1  6  0  0  0
 14 16  1  0  0  0  0
 16  2  1  1  0  0  0
 16 17  1  0  0  0  0
 17 18  1  6  0  0  0
 17 19  1  0  0  0  0
 19 20  1  1  0  0  0
 21 20  1  1  0  0  0
 21 22  1  0  0  0  0
 21 29  1  0  0  0  0
 22 23  1  1  0  0  0
 22 24  1  0  0  0  0
 24 25  1  6  0  0  0
 24 26  1  0  0  0  0
 26 27  1  1  0  0  0
 26 28  1  0  0  0  0
 28 29  1  0  0  0  0
 28 30  1  6  0  0  0
 30 31  1  0  0  0  0
 34 39  1  0  0  0  0
 35 36  2  0  0  0  0
 37 35  1  1  0  0  0
 37 38  1  0  0  0  0
 37 40  1  0  0  0  0
 38 39  1  0  0  0  0
M  END
>  <CHROM.1>
-151.63543059,-167.46803868,-59.45135659,14.14562225,132.92463204,-164.95838630
69.25819749,-158.97228274,-167.62292502,76.78393718,0.29466819,-9.80012932
17.14948174,0.64266797,0.11547674,0.93242058

>  <Name>
2g5q_lig

>  <RI>
0

>  <Rbt.Current_Directory>
/home/itssahil/PROJECTS/Mol_Feturizer/New_Systems/rnas/2g5q

>  <Rbt.Executable>
rbdock ($Id: //depot/dev/client3/rdock/2013.1/src/exe/rbdock.cxx#4 $)

>  <Rbt.Library>
libRbt.so (2013.1, Build901 2013/11/27)

>  <Rbt.Parameter_File>
/export/apps/rDock/src/rDock_2013.1_src/data/scripts/dock_solv.prm

>  <Rbt.Receptor>
prm/pocket_docking_2.prm

>  <SCORE>
-2.62181

>  <SCORE.INTER>
-5.44694

>  <SCORE.INTER.CONST>
1

>  <SCORE.INTER.POLAR>
-0.41846

>  <SCORE.INTER.ROT>
10

>  <SCORE.INTER.SOLV>
18.2701

>  <SCORE.INTER.VDW>
-18.5931

>  <SCORE.INTER.norm>
-0.136173

>  <SCORE.INTRA>
1.85086

>  <SCORE.INTRA.DIHEDRAL>
-1.89466

>  <SCORE.INTRA.DIHEDRAL.0>
22.5778

>  <SCORE.INTRA.POLAR>
0

>  <SCORE.INTRA.POLAR.0>
0

>  <SCORE.INTRA.REPUL>
0

>  <SCORE.INTRA.REPUL.0>
0

>  <SCORE.INTRA.SOLV>
1.45885

>  <SCORE.INTRA.SOLV.lig_0>
-102.332

>  <SCORE.INTRA.VDW>
2.06877

>  <SCORE.INTRA.VDW.0>
-5.08747

>  <SCORE.INTRA.norm>
0.0462715

>  <SCORE.RESTR>
0.97427

>  <SCORE.RESTR.CAVITY>
0.97427

>  <SCORE.RESTR.norm>
0.0243568

>  <SCORE.SYSTEM>
0

>  <SCORE.SYSTEM.CONST>
0

>  <SCORE.SYSTEM.DIHEDRAL>
0

>  <SCORE.SYSTEM.SOLV>
0

>  <SCORE.SYSTEM.norm>
0

>  <SCORE.heavy>
40

>  <SCORE.norm>
-0.0655453

>  <RMSD>
2.494

$$$$
2g5q_lig
 OpenBabel11021811433D
libRbt.so/2013.1/901 2013/11/27
 40 42  0  0  0  0  0  0  0  0999 V2000
    4.0786   -7.0594   19.4192 C   0  0  2  0  0  0  0  0  0  0  0  0
    2.7938   -7.5465   19.7378 O   0  0  0  0  0  0  0  0  0  0  0  0
    5.0524   -7.4142   20.5813 C   0  0  1  0  0  0  0  0  0  0  0  0
    4.6975   -6.6472   21.8925 C   0  0  2  0  0  0  0  0  0  0  0  0
    4.7769   -5.1284   21.5897 C   0  0  2  0  0  0  0  0  0  0  0  0
    4.4781   -4.3851   22.7825 O   0  0  0  0  0  0  0  0  0  0  0  0
    3.7438   -4.7975   20.4377 C   0  0  2  0  0  0  0  0  0  0  0  0
    4.0714   -5.5867   19.2160 O   0  0  0  0  0  0  0  0  0  0  0  0
    3.7475   -3.3233   20.0472 C   0  0  0  0  0  0  0  0  0  0  0  0
    3.2750   -2.4452   21.1641 N   0  0  0  0  0  0  0  0  0  0  0  0
   -0.1736   -9.9287   17.5937 C   0  0  2  0  0  0  0  0  0  0  0  0
   -1.1501  -10.3434   16.5937 N   0  0  0  0  0  0  0  0  0  0  0  0
   -0.6374   -8.5795   18.2869 C   0  0  0  0  0  0  0  0  0  0  0  0
    0.4143   -8.1303   19.3763 C   0  0  2  0  0  0  0  0  0  0  0  0
   -0.0377   -6.8706   20.0264 N   0  0  0  0  0  0  0  0  0  0  0  0
    1.8314   -7.9524   18.6995 C   0  0  2  0  0  0  0  0  0  0  0  0
    2.2567   -9.3129   18.0174 C   0  0  2  0  0  0  0  0  0  0  0  0
    3.5370   -9.1476   17.3999 O   0  0  0  0  0  0  0  0  0  0  0  0
    1.2025   -9.7344   16.9238 C   0  0  1  0  0  0  0  0  0  0  0  0
    1.5901  -10.9939   16.3059 O   0  0  0  0  0  0  0  0  0  0  0  0
    2.8948  -11.2938   15.8746 C   0  0  2  0  0  0  0  0  0  0  0  0
    3.0753  -10.6641   14.4520 C   0  0  2  0  0  0  0  0  0  0  0  0
    2.8910   -9.2868   14.5264 O   0  0  0  0  0  0  0  0  0  0  0  0
    2.0821  -11.3101   13.4134 C   0  0  1  0  0  0  0  0  0  0  0  0
    2.2505  -10.7165   12.0460 N   0  0  0  0  0  0  0  0  0  0  0  0
    2.3402  -12.8689   13.3832 C   0  0  2  0  0  0  0  0  0  0  0  0
    1.4700  -13.5118   12.4496 O   0  0  0  0  0  0  0  0  0  0  0  0
    2.1426  -13.4357   14.8296 C   0  0  2  0  0  0  0  0  0  0  0  0
    3.0630  -12.7563   15.8049 O   0  0  0  0  0  0  0  0  0  0  0  0
    2.4022  -14.9131   14.8885 C   0  0  0  0  0  0  0  0  0  0  0  0
    1.3600  -15.6526   14.2313 O   0  0  0  0  0  0  0  0  0  0  0  0
    5.0106   -8.8676   20.7915 O   0  0  0  0  0  0  0  0  0  0  0  0
    5.5957   -6.9876   22.8798 O   0  0  0  0  0  0  0  0  0  0  0  0
   -6.6520  -11.7236   16.9421 N   0  0  0  0  0  0  0  0  0  0  0  0
   -2.1812  -11.2474   16.8078 C   0  0  0  0  0  0  0  0  0  0  0  0
   -2.3841  -11.8124   17.8768 O   0  0  0  0  0  0  0  0  0  0  0  0
   -3.0374  -11.4768   15.5410 C   0  0  1  0  0  0  0  0  0  0  0  0
   -4.5123  -11.1317   15.8303 C   0  0  0  0  0  0  0  0  0  0  0  0
   -5.2392  -12.0701   16.8006 C   0  0  0  0  0  0  0  0  0  0  0  0
   -2.5183  -10.6629   14.4652 O   0  0  0  0  0  0  0  0  0  0  0  0
  1  2  1  1  0  0  0
  1  3  1  0  0  0  0
  1  8  1  0  0  0  0
  3  4  1  0  0  0  0
  3 32  1  1  0  0  0
  4  5  1  0  0  0  0
  4 33  1  1  0  0  0
  5  6  1  1  0  0  0
  5  7  1  0  0  0  0
  7  8  1  0  0  0  0
  7  9  1  6  0  0  0
  9 10  1  0  0  0  0
 11 12  1  6  0  0  0
 11 13  1  0  0  0  0
 11 19  1  0  0  0  0
 12 35  1  0  0  0  0
 13 14  1  0  0  0  0
 14 15  1  6  0  0  0
 14 16  1  0  0  0  0
 16  2  1  1  0  0  0
 16 17  1  0  0  0  0
 17 18  1  6  0  0  0
 17 19  1  0  0  0  0
 19 20  1  1  0  0  0
 21 20  1  6  0  0  0
 21 22  1  0  0  0  0
 21 29  1  0  0  0  0
 22 23  1  1  0  0  0
 22 24  1  0  0  0  0
 24 25  1  6  0  0  0
 24 26  1  0  0  0  0
 26 27  1  6  0  0  0
 26 28  1  0  0  0  0
 28 29  1  0  0  0  0
 28 30  1  6  0  0  0
 30 31  1  0  0  0  0
 34 39  1  0  0  0  0
 35 36  2  0  0  0  0
 37 35  1  1  0  0  0
 37 38  1  0  0  0  0
 37 40  1  0  0  0  0
 38 39  1  0  0  0  0
M  END
>  <CHROM.1>
-150.89354752,-65.12054684,-95.22539168,-167.48096846,-164.70327177,-82.72020549
-71.17723024,-122.21898697,-68.18361518,-175.97654367,1.51962450,-9.45908665
17.50043069,-1.08665216,-0.07345979,-2.37204397

>  <Name>
2g5q_lig

>  <RI>
0

>  <Rbt.Current_Directory>
/home/itssahil/PROJECTS/Mol_Feturizer/New_Systems/rnas/2g5q

>  <Rbt.Executable>
rbdock ($Id: //depot/dev/client3/rdock/2013.1/src/exe/rbdock.cxx#4 $)

>  <Rbt.Library>
libRbt.so (2013.1, Build901 2013/11/27)

>  <Rbt.Parameter_File>
/export/apps/rDock/src/rDock_2013.1_src/data/scripts/dock_solv.prm

>  <Rbt.Receptor>
prm/pocket_docking_3.prm

>  <SCORE>
-19.6169

>  <SCORE.INTER>
-16.0673

>  <SCORE.INTER.CONST>
1

>  <SCORE.INTER.POLAR>
-1.99401

>  <SCORE.INTER.ROT>
10

>  <SCORE.INTER.SOLV>
19.5722

>  <SCORE.INTER.VDW>
-20.8556

>  <SCORE.INTER.norm>
-0.401683

>  <SCORE.INTRA>
-3.54963

>  <SCORE.INTRA.DIHEDRAL>
-11.0136

>  <SCORE.INTRA.DIHEDRAL.0>
22.5778

>  <SCORE.INTRA.POLAR>
0

>  <SCORE.INTRA.POLAR.0>
0

>  <SCORE.INTRA.REPUL>
0

>  <SCORE.INTRA.REPUL.0>
0

>  <SCORE.INTRA.SOLV>
0.0894596

>  <SCORE.INTRA.SOLV.lig_0>
-102.332

>  <SCORE.INTRA.VDW>
1.91243

>  <SCORE.INTRA.VDW.0>
-5.08747

>  <SCORE.INTRA.norm>
-0.0887406

>  <SCORE.RESTR>
0

>  <SCORE.RESTR.CAVITY>
0

>  <SCORE.RESTR.norm>
0

>  <SCORE.SYSTEM>
0

>  <SCORE.SYSTEM.CONST>
0

>  <SCORE.SYSTEM.DIHEDRAL>
0

>  <SCORE.SYSTEM.SOLV>
0

>  <SCORE.SYSTEM.norm>
0

>  <SCORE.heavy>
40

>  <SCORE.norm>
-0.490423

>  <RMSD>
2.500

$$$$
2g5q_lig
 OpenBabel11021811433D
libRbt.so/2013.1/901 2013/11/27
 40 42  0  0  0  0  0  0  0  0999 V2000
    3.9190   -7.0359   19.0622 C   0  0  2  0  0  0  0  0  0  0  0  0
    2.7107   -7.6209   19.4949 O   0  0  0  0  0  0  0  0  0  0  0  0
    5.0819   -7.5722   19.9481 C   0  0  1  0  0  0  0  0  0  0  0  0
    4.9608   -7.0847   21.4250 C   0  0  2  0  0  0  0  0  0  0  0  0
    4.9834   -5.5341   21.4159 C   0  0  2  0  0  0  0  0  0  0  0  0
    4.8968   -5.0451   22.7641 O   0  0  0  0  0  0  0  0  0  0  0  0
    3.7639   -5.0253   20.5453 C   0  0  2  0  0  0  0  0  0  0  0  0
    3.8738   -5.5528   19.1551 O   0  0  0  0  0  0  0  0  0  0  0  0
    3.6967   -3.5044   20.4557 C   0  0  0  0  0  0  0  0  0  0  0  0
    2.3171   -3.0212   20.1315 N   0  0  0  0  0  0  0  0  0  0  0  0
   -0.5704   -9.7157   17.5143 C   0  0  2  0  0  0  0  0  0  0  0  0
   -1.6933   -9.9974   16.6280 N   0  0  0  0  0  0  0  0  0  0  0  0
   -0.9114   -8.4877   18.4585 C   0  0  0  0  0  0  0  0  0  0  0  0
    0.2999   -8.1836   19.4254 C   0  0  2  0  0  0  0  0  0  0  0  0
   -0.0368   -7.0376   20.3127 N   0  0  0  0  0  0  0  0  0  0  0  0
    1.5959   -7.8881   18.5703 C   0  0  2  0  0  0  0  0  0  0  0  0
    1.9004   -9.1295   17.6413 C   0  0  2  0  0  0  0  0  0  0  0  0
    3.0704   -8.8572   16.8636 O   0  0  0  0  0  0  0  0  0  0  0  0
    0.6862   -9.4057   16.6747 C   0  0  1  0  0  0  0  0  0  0  0  0
    0.9642  -10.5570   15.8288 O   0  0  0  0  0  0  0  0  0  0  0  0
    1.5421  -11.7540   16.2885 C   0  0  2  0  0  0  0  0  0  0  0  0
    2.1609  -12.4832   15.0481 C   0  0  2  0  0  0  0  0  0  0  0  0
    3.1261  -11.6687   14.4638 O   0  0  0  0  0  0  0  0  0  0  0  0
    1.0474  -12.8750   14.0044 C   0  0  1  0  0  0  0  0  0  0  0  0
    1.6298  -13.5784   12.8142 N   0  0  0  0  0  0  0  0  0  0  0  0
   -0.0148  -13.7912   14.7322 C   0  0  2  0  0  0  0  0  0  0  0  0
   -1.0504  -14.1864   13.8303 O   0  0  0  0  0  0  0  0  0  0  0  0
   -0.5949  -13.0064   15.9571 C   0  0  2  0  0  0  0  0  0  0  0  0
    0.5000  -12.5965   16.9020 O   0  0  0  0  0  0  0  0  0  0  0  0
   -1.5932  -13.8269   16.7212 C   0  0  0  0  0  0  0  0  0  0  0  0
   -0.9960  -15.0278   17.2370 O   0  0  0  0  0  0  0  0  0  0  0  0
    5.0800   -9.0394   19.8742 O   0  0  0  0  0  0  0  0  0  0  0  0
    6.0186   -7.5760   22.1579 O   0  0  0  0  0  0  0  0  0  0  0  0
   -6.7276  -10.0446   16.6946 N   0  0  0  0  0  0  0  0  0  0  0  0
   -2.8066  -10.7559   16.9620 C   0  0  0  0  0  0  0  0  0  0  0  0
   -2.9685  -11.2881   18.0547 O   0  0  0  0  0  0  0  0  0  0  0  0
   -3.8146  -10.8701   15.7952 C   0  0  1  0  0  0  0  0  0  0  0  0
   -5.0024  -11.7626   16.2085 C   0  0  0  0  0  0  0  0  0  0  0  0
   -5.9608  -11.1613   17.2429 C   0  0  0  0  0  0  0  0  0  0  0  0
   -4.2662   -9.5468   15.4288 O   0  0  0  0  0  0  0  0  0  0  0  0
  1  2  1  1  0  0  0
  1  3  1  0  0  0  0
  1  8  1  0  0  0  0
  3  4  1  0  0  0  0
  3 32  1  1  0  0  0
  4  5  1  0  0  0  0
  4 33  1  1  0  0  0
  5  6  1  1  0  0  0
  5  7  1  0  0  0  0
  7  8  1  0  0  0  0
  7  9  1  6  0  0  0
  9 10  1  0  0  0  0
 11 12  1  6  0  0  0
 11 13  1  0  0  0  0
 11 19  1  0  0  0  0
 12 35  1  0  0  0  0
 13 14  1  0  0  0  0
 14 15  1  6  0  0  0
 14 16  1  0  0  0  0
 16  2  1  1  0  0  0
 16 17  1  0  0  0  0
 17 18  1  6  0  0  0
 17 19  1  0  0  0  0
 19 20  1  6  0  0  0
 21 20  1  6  0  0  0
 21 22  1  0  0  0  0
 21 29  1  0  0  0  0
 22 23  1  6  0  0  0
 22 24  1  0  0  0  0
 24 25  1  6  0  0  0
 24 26  1  0  0  0  0
 26 27  1  6  0  0  0
 26 28  1  0  0  0  0
 28 29  1  0  0  0  0
 28 30  1  1  0  0  0
 30 31  1  0  0  0  0
 34 39  1  0  0  0  0
 35 36  2  0  0  0  0
 37 35  1  1  0  0  0
 37 38  1  0  0  0  0
 37 40  1  0  0  0  0
 38 39  1  0  0  0  0
M  END
>  <CHROM.1>
-149.16573340,-157.17281128,-83.09074490,-165.53165715,-76.00397822,-158.76041301
60.47221723,178.00390388,70.67977845,68.81420973,0.79549708,-9.59078235,17.72606160
-0.90327294,0.04550190,-2.51493703

>  <Name>
2g5q_lig

>  <RI>
0

>  <Rbt.Current_Directory>
/home/itssahil/PROJECTS/Mol_Feturizer/New_Systems/rnas/2g5q

>  <Rbt.Executable>
rbdock ($Id: //depot/dev/client3/rdock/2013.1/src/exe/rbdock.cxx#4 $)

>  <Rbt.Library>
libRbt.so (2013.1, Build901 2013/11/27)

>  <Rbt.Parameter_File>
/export/apps/rDock/src/rDock_2013.1_src/data/scripts/dock_solv.prm

>  <Rbt.Receptor>
prm/pocket_docking_5.prm

>  <SCORE>
-18.0623

>  <SCORE.INTER>
-13.6322

>  <SCORE.INTER.CONST>
1

>  <SCORE.INTER.POLAR>
-1.28783

>  <SCORE.INTER.ROT>
10

>  <SCORE.INTER.SOLV>
20.8102

>  <SCORE.INTER.VDW>
-21.9988

>  <SCORE.INTER.norm>
-0.340804

>  <SCORE.INTRA>
-4.43008

>  <SCORE.INTRA.DIHEDRAL>
-11.0737

>  <SCORE.INTRA.DIHEDRAL.0>
22.5778

>  <SCORE.INTRA.POLAR>
0

>  <SCORE.INTRA.POLAR.0>
0

>  <SCORE.INTRA.REPUL>
0

>  <SCORE.INTRA.REPUL.0>
0

>  <SCORE.INTRA.SOLV>
2.06405

>  <SCORE.INTRA.SOLV.lig_0>
-102.332

>  <SCORE.INTRA.VDW>
0.0747303

>  <SCORE.INTRA.VDW.0>
-5.08747

>  <SCORE.INTRA.norm>
-0.110752

>  <SCORE.RESTR>
0

>  <SCORE.RESTR.CAVITY>
0

>  <SCORE.RESTR.norm>
0

>  <SCORE.SYSTEM>
0

>  <SCORE.SYSTEM.CONST>
0

>  <SCORE.SYSTEM.DIHEDRAL>
0

>  <SCORE.SYSTEM.SOLV>
0

>  <SCORE.SYSTEM.norm>
0

>  <SCORE.heavy>
40

>  <SCORE.norm>
-0.451556

>  <RMSD>
2.500

$$$$
2g5q_lig
 OpenBabel11021811433D
libRbt.so/2013.1/901 2013/11/27
 40 42  0  0  0  0  0  0  0  0999 V2000
    2.0592   -7.0362   19.0235 C   0  0  2  0  0  0  0  0  0  0  0  0
    1.3237   -8.2362   19.1165 O   0  0  0  0  0  0  0  0  0  0  0  0
    3.1543   -7.2022   17.9290 C   0  0  1  0  0  0  0  0  0  0  0  0
    4.2347   -8.2493   18.3410 C   0  0  2  0  0  0  0  0  0  0  0  0
    4.8859   -7.7641   19.6622 C   0  0  2  0  0  0  0  0  0  0  0  0
    5.9058   -8.6930   20.0638 O   0  0  0  0  0  0  0  0  0  0  0  0
    3.7530   -7.6506   20.7612 C   0  0  2  0  0  0  0  0  0  0  0  0
    2.7050   -6.6879   20.3164 O   0  0  0  0  0  0  0  0  0  0  0  0
    4.2823   -7.1648   22.1063 C   0  0  0  0  0  0  0  0  0  0  0  0
    5.2755   -8.1173   22.6963 N   0  0  0  0  0  0  0  0  0  0  0  0
   -2.0093  -10.3581   17.2548 C   0  0  2  0  0  0  0  0  0  0  0  0
   -3.0627  -10.7196   16.3138 N   0  0  0  0  0  0  0  0  0  0  0  0
   -2.2588   -8.8986   17.8235 C   0  0  0  0  0  0  0  0  0  0  0  0
   -1.1236   -8.5057   18.8489 C   0  0  2  0  0  0  0  0  0  0  0  0
   -1.3753   -7.1400   19.3831 N   0  0  0  0  0  0  0  0  0  0  0  0
    0.2844   -8.5946   18.1364 C   0  0  2  0  0  0  0  0  0  0  0  0
    0.4946  -10.0587   17.5804 C   0  0  2  0  0  0  0  0  0  0  0  0
    1.7672  -10.1351   16.9302 O   0  0  0  0  0  0  0  0  0  0  0  0
   -0.6394  -10.4244   16.5482 C   0  0  1  0  0  0  0  0  0  0  0  0
   -0.4505  -11.7777   16.0470 O   0  0  0  0  0  0  0  0  0  0  0  0
   -1.1542  -12.3224   14.9579 C   0  0  2  0  0  0  0  0  0  0  0  0
   -1.0756  -13.8819   15.0808 C   0  0  2  0  0  0  0  0  0  0  0  0
   -1.6507  -14.2831   16.2828 O   0  0  0  0  0  0  0  0  0  0  0  0
    0.4130  -14.3870   14.9722 C   0  0  1  0  0  0  0  0  0  0  0  0
    0.4983  -15.8804   15.0842 N   0  0  0  0  0  0  0  0  0  0  0  0
    1.0050  -13.8938   13.5925 C   0  0  2  0  0  0  0  0  0  0  0  0
    2.3566  -14.3295   13.4328 O   0  0  0  0  0  0  0  0  0  0  0  0
    0.8991  -12.3324   13.5334 C   0  0  2  0  0  0  0  0  0  0  0  0
   -0.5256  -11.8823   13.6997 O   0  0  0  0  0  0  0  0  0  0  0  0
    1.4157  -11.7886   12.2330 C   0  0  0  0  0  0  0  0  0  0  0  0
    2.8232  -12.0378   12.0857 O   0  0  0  0  0  0  0  0  0  0  0  0
    2.4972   -7.5872   16.6728 O   0  0  0  0  0  0  0  0  0  0  0  0
    5.1823   -8.3457   17.3458 O   0  0  0  0  0  0  0  0  0  0  0  0
   -8.1443  -10.7434   16.0544 N   0  0  0  0  0  0  0  0  0  0  0  0
   -4.2646  -11.3259   16.6514 C   0  0  0  0  0  0  0  0  0  0  0  0
   -4.5759  -11.6367   17.7960 O   0  0  0  0  0  0  0  0  0  0  0  0
   -5.1627  -11.5825   15.4194 C   0  0  1  0  0  0  0  0  0  0  0  0
   -6.3667  -12.4604   15.8166 C   0  0  0  0  0  0  0  0  0  0  0  0
   -7.3997  -11.7997   16.7368 C   0  0  0  0  0  0  0  0  0  0  0  0
   -5.6031  -10.3147   14.8826 O   0  0  0  0  0  0  0  0  0  0  0  0
  1  2  1  1  0  0  0
  1  3  1  0  0  0  0
  1  8  1  0  0  0  0
  3  4  1  0  0  0  0
  3 32  1  6  0  0  0
  4  5  1  0  0  0  0
  4 33  1  6  0  0  0
  5  6  1  1  0  0  0
  5  7  1  0  0  0  0
  7  8  1  0  0  0  0
  7  9  1  1  0  0  0
  9 10  1  0  0  0  0
 11 12  1  6  0  0  0
 11 13  1  0  0  0  0
 11 19  1  0  0  0  0
 12 35  1  0  0  0  0
 13 14  1  0  0  0  0
 14 15  1  6  0  0  0
 14 16  1  0  0  0  0
 16  2  1  1  0  0  0
 16 17  1  0  0  0  0
 17 18  1  6  0  0  0
 17 19  1  0  0  0  0
 19 20  1  1  0  0  0
 21 20  1  1  0  0  0
 21 22  1  0  0  0  0
 21 29  1  0  0  0  0
 22 23  1  1  0  0  0
 22 24  1  0  0  0  0
 24 25  1  6  0  0  0
 24 26  1  0  0  0  0
 26 27  1  1  0  0  0
 26 28  1  0  0  0  0
 28 29  1  0  0  0  0
 28 30  1  6  0  0  0
 30 31  1  0  0  0  0
 34 39  1  0  0  0  0
 35 36  2  0  0  0  0
 37 35  1  1  0  0  0
 37 38  1  0  0  0  0
 37 40  1  0  0  0  0
 38 39  1  0  0  0  0
M  END
>  <CHROM.1>
-77.86548807,-62.69951620,-88.42178948,-110.30631546,71.53788167,-159.01448819
-64.70367015,170.60808104,68.67327537,69.15483457,0.04761095,-10.40877263
16.91099140,0.68001998,0.03863288,0.81865606

>  <Name>
2g5q_lig

>  <RI>
2.47104e+07

>  <Rbt.Current_Directory>
/home/itssahil/PROJECTS/Mol_Feturizer/New_Systems/rnas/2g5q

>  <Rbt.Executable>
rbdock ($Id: //depot/dev/client3/rdock/2013.1/src/exe/rbdock.cxx#4 $)

>  <Rbt.Library>
libRbt.so (2013.1, Build901 2013/11/27)

>  <Rbt.Parameter_File>
/export/apps/rDock/src/rDock_2013.1_src/data/scripts/dock_solv.prm

>  <Rbt.Receptor>
prm/pocket_docking_7.prm

>  <SCORE>
-11.1138

>  <SCORE.INTER>
-9.15011

>  <SCORE.INTER.CONST>
1

>  <SCORE.INTER.POLAR>
-0.0759674

>  <SCORE.INTER.ROT>
10

>  <SCORE.INTER.SOLV>
22.0953

>  <SCORE.INTER.VDW>
-23.4786

>  <SCORE.INTER.norm>
-0.228753

>  <SCORE.INTRA>
-1.96365

>  <SCORE.INTRA.DIHEDRAL>
-9.64027

>  <SCORE.INTRA.DIHEDRAL.0>
22.5778

>  <SCORE.INTRA.POLAR>
0

>  <SCORE.INTRA.POLAR.0>
0

>  <SCORE.INTRA.REPUL>
0

>  <SCORE.INTRA.REPUL.0>
0

>  <SCORE.INTRA.SOLV>
3.54678

>  <SCORE.INTRA.SOLV.lig_0>
-102.332

>  <SCORE.INTRA.VDW>
1.08309

>  <SCORE.INTRA.VDW.0>
-5.08747

>  <SCORE.INTRA.norm>
-0.0490912

>  <SCORE.RESTR>
0

>  <SCORE.RESTR.CAVITY>
0

>  <SCORE.RESTR.norm>
0

>  <SCORE.SYSTEM>
0

>  <SCORE.SYSTEM.CONST>
0

>  <SCORE.SYSTEM.DIHEDRAL>
0

>  <SCORE.SYSTEM.SOLV>
0

>  <SCORE.SYSTEM.norm>
0

>  <SCORE.heavy>
40

>  <SCORE.norm>
-0.277844

>  <RMSD>
2.517

$$$$
2g5q_lig
 OpenBabel11021811433D
libRbt.so/2013.1/901 2013/11/27
 40 42  0  0  0  0  0  0  0  0999 V2000
    1.8016   -7.6366   20.2052 C   0  0  2  0  0  0  0  0  0  0  0  0
    1.5970   -7.2841   18.8548 O   0  0  0  0  0  0  0  0  0  0  0  0
    2.7634   -6.5984   20.8548 C   0  0  1  0  0  0  0  0  0  0  0  0
    4.1981   -6.6746   20.2470 C   0  0  2  0  0  0  0  0  0  0  0  0
    4.7387   -8.1084   20.4858 C   0  0  2  0  0  0  0  0  0  0  0  0
    6.0714   -8.2126   19.9591 O   0  0  0  0  0  0  0  0  0  0  0  0
    3.7628   -9.1313   19.7749 C   0  0  2  0  0  0  0  0  0  0  0  0
    2.3871   -8.9970   20.3337 O   0  0  0  0  0  0  0  0  0  0  0  0
    4.1937  -10.5826   19.9582 C   0  0  0  0  0  0  0  0  0  0  0  0
    3.4398  -11.5105   19.0568 N   0  0  0  0  0  0  0  0  0  0  0  0
   -1.6122   -9.8817   17.4296 C   0  0  2  0  0  0  0  0  0  0  0  0
   -2.7888  -10.3547   16.7102 N   0  0  0  0  0  0  0  0  0  0  0  0
   -1.9877   -8.6356   18.3364 C   0  0  0  0  0  0  0  0  0  0  0  0
   -0.7172   -8.1244   19.1232 C   0  0  2  0  0  0  0  0  0  0  0  0
   -1.0850   -6.9633   19.9778 N   0  0  0  0  0  0  0  0  0  0  0  0
    0.4220   -7.7447   18.0956 C   0  0  2  0  0  0  0  0  0  0  0  0
    0.7651   -9.0071   17.2093 C   0  0  2  0  0  0  0  0  0  0  0  0
    1.7922   -8.6592   16.2755 O   0  0  0  0  0  0  0  0  0  0  0  0
   -0.5117   -9.4910   16.4215 C   0  0  1  0  0  0  0  0  0  0  0  0
   -0.1960  -10.6611   15.6156 O   0  0  0  0  0  0  0  0  0  0  0  0
   -0.0958  -10.6507   14.2127 C   0  0  2  0  0  0  0  0  0  0  0  0
   -0.1073  -12.1408   13.7302 C   0  0  2  0  0  0  0  0  0  0  0  0
   -1.2930  -12.7497   14.1299 O   0  0  0  0  0  0  0  0  0  0  0  0
    1.1428  -12.9266   14.2800 C   0  0  1  0  0  0  0  0  0  0  0  0
    1.1432  -14.3543   13.8193 N   0  0  0  0  0  0  0  0  0  0  0  0
    2.4496  -12.1813   13.7962 C   0  0  2  0  0  0  0  0  0  0  0  0
    3.6218  -12.8547   14.2597 O   0  0  0  0  0  0  0  0  0  0  0  0
    2.4008  -10.7031   14.3109 C   0  0  2  0  0  0  0  0  0  0  0  0
    1.1665  -10.0011   13.8171 O   0  0  0  0  0  0  0  0  0  0  0  0
    3.5995   -9.9182   13.8630 C   0  0  0  0  0  0  0  0  0  0  0  0
    3.5459   -9.6426   12.4537 O   0  0  0  0  0  0  0  0  0  0  0  0
    2.1852   -5.2595   20.6782 O   0  0  0  0  0  0  0  0  0  0  0  0
    5.0074   -5.7472   20.8654 O   0  0  0  0  0  0  0  0  0  0  0  0
   -7.7886  -11.1857   15.0649 N   0  0  0  0  0  0  0  0  0  0  0  0
   -3.8515  -11.0436   17.2780 C   0  0  0  0  0  0  0  0  0  0  0  0
   -3.9163  -11.3423   18.4654 O   0  0  0  0  0  0  0  0  0  0  0  0
   -4.9392  -11.4087   16.2417 C   0  0  1  0  0  0  0  0  0  0  0  0
   -6.2707  -11.7125   16.9579 C   0  0  0  0  0  0  0  0  0  0  0  0
   -7.4178  -12.1900   16.0597 C   0  0  0  0  0  0  0  0  0  0  0  0
   -5.0920  -10.3139   15.3103 O   0  0  0  0  0  0  0  0  0  0  0  0
  1  2  1  6  0  0  0
  1  3  1  0  0  0  0
  1  8  1  0  0  0  0
  3  4  1  0  0  0  0
  3 32  1  6  0  0  0
  4  5  1  0  0  0  0
  4 33  1  1  0  0  0
  5  6  1  6  0  0  0
  5  7  1  0  0  0  0
  7  8  1  0  0  0  0
  7  9  1  1  0  0  0
  9 10  1  0  0  0  0
 11 12  1  6  0  0  0
 11 13  1  0  0  0  0
 11 19  1  0  0  0  0
 12 35  1  0  0  0  0
 13 14  1  0  0  0  0
 14 15  1  6  0  0  0
 14 16  1  0  0  0  0
 16  2  1  1  0  0  0
 16 17  1  0  0  0  0
 17 18  1  6  0  0  0
 17 19  1  0  0  0  0
 19 20  1  1  0  0  0
 21 20  1  1  0  0  0
 21 22  1  0  0  0  0
 21 29  1  0  0  0  0
 22 23  1  1  0  0  0
 22 24  1  0  0  0  0
 24 25  1  6  0  0  0
 24 26  1  0  0  0  0
 26 27  1  1  0  0  0
 26 28  1  0  0  0  0
 28 29  1  0  0  0  0
 28 30  1  6  0  0  0
 30 31  1  0  0  0  0
 34 39  1  0  0  0  0
 35 36  2  0  0  0  0
 37 35  1  1  0  0  0
 37 38  1  0  0  0  0
 37 40  1  0  0  0  0
 38 39  1  0  0  0  0
M  END
>  <CHROM.1>
-158.27112948,-168.10752097,-72.94080986,22.07304965,132.28808693,-165.89272639
71.49422331,-160.41345604,-175.73304090,-61.72365552,0.40168246,-9.79792903
17.10275981,0.61903100,0.08657304,0.95232151

>  <Name>
2g5q_lig

>  <RI>
0

>  <Rbt.Current_Directory>
/home/itssahil/PROJECTS/Mol_Feturizer/New_Systems/rnas/2g5q

>  <Rbt.Executable>
rbdock ($Id: //depot/dev/client3/rdock/2013.1/src/exe/rbdock.cxx#4 $)

>  <Rbt.Library>
libRbt.so (2013.1, Build901 2013/11/27)

>  <Rbt.Parameter_File>
/export/apps/rDock/src/rDock_2013.1_src/data/scripts/dock_solv.prm

>  <Rbt.Receptor>
prm/pocket_docking_2.prm

>  <SCORE>
-5.0412

>  <SCORE.INTER>
-6.157

>  <SCORE.INTER.CONST>
1

>  <SCORE.INTER.POLAR>
-0.462346

>  <SCORE.INTER.ROT>
10

>  <SCORE.INTER.SOLV>
16.6084

>  <SCORE.INTER.VDW>
-18.3663

>  <SCORE.INTER.norm>
-0.153925

>  <SCORE.INTRA>
-0.0638636

>  <SCORE.INTRA.DIHEDRAL>
-5.61169

>  <SCORE.INTRA.DIHEDRAL.0>
22.5778

>  <SCORE.INTRA.POLAR>
0

>  <SCORE.INTRA.POLAR.0>
0

>  <SCORE.INTRA.REPUL>
0

>  <SCORE.INTRA.REPUL.0>
0

>  <SCORE.INTRA.SOLV>
2.52123

>  <SCORE.INTRA.SOLV.lig_0>
-102.332

>  <SCORE.INTRA.VDW>
1.48136

>  <SCORE.INTRA.VDW.0>
-5.08747

>  <SCORE.INTRA.norm>
-0.00159659

>  <SCORE.RESTR>
1.17966

>  <SCORE.RESTR.CAVITY>
1.17966

>  <SCORE.RESTR.norm>
0.0294916

>  <SCORE.SYSTEM>
0

>  <SCORE.SYSTEM.CONST>
0

>  <SCORE.SYSTEM.DIHEDRAL>
0

>  <SCORE.SYSTEM.SOLV>
0

>  <SCORE.SYSTEM.norm>
0

>  <SCORE.heavy>
40

>  <SCORE.norm>
-0.12603

>  <RMSD>
2.539

$$$$
2g5q_lig
 OpenBabel11021811433D
libRbt.so/2013.1/901 2013/11/27
 40 42  0  0  0  0  0  0  0  0999 V2000
    1.5410   -7.7400   20.0471 C   0  0  2  0  0  0  0  0  0  0  0  0
    1.2595   -7.2667   18.7486 O   0  0  0  0  0  0  0  0  0  0  0  0
    2.4813   -6.7234   20.7592 C   0  0  1  0  0  0  0  0  0  0  0  0
    3.8892   -6.6656   20.0898 C   0  0  2  0  0  0  0  0  0  0  0  0
    4.5066   -8.0864   20.1606 C   0  0  2  0  0  0  0  0  0  0  0  0
    5.8177   -8.0696   19.5730 O   0  0  0  0  0  0  0  0  0  0  0  0
    3.5488   -9.0825   19.3897 C   0  0  2  0  0  0  0  0  0  0  0  0
    2.1949   -9.0747   20.0139 O   0  0  0  0  0  0  0  0  0  0  0  0
    4.0551  -10.5209   19.4080 C   0  0  0  0  0  0  0  0  0  0  0  0
    5.4812  -10.6202   18.9629 N   0  0  0  0  0  0  0  0  0  0  0  0
   -1.8821   -9.9341   17.3022 C   0  0  2  0  0  0  0  0  0  0  0  0
   -3.0324  -10.4383   16.5617 N   0  0  0  0  0  0  0  0  0  0  0  0
   -2.2958   -8.6670   18.1620 C   0  0  0  0  0  0  0  0  0  0  0  0
   -1.0541   -8.1217   18.9716 C   0  0  2  0  0  0  0  0  0  0  0  0
   -1.4577   -6.9409   19.7820 N   0  0  0  0  0  0  0  0  0  0  0  0
    0.1120   -7.7596   17.9680 C   0  0  2  0  0  0  0  0  0  0  0  0
    0.4927   -9.0427   17.1281 C   0  0  2  0  0  0  0  0  0  0  0  0
    1.5442   -8.7109   16.2158 O   0  0  0  0  0  0  0  0  0  0  0  0
   -0.7555   -9.5608   16.3166 C   0  0  1  0  0  0  0  0  0  0  0  0
   -0.4054  -10.7497   15.5536 O   0  0  0  0  0  0  0  0  0  0  0  0
   -0.2487  -10.7740   14.1561 C   0  0  2  0  0  0  0  0  0  0  0  0
   -0.2345  -12.2757   13.7114 C   0  0  2  0  0  0  0  0  0  0  0  0
   -1.4328  -12.8805   14.0782 O   0  0  0  0  0  0  0  0  0  0  0  0
    0.9957  -13.0411   14.3307 C   0  0  1  0  0  0  0  0  0  0  0  0
    1.0206  -14.4798   13.9067 N   0  0  0  0  0  0  0  0  0  0  0  0
    2.3179  -12.3014   13.8812 C   0  0  2  0  0  0  0  0  0  0  0  0
    3.4731  -12.9569   14.4084 O   0  0  0  0  0  0  0  0  0  0  0  0
    2.2421  -10.8110   14.3560 C   0  0  2  0  0  0  0  0  0  0  0  0
    1.0260  -10.1280   13.7953 O   0  0  0  0  0  0  0  0  0  0  0  0
    3.4547  -10.0314   13.9371 C   0  0  0  0  0  0  0  0  0  0  0  0
    3.4639   -9.8034   12.5183 O   0  0  0  0  0  0  0  0  0  0  0  0
    1.8337   -5.4049   20.7421 O   0  0  0  0  0  0  0  0  0  0  0  0
    4.6812   -5.7637   20.7657 O   0  0  0  0  0  0  0  0  0  0  0  0
   -7.5561  -13.2150   15.1752 N   0  0  0  0  0  0  0  0  0  0  0  0
   -4.2836  -10.6963   17.1040 C   0  0  0  0  0  0  0  0  0  0  0  0
   -4.5630  -10.5332   18.2867 O   0  0  0  0  0  0  0  0  0  0  0  0
   -5.2839  -11.2297   16.0527 C   0  0  1  0  0  0  0  0  0  0  0  0
   -6.6561  -11.4828   16.7095 C   0  0  0  0  0  0  0  0  0  0  0  0
   -7.7855  -11.8946   15.7581 C   0  0  0  0  0  0  0  0  0  0  0  0
   -5.3956  -10.2711   14.9766 O   0  0  0  0  0  0  0  0  0  0  0  0
  1  2  1  6  0  0  0
  1  3  1  0  0  0  0
  1  8  1  0  0  0  0
  3  4  1  0  0  0  0
  3 32  1  6  0  0  0
  4  5  1  0  0  0  0
  4 33  1  1  0  0  0
  5  6  1  6  0  0  0
  5  7  1  0  0  0  0
  7  8  1  0  0  0  0
  7  9  1  1  0  0  0
  9 10  1  0  0  0  0
 11 12  1  6  0  0  0
 11 13  1  0  0  0  0
 11 19  1  0  0  0  0
 12 35  1  0  0  0  0
 13 14  1  0  0  0  0
 14 15  1  6  0  0  0
 14 16  1  0  0  0  0
 16  2  1  1  0  0  0
 16 17  1  0  0  0  0
 17 18  1  6  0  0  0
 17 19  1  0  0  0  0
 19 20  1  1  0  0  0
 21 20  1  1  0  0  0
 21 22  1  0  0  0  0
 21 29  1  0  0  0  0
 22 23  1  1  0  0  0
 22 24  1  0  0  0  0
 24 25  1  6  0  0  0
 24 26  1  0  0  0  0
 26 27  1  1  0  0  0
 26 28  1  0  0  0  0
 28 29  1  0  0  0  0
 28 30  1  6  0  0  0
 30 31  1  0  0  0  0
 34 39  1  0  0  0  0
 35 36  2  0  0  0  0
 37 35  1  1  0  0  0
 37 38  1  0  0  0  0
 37 40  1  0  0  0  0
 38 39  1  0  0  0  0
M  END
>  <CHROM.1>
-161.39662769,-51.23794761,-49.46413944,32.06307821,133.03004074,-166.02471329
70.90179010,-179.40142343,174.67110453,67.14018861,0.21521427,-9.82615845
16.98459666,0.58049111,0.06937297,0.90645160

>  <Name>
2g5q_lig

>  <RI>
0

>  <Rbt.Current_Directory>
/home/itssahil/PROJECTS/Mol_Feturizer/New_Systems/rnas/2g5q

>  <Rbt.Executable>
rbdock ($Id: //depot/dev/client3/rdock/2013.1/src/exe/rbdock.cxx#4 $)

>  <Rbt.Library>
libRbt.so (2013.1, Build901 2013/11/27)

>  <Rbt.Parameter_File>
/export/apps/rDock/src/rDock_2013.1_src/data/scripts/dock_solv.prm

>  <Rbt.Receptor>
prm/pocket_docking_2.prm

>  <SCORE>
-5.07858

>  <SCORE.INTER>
-4.29765

>  <SCORE.INTER.CONST>
1

>  <SCORE.INTER.POLAR>
-0.42692

>  <SCORE.INTER.ROT>
10

>  <SCORE.INTER.SOLV>
21.5878

>  <SCORE.INTER.VDW>
-18.9046

>  <SCORE.INTER.norm>
-0.107441

>  <SCORE.INTRA>
-1.05156

>  <SCORE.INTRA.DIHEDRAL>
-8.57887

>  <SCORE.INTRA.DIHEDRAL.0>
22.5778

>  <SCORE.INTRA.POLAR>
0

>  <SCORE.INTRA.POLAR.0>
0

>  <SCORE.INTRA.REPUL>
0

>  <SCORE.INTRA.REPUL.0>
0

>  <SCORE.INTRA.SOLV>
2.79833

>  <SCORE.INTRA.SOLV.lig_0>
-102.332

>  <SCORE.INTRA.VDW>
1.83871

>  <SCORE.INTRA.VDW.0>
-5.08747

>  <SCORE.INTRA.norm>
-0.0262889

>  <SCORE.RESTR>
0.270631

>  <SCORE.RESTR.CAVITY>
0.270631

>  <SCORE.RESTR.norm>
0.00676578

>  <SCORE.SYSTEM>
0

>  <SCORE.SYSTEM.CONST>
0

>  <SCORE.SYSTEM.DIHEDRAL>
0

>  <SCORE.SYSTEM.SOLV>
0

>  <SCORE.SYSTEM.norm>
0

>  <SCORE.heavy>
40

>  <SCORE.norm>
-0.126964

>  <RMSD>
2.593

$$$$
2g5q_lig
 OpenBabel11021811433D
libRbt.so/2013.1/901 2013/11/27
 40 42  0  0  0  0  0  0  0  0999 V2000
    1.6514   -8.0128   19.9248 C   0  0  2  0  0  0  0  0  0  0  0  0
    1.2717   -7.4246   18.7004 O   0  0  0  0  0  0  0  0  0  0  0  0
    2.4949   -6.9850   20.7353 C   0  0  1  0  0  0  0  0  0  0  0  0
    3.8623   -6.6833   20.0476 C   0  0  2  0  0  0  0  0  0  0  0  0
    4.6394   -8.0202   19.9307 C   0  0  2  0  0  0  0  0  0  0  0  0
    5.9182   -7.7801   19.3212 O   0  0  0  0  0  0  0  0  0  0  0  0
    3.7741   -9.0229   19.0646 C   0  0  2  0  0  0  0  0  0  0  0  0
    2.4513   -9.2482   19.7144 O   0  0  0  0  0  0  0  0  0  0  0  0
    4.4410  -10.3839   18.8958 C   0  0  0  0  0  0  0  0  0  0  0  0
    4.9634  -10.9183   20.1932 N   0  0  0  0  0  0  0  0  0  0  0  0
   -1.9269  -10.0619   17.3254 C   0  0  2  0  0  0  0  0  0  0  0  0
   -3.0671  -10.5741   16.5748 N   0  0  0  0  0  0  0  0  0  0  0  0
   -2.3170   -8.7130   18.0631 C   0  0  0  0  0  0  0  0  0  0  0  0
   -1.0866   -8.1584   18.8835 C   0  0  2  0  0  0  0  0  0  0  0  0
   -1.4687   -6.8998   19.5792 N   0  0  0  0  0  0  0  0  0  0  0  0
    0.1365   -7.9289   17.9091 C   0  0  2  0  0  0  0  0  0  0  0  0
    0.4922   -9.2907   17.1909 C   0  0  2  0  0  0  0  0  0  0  0  0
    1.5956   -9.0791   16.3046 O   0  0  0  0  0  0  0  0  0  0  0  0
   -0.7434   -9.8181   16.3663 C   0  0  1  0  0  0  0  0  0  0  0  0
   -0.4171  -11.0786   15.7159 O   0  0  0  0  0  0  0  0  0  0  0  0
   -0.8003  -11.4137   14.4048 C   0  0  2  0  0  0  0  0  0  0  0  0
   -0.7954  -12.9764   14.2992 C   0  0  2  0  0  0  0  0  0  0  0  0
   -1.6932  -13.5074   15.2203 O   0  0  0  0  0  0  0  0  0  0  0  0
    0.6519  -13.5575   14.5237 C   0  0  1  0  0  0  0  0  0  0  0  0
    0.6678  -15.0539   14.4199 N   0  0  0  0  0  0  0  0  0  0  0  0
    1.6178  -12.9113   13.4528 C   0  0  2  0  0  0  0  0  0  0  0  0
    2.9495  -13.4075   13.6022 O   0  0  0  0  0  0  0  0  0  0  0  0
    1.5689  -11.3540   13.6119 C   0  0  2  0  0  0  0  0  0  0  0  0
    0.1655  -10.8398   13.4509 O   0  0  0  0  0  0  0  0  0  0  0  0
    2.4414  -10.6642   12.6036 C   0  0  0  0  0  0  0  0  0  0  0  0
    2.6320   -9.2800   12.9387 O   0  0  0  0  0  0  0  0  0  0  0  0
    1.7013   -5.7590   20.8938 O   0  0  0  0  0  0  0  0  0  0  0  0
    4.5702   -5.7817   20.8114 O   0  0  0  0  0  0  0  0  0  0  0  0
   -7.6116  -13.2946   15.1521 N   0  0  0  0  0  0  0  0  0  0  0  0
   -4.2941  -10.9234   17.1213 C   0  0  0  0  0  0  0  0  0  0  0  0
   -4.5573  -10.8458   18.3163 O   0  0  0  0  0  0  0  0  0  0  0  0
   -5.2893  -11.4387   16.0562 C   0  0  1  0  0  0  0  0  0  0  0  0
   -6.7035  -11.5453   16.6619 C   0  0  0  0  0  0  0  0  0  0  0  0
   -7.8171  -11.9512   15.6896 C   0  0  0  0  0  0  0  0  0  0  0  0
   -5.2789  -10.5396   14.9245 O   0  0  0  0  0  0  0  0  0  0  0  0
  1  2  1  6  0  0  0
  1  3  1  0  0  0  0
  1  8  1  0  0  0  0
  3  4  1  0  0  0  0
  3 32  1  6  0  0  0
  4  5  1  0  0  0  0
  4 33  1  1  0  0  0
  5  6  1  6  0  0  0
  5  7  1  0  0  0  0
  7  8  1  0  0  0  0
  7  9  1  1  0  0  0
  9 10  1  0  0  0  0
 11 12  1  6  0  0  0
 11 13  1  0  0  0  0
 11 19  1  0  0  0  0
 12 35  1  0  0  0  0
 13 14  1  0  0  0  0
 14 15  1  6  0  0  0
 14 16  1  0  0  0  0
 16  2  1  1  0  0  0
 16 17  1  0  0  0  0
 17 18  1  6  0  0  0
 17 19  1  0  0  0  0
 19 20  1  1  0  0  0
 21 20  1  1  0  0  0
 21 22  1  0  0  0  0
 21 29  1  0  0  0  0
 22 23  1  1  0  0  0
 22 24  1  0  0  0  0
 24 25  1  6  0  0  0
 24 26  1  0  0  0  0
 26 27  1  1  0  0  0
 26 28  1  0  0  0  0
 28 29  1  0  0  0  0
 28 30  1  6  0  0  0
 30 31  1  0  0  0  0
 34 39  1  0  0  0  0
 35 36  2  0  0  0  0
 37 35  1  1  0  0  0
 37 38  1  0  0  0  0
 37 40  1  0  0  0  0
 38 39  1  0  0  0  0
M  END
>  <CHROM.1>
-159.63678172,46.89499110,-59.73830521,46.39178617,101.53541623,-157.00741652
-166.89365210,-168.87171066,175.85555596,63.46457987,0.05604252,-10.05900360
16.95806617,0.65199843,0.06743382,0.87631387

>  <Name>
2g5q_lig

>  <RI>
0

>  <Rbt.Current_Directory>
/home/itssahil/PROJECTS/Mol_Feturizer/New_Systems/rnas/2g5q

>  <Rbt.Executable>
rbdock ($Id: //depot/dev/client3/rdock/2013.1/src/exe/rbdock.cxx#4 $)

>  <Rbt.Library>
libRbt.so (2013.1, Build901 2013/11/27)

>  <Rbt.Parameter_File>
/export/apps/rDock/src/rDock_2013.1_src/data/scripts/dock_solv.prm

>  <Rbt.Receptor>
prm/pocket_docking_2.prm

>  <SCORE>
-10.4824

>  <SCORE.INTER>
-8.02448

>  <SCORE.INTER.CONST>
1

>  <SCORE.INTER.POLAR>
-1.18372

>  <SCORE.INTER.ROT>
10

>  <SCORE.INTER.SOLV>
22.6871

>  <SCORE.INTER.VDW>
-19.233

>  <SCORE.INTER.norm>
-0.200612

>  <SCORE.INTRA>
-2.78567

>  <SCORE.INTRA.DIHEDRAL>
-9.62867

>  <SCORE.INTRA.DIHEDRAL.0>
22.5778

>  <SCORE.INTRA.POLAR>
0

>  <SCORE.INTRA.POLAR.0>
0

>  <SCORE.INTRA.REPUL>
0

>  <SCORE.INTRA.REPUL.0>
0

>  <SCORE.INTRA.SOLV>
2.73723

>  <SCORE.INTRA.SOLV.lig_0>
-102.332

>  <SCORE.INTRA.VDW>
0.660049

>  <SCORE.INTRA.VDW.0>
-5.08747

>  <SCORE.INTRA.norm>
-0.0696417

>  <SCORE.RESTR>
0.327751

>  <SCORE.RESTR.CAVITY>
0.327751

>  <SCORE.RESTR.norm>
0.00819377

>  <SCORE.SYSTEM>
0

>  <SCORE.SYSTEM.CONST>
0

>  <SCORE.SYSTEM.DIHEDRAL>
0

>  <SCORE.SYSTEM.SOLV>
0

>  <SCORE.SYSTEM.norm>
0

>  <SCORE.heavy>
40

>  <SCORE.norm>
-0.26206

>  <RMSD>
2.616

$$$$
2g5q_lig
 OpenBabel11021811433D
libRbt.so/2013.1/901 2013/11/27
 40 42  0  0  0  0  0  0  0  0999 V2000
    1.5498   -7.7880   20.0167 C   0  0  2  0  0  0  0  0  0  0  0  0
    1.2858   -7.2917   18.7230 O   0  0  0  0  0  0  0  0  0  0  0  0
    2.4162   -6.7479   20.7863 C   0  0  1  0  0  0  0  0  0  0  0  0
    3.8397   -6.6028   20.1647 C   0  0  2  0  0  0  0  0  0  0  0  0
    4.5239   -7.9936   20.2170 C   0  0  2  0  0  0  0  0  0  0  0  0
    5.8501   -7.8964   19.6729 O   0  0  0  0  0  0  0  0  0  0  0  0
    3.6408   -9.0123   19.3885 C   0  0  2  0  0  0  0  0  0  0  0  0
    2.2694   -9.0880   19.9685 O   0  0  0  0  0  0  0  0  0  0  0  0
    4.2165  -10.4245   19.3842 C   0  0  0  0  0  0  0  0  0  0  0  0
    3.3351  -11.3882   18.6520 N   0  0  0  0  0  0  0  0  0  0  0  0
   -1.7476  -10.0374   17.1943 C   0  0  2  0  0  0  0  0  0  0  0  0
   -2.8397  -10.5833   16.3974 N   0  0  0  0  0  0  0  0  0  0  0  0
   -2.2203   -8.7226   17.9452 C   0  0  0  0  0  0  0  0  0  0  0  0
   -1.0421   -8.1318   18.8155 C   0  0  2  0  0  0  0  0  0  0  0  0
   -1.5015   -6.9060   19.5229 N   0  0  0  0  0  0  0  0  0  0  0  0
    0.1996   -7.8287   17.8858 C   0  0  2  0  0  0  0  0  0  0  0  0
    0.6378   -9.1583   17.1532 C   0  0  2  0  0  0  0  0  0  0  0  0
    1.7581   -8.8801   16.3073 O   0  0  0  0  0  0  0  0  0  0  0  0
   -0.5466   -9.7221   16.2789 C   0  0  1  0  0  0  0  0  0  0  0  0
   -0.1442  -10.9532   15.6150 O   0  0  0  0  0  0  0  0  0  0  0  0
   -0.5268  -11.3081   14.3089 C   0  0  2  0  0  0  0  0  0  0  0  0
   -0.5496  -12.8725   14.2351 C   0  0  2  0  0  0  0  0  0  0  0  0
   -1.4615  -13.3683   15.1620 O   0  0  0  0  0  0  0  0  0  0  0  0
    0.8858  -13.4747   14.4792 C   0  0  1  0  0  0  0  0  0  0  0  0
    0.8752  -14.9730   14.4059 N   0  0  0  0  0  0  0  0  0  0  0  0
    1.8686  -12.8679   13.4006 C   0  0  2  0  0  0  0  0  0  0  0  0
    3.1904  -13.3848   13.5672 O   0  0  0  0  0  0  0  0  0  0  0  0
    1.8470  -11.3071   13.5277 C   0  0  2  0  0  0  0  0  0  0  0  0
    0.4540  -10.7711   13.3488 O   0  0  0  0  0  0  0  0  0  0  0  0
    2.7369  -10.6539   12.5103 C   0  0  0  0  0  0  0  0  0  0  0  0
    2.8965   -9.2516   12.7805 O   0  0  0  0  0  0  0  0  0  0  0  0
    1.7052   -5.4624   20.7840 O   0  0  0  0  0  0  0  0  0  0  0  0
    4.5648   -5.6835   20.8903 O   0  0  0  0  0  0  0  0  0  0  0  0
   -7.9275  -11.5369   14.7130 N   0  0  0  0  0  0  0  0  0  0  0  0
   -4.0404  -11.0604   16.9044 C   0  0  0  0  0  0  0  0  0  0  0  0
   -4.3174  -11.0831   18.0986 O   0  0  0  0  0  0  0  0  0  0  0  0
   -4.9854  -11.5774   15.7953 C   0  0  1  0  0  0  0  0  0  0  0  0
   -6.2522  -12.1918   16.4244 C   0  0  0  0  0  0  0  0  0  0  0  0
   -7.3294  -12.6564   15.4374 C   0  0  0  0  0  0  0  0  0  0  0  0
   -5.3251  -10.4826   14.9148 O   0  0  0  0  0  0  0  0  0  0  0  0
  1  2  1  6  0  0  0
  1  3  1  0  0  0  0
  1  8  1  0  0  0  0
  3  4  1  0  0  0  0
  3 32  1  6  0  0  0
  4  5  1  0  0  0  0
  4 33  1  1  0  0  0
  5  6  1  6  0  0  0
  5  7  1  0  0  0  0
  7  8  1  0  0  0  0
  7  9  1  1  0  0  0
  9 10  1  0  0  0  0
 11 12  1  6  0  0  0
 11 13  1  0  0  0  0
 11 19  1  0  0  0  0
 12 35  1  0  0  0  0
 13 14  1  0  0  0  0
 14 15  1  6  0  0  0
 14 16  1  0  0  0  0
 16  2  1  1  0  0  0
 16 17  1  0  0  0  0
 17 18  1  6  0  0  0
 17 19  1  0  0  0  0
 19 20  1  1  0  0  0
 21 20  1  1  0  0  0
 21 22  1  0  0  0  0
 21 29  1  0  0  0  0
 22 23  1  1  0  0  0
 22 24  1  0  0  0  0
 24 25  1  6  0  0  0
 24 26  1  0  0  0  0
 26 27  1  1  0  0  0
 26 28  1  0  0  0  0
 28 29  1  0  0  0  0
 28 30  1  6  0  0  0
 30 31  1  0  0  0  0
 34 39  1  0  0  0  0
 35 36  2  0  0  0  0
 37 35  1  1  0  0  0
 37 38  1  0  0  0  0
 37 40  1  0  0  0  0
 38 39  1  0  0  0  0
M  END
>  <CHROM.1>
-162.18699006,177.25209662,-63.21136759,38.74219051,98.18788669,-151.55351181
-169.79752374,175.67043215,175.75578103,-66.39720347,0.13098521,-10.00790328
16.88922673,0.71291357,0.06310485,0.87881937

>  <Name>
2g5q_lig

>  <RI>
0

>  <Rbt.Current_Directory>
/home/itssahil/PROJECTS/Mol_Feturizer/New_Systems/rnas/2g5q

>  <Rbt.Executable>
rbdock ($Id: //depot/dev/client3/rdock/2013.1/src/exe/rbdock.cxx#4 $)

>  <Rbt.Library>
libRbt.so (2013.1, Build901 2013/11/27)

>  <Rbt.Parameter_File>
/export/apps/rDock/src/rDock_2013.1_src/data/scripts/dock_solv.prm

>  <Rbt.Receptor>
prm/pocket_docking_2.prm

>  <SCORE>
-13.2299

>  <SCORE.INTER>
-12.0859

>  <SCORE.INTER.CONST>
1

>  <SCORE.INTER.POLAR>
-1.06943

>  <SCORE.INTER.ROT>
10

>  <SCORE.INTER.SOLV>
19.1949

>  <SCORE.INTER.VDW>
-21.1575

>  <SCORE.INTER.norm>
-0.302148

>  <SCORE.INTRA>
-2.50224

>  <SCORE.INTRA.DIHEDRAL>
-9.2545

>  <SCORE.INTRA.DIHEDRAL.0>
22.5778

>  <SCORE.INTRA.POLAR>
0

>  <SCORE.INTRA.POLAR.0>
0

>  <SCORE.INTRA.REPUL>
0

>  <SCORE.INTRA.REPUL.0>
0

>  <SCORE.INTRA.SOLV>
2.92993

>  <SCORE.INTRA.SOLV.lig_0>
-102.332

>  <SCORE.INTRA.VDW>
0.660044

>  <SCORE.INTRA.VDW.0>
-5.08747

>  <SCORE.INTRA.norm>
-0.062556

>  <SCORE.RESTR>
1.35821

>  <SCORE.RESTR.CAVITY>
1.35821

>  <SCORE.RESTR.norm>
0.0339551

>  <SCORE.SYSTEM>
0

>  <SCORE.SYSTEM.CONST>
0

>  <SCORE.SYSTEM.DIHEDRAL>
0

>  <SCORE.SYSTEM.SOLV>
0

>  <SCORE.SYSTEM.norm>
0

>  <SCORE.heavy>
40

>  <SCORE.norm>
-0.330749

>  <RMSD>
2.620

$$$$
2g5q_lig
 OpenBabel11021811433D
libRbt.so/2013.1/901 2013/11/27
 40 42  0  0  0  0  0  0  0  0999 V2000
    2.7441   -6.0361   19.0464 C   0  0  2  0  0  0  0  0  0  0  0  0
    1.8158   -6.9338   19.6135 O   0  0  0  0  0  0  0  0  0  0  0  0
    4.1227   -6.2325   19.7434 C   0  0  1  0  0  0  0  0  0  0  0  0
    4.0832   -5.8020   21.2424 C   0  0  2  0  0  0  0  0  0  0  0  0
    3.6795   -4.3057   21.2955 C   0  0  2  0  0  0  0  0  0  0  0  0
    3.6543   -3.8639   22.6625 O   0  0  0  0  0  0  0  0  0  0  0  0
    2.2568   -4.1514   20.6200 C   0  0  2  0  0  0  0  0  0  0  0  0
    2.3088   -4.6237   19.2069 O   0  0  0  0  0  0  0  0  0  0  0  0
    1.7642   -2.7083   20.6045 C   0  0  0  0  0  0  0  0  0  0  0  0
    1.5339   -2.1784   21.9858 N   0  0  0  0  0  0  0  0  0  0  0  0
   -0.7534  -10.0471   17.9450 C   0  0  2  0  0  0  0  0  0  0  0  0
   -1.8078  -10.7055   17.1830 N   0  0  0  0  0  0  0  0  0  0  0  0
   -1.3813   -9.0086   18.9663 C   0  0  0  0  0  0  0  0  0  0  0  0
   -0.2428   -8.2982   19.7991 C   0  0  2  0  0  0  0  0  0  0  0  0
   -0.8452   -7.3354   20.7605 N   0  0  0  0  0  0  0  0  0  0  0  0
    0.7594   -7.5761   18.8131 C   0  0  2  0  0  0  0  0  0  0  0  0
    1.3598   -8.6397   17.8105 C   0  0  2  0  0  0  0  0  0  0  0  0
    2.2619   -7.9825   16.9148 O   0  0  0  0  0  0  0  0  0  0  0  0
    0.2089   -9.3249   16.9794 C   0  0  1  0  0  0  0  0  0  0  0  0
    0.7635  -10.3127   16.0657 O   0  0  0  0  0  0  0  0  0  0  0  0
    1.6722  -11.3172   16.4446 C   0  0  2  0  0  0  0  0  0  0  0  0
    2.8990  -11.2305   15.4747 C   0  0  2  0  0  0  0  0  0  0  0  0
    3.4883   -9.9744   15.5816 O   0  0  0  0  0  0  0  0  0  0  0  0
    2.4710  -11.5274   13.9877 C   0  0  1  0  0  0  0  0  0  0  0  0
    3.6406  -11.4512   13.0513 N   0  0  0  0  0  0  0  0  0  0  0  0
    1.8067  -12.9604   13.9391 C   0  0  2  0  0  0  0  0  0  0  0  0
    1.4028  -13.2903   12.6086 O   0  0  0  0  0  0  0  0  0  0  0  0
    0.5903  -12.9804   14.9252 C   0  0  2  0  0  0  0  0  0  0  0  0
    1.0237  -12.6350   16.3226 O   0  0  0  0  0  0  0  0  0  0  0  0
   -0.0770  -14.3248   14.9583 C   0  0  0  0  0  0  0  0  0  0  0  0
   -0.5212  -14.7191   13.6498 O   0  0  0  0  0  0  0  0  0  0  0  0
    4.5116   -7.6427   19.6087 O   0  0  0  0  0  0  0  0  0  0  0  0
    5.3278   -5.9838   21.8041 O   0  0  0  0  0  0  0  0  0  0  0  0
   -3.0995  -13.9349   16.9879 N   0  0  0  0  0  0  0  0  0  0  0  0
   -2.9068  -10.0699   16.6222 C   0  0  0  0  0  0  0  0  0  0  0  0
   -3.1204   -8.8660   16.7131 O   0  0  0  0  0  0  0  0  0  0  0  0
   -3.8434  -11.0532   15.8829 C   0  0  1  0  0  0  0  0  0  0  0  0
   -4.5824  -11.9454   16.9006 C   0  0  0  0  0  0  0  0  0  0  0  0
   -3.6947  -12.8491   17.7642 C   0  0  0  0  0  0  0  0  0  0  0  0
   -4.7805  -10.3007   15.0798 O   0  0  0  0  0  0  0  0  0  0  0  0
  1  2  1  1  0  0  0
  1  3  1  0  0  0  0
  1  8  1  0  0  0  0
  3  4  1  0  0  0  0
  3 32  1  1  0  0  0
  4  5  1  0  0  0  0
  4 33  1  6  0  0  0
  5  6  1  1  0  0  0
  5  7  1  0  0  0  0
  7  8  1  0  0  0  0
  7  9  1  6  0  0  0
  9 10  1  0  0  0  0
 11 12  1  6  0  0  0
 11 13  1  0  0  0  0
 11 19  1  0  0  0  0
 12 35  1  0  0  0  0
 13 14  1  0  0  0  0
 14 15  1  1  0  0  0
 14 16  1  0  0  0  0
 16  2  1  1  0  0  0
 16 17  1  0  0  0  0
 17 18  1  6  0  0  0
 17 19  1  0  0  0  0
 19 20  1  6  0  0  0
 21 20  1  6  0  0  0
 21 22  1  0  0  0  0
 21 29  1  0  0  0  0
 22 23  1  6  0  0  0
 22 24  1  0  0  0  0
 24 25  1  6  0  0  0
 24 26  1  0  0  0  0
 26 27  1  6  0  0  0
 26 28  1  0  0  0  0
 28 29  1  0  0  0  0
 28 30  1  1  0  0  0
 30 31  1  0  0  0  0
 34 39  1  0  0  0  0
 35 36  2  0  0  0  0
 37 35  1  1  0  0  0
 37 38  1  0  0  0  0
 37 40  1  0  0  0  0
 38 39  1  0  0  0  0
M  END
>  <CHROM.1>
-144.38563324,-64.63182514,43.84321281,-169.89754046,-69.45348114,-127.57659116
-57.55280187,70.98215531,-62.19976429,-70.48307376,0.78347731,-9.12750623
17.62755608,-1.18537705,-0.15598138,-2.44040203

>  <Name>
2g5q_lig

>  <RI>
0

>  <Rbt.Current_Directory>
/home/itssahil/PROJECTS/Mol_Feturizer/New_Systems/rnas/2g5q

>  <Rbt.Executable>
rbdock ($Id: //depot/dev/client3/rdock/2013.1/src/exe/rbdock.cxx#4 $)

>  <Rbt.Library>
libRbt.so (2013.1, Build901 2013/11/27)

>  <Rbt.Parameter_File>
/export/apps/rDock/src/rDock_2013.1_src/data/scripts/dock_solv.prm

>  <Rbt.Receptor>
prm/pocket_docking_3.prm

>  <SCORE>
-11.067

>  <SCORE.INTER>
-10.2429

>  <SCORE.INTER.CONST>
1

>  <SCORE.INTER.POLAR>
-0.862099

>  <SCORE.INTER.ROT>
10

>  <SCORE.INTER.SOLV>
19.5462

>  <SCORE.INTER.VDW>
-20.737

>  <SCORE.INTER.norm>
-0.256073

>  <SCORE.INTRA>
-1.17743

>  <SCORE.INTRA.DIHEDRAL>
-8.41111

>  <SCORE.INTRA.DIHEDRAL.0>
22.5778

>  <SCORE.INTRA.POLAR>
0

>  <SCORE.INTRA.POLAR.0>
0

>  <SCORE.INTRA.REPUL>
0

>  <SCORE.INTRA.REPUL.0>
0

>  <SCORE.INTRA.SOLV>
3.37512

>  <SCORE.INTRA.SOLV.lig_0>
-102.332

>  <SCORE.INTRA.VDW>
1.34057

>  <SCORE.INTRA.VDW.0>
-5.08747

>  <SCORE.INTRA.norm>
-0.0294358

>  <SCORE.RESTR>
0.353341

>  <SCORE.RESTR.CAVITY>
0.353341

>  <SCORE.RESTR.norm>
0.00883353

>  <SCORE.SYSTEM>
0

>  <SCORE.SYSTEM.CONST>
0

>  <SCORE.SYSTEM.DIHEDRAL>
0

>  <SCORE.SYSTEM.SOLV>
0

>  <SCORE.SYSTEM.norm>
0

>  <SCORE.heavy>
40

>  <SCORE.norm>
-0.276676

>  <RMSD>
2.628

$$$$
2g5q_lig
 OpenBabel11021811433D
libRbt.so/2013.1/901 2013/11/27
 40 42  0  0  0  0  0  0  0  0999 V2000
    1.3247   -7.8033   19.6389 C   0  0  2  0  0  0  0  0  0  0  0  0
    0.8107   -7.3271   18.4148 O   0  0  0  0  0  0  0  0  0  0  0  0
    1.4218   -6.6139   20.6393 C   0  0  1  0  0  0  0  0  0  0  0  0
    2.4851   -5.5634   20.1928 C   0  0  2  0  0  0  0  0  0  0  0  0
    3.8553   -6.2841   20.1036 C   0  0  2  0  0  0  0  0  0  0  0  0
    4.8686   -5.3419   19.7162 O   0  0  0  0  0  0  0  0  0  0  0  0
    3.7319   -7.4555   19.0469 C   0  0  2  0  0  0  0  0  0  0  0  0
    2.6697   -8.4132   19.4682 O   0  0  0  0  0  0  0  0  0  0  0  0
    5.0265   -8.2457   18.8880 C   0  0  0  0  0  0  0  0  0  0  0  0
    5.4024   -8.9668   20.1451 N   0  0  0  0  0  0  0  0  0  0  0  0
   -2.1883  -10.3378   17.4051 C   0  0  2  0  0  0  0  0  0  0  0  0
   -3.3151  -11.0023   16.7613 N   0  0  0  0  0  0  0  0  0  0  0  0
   -2.6649   -8.9881   18.0886 C   0  0  0  0  0  0  0  0  0  0  0  0
   -1.4485   -8.2685   18.7936 C   0  0  2  0  0  0  0  0  0  0  0  0
   -1.9107   -7.0104   19.4399 N   0  0  0  0  0  0  0  0  0  0  0  0
   -0.3144   -7.9859   17.7297 C   0  0  2  0  0  0  0  0  0  0  0  0
    0.1305   -9.3504   17.0686 C   0  0  2  0  0  0  0  0  0  0  0  0
    1.1528   -9.0914   16.1013 O   0  0  0  0  0  0  0  0  0  0  0  0
   -1.0940  -10.0438   16.3581 C   0  0  1  0  0  0  0  0  0  0  0  0
   -0.6842  -11.3062   15.7608 O   0  0  0  0  0  0  0  0  0  0  0  0
   -0.9599  -11.6783   14.4328 C   0  0  2  0  0  0  0  0  0  0  0  0
   -0.7375  -13.2248   14.3227 C   0  0  2  0  0  0  0  0  0  0  0  0
   -1.5943  -13.8813   15.2010 O   0  0  0  0  0  0  0  0  0  0  0  0
    0.7642  -13.6056   14.6103 C   0  0  1  0  0  0  0  0  0  0  0  0
    0.9885  -15.0849   14.5028 N   0  0  0  0  0  0  0  0  0  0  0  0
    1.6793  -12.8242   13.5859 C   0  0  2  0  0  0  0  0  0  0  0  0
    3.0583  -13.1360   13.7935 O   0  0  0  0  0  0  0  0  0  0  0  0
    1.4116  -11.2896   13.7473 C   0  0  2  0  0  0  0  0  0  0  0  0
   -0.0403  -10.9696   13.5250 O   0  0  0  0  0  0  0  0  0  0  0  0
    2.2256  -10.4784   12.7813 C   0  0  0  0  0  0  0  0  0  0  0  0
    3.6316  -10.6028   13.0508 O   0  0  0  0  0  0  0  0  0  0  0  0
    0.0918   -6.0014   20.7591 O   0  0  0  0  0  0  0  0  0  0  0  0
    2.5381   -4.5437   21.1174 O   0  0  0  0  0  0  0  0  0  0  0  0
   -8.0563  -10.4820   16.4592 N   0  0  0  0  0  0  0  0  0  0  0  0
   -4.2141  -10.3958   15.8952 C   0  0  0  0  0  0  0  0  0  0  0  0
   -4.1643   -9.2130   15.5761 O   0  0  0  0  0  0  0  0  0  0  0  0
   -5.2985  -11.3751   15.3895 C   0  0  1  0  0  0  0  0  0  0  0  0
   -6.0722  -11.9694   16.5838 C   0  0  0  0  0  0  0  0  0  0  0  0
   -7.0004  -11.0011   17.3261 C   0  0  0  0  0  0  0  0  0  0  0  0
   -6.1903  -10.6726   14.4948 O   0  0  0  0  0  0  0  0  0  0  0  0
  1  2  1  6  0  0  0
  1  3  1  0  0  0  0
  1  8  1  0  0  0  0
  3  4  1  0  0  0  0
  3 32  1  6  0  0  0
  4  5  1  0  0  0  0
  4 33  1  1  0  0  0
  5  6  1  6  0  0  0
  5  7  1  0  0  0  0
  7  8  1  0  0  0  0
  7  9  1  1  0  0  0
  9 10  1  0  0  0  0
 11 12  1  6  0  0  0
 11 13  1  0  0  0  0
 11 19  1  0  0  0  0
 12 35  1  0  0  0  0
 13 14  1  0  0  0  0
 14 15  1  6  0  0  0
 14 16  1  0  0  0  0
 16  2  1  1  0  0  0
 16 17  1  0  0  0  0
 17 18  1  6  0  0  0
 17 19  1  0  0  0  0
 19 20  1  1  0  0  0
 21 20  1  1  0  0  0
 21 22  1  0  0  0  0
 21 29  1  0  0  0  0
 22 23  1  1  0  0  0
 22 24  1  0  0  0  0
 24 25  1  6  0  0  0
 24 26  1  0  0  0  0
 26 27  1  1  0  0  0
 26 28  1  0  0  0  0
 28 29  1  0  0  0  0
 28 30  1  6  0  0  0
 30 31  1  0  0  0  0
 34 39  1  0  0  0  0
 35 36  2  0  0  0  0
 37 35  1  1  0  0  0
 37 38  1  0  0  0  0
 37 40  1  0  0  0  0
 38 39  1  0  0  0  0
M  END
>  <CHROM.1>
-130.12251220,64.42838588,49.55167951,46.81251041,110.52886493,-163.52475988
-64.89098085,58.20781141,70.45604908,61.61333880,-0.18607614,-9.67639223
16.91187890,0.78623084,0.05385468,0.78674929

>  <Name>
2g5q_lig

>  <RI>
0

>  <Rbt.Current_Directory>
/home/itssahil/PROJECTS/Mol_Feturizer/New_Systems/rnas/2g5q

>  <Rbt.Executable>
rbdock ($Id: //depot/dev/client3/rdock/2013.1/src/exe/rbdock.cxx#4 $)

>  <Rbt.Library>
libRbt.so (2013.1, Build901 2013/11/27)

>  <Rbt.Parameter_File>
/export/apps/rDock/src/rDock_2013.1_src/data/scripts/dock_solv.prm

>  <Rbt.Receptor>
prm/pocket_docking_2.prm

>  <SCORE>
-3.85614

>  <SCORE.INTER>
-5.93234

>  <SCORE.INTER.CONST>
1

>  <SCORE.INTER.POLAR>
-0.438821

>  <SCORE.INTER.ROT>
10

>  <SCORE.INTER.SOLV>
19.7371

>  <SCORE.INTER.VDW>
-19.3379

>  <SCORE.INTER.norm>
-0.148309

>  <SCORE.INTRA>
0.846115

>  <SCORE.INTRA.DIHEDRAL>
-5.57927

>  <SCORE.INTRA.DIHEDRAL.0>
22.5778

>  <SCORE.INTRA.POLAR>
0

>  <SCORE.INTRA.POLAR.0>
0

>  <SCORE.INTRA.REPUL>
0

>  <SCORE.INTRA.REPUL.0>
0

>  <SCORE.INTRA.SOLV>
5.53398

>  <SCORE.INTRA.SOLV.lig_0>
-102.332

>  <SCORE.INTRA.VDW>
0.868763

>  <SCORE.INTRA.VDW.0>
-5.08747

>  <SCORE.INTRA.norm>
0.0211529

>  <SCORE.RESTR>
1.23009

>  <SCORE.RESTR.CAVITY>
1.23009

>  <SCORE.RESTR.norm>
0.0307522

>  <SCORE.SYSTEM>
0

>  <SCORE.SYSTEM.CONST>
0

>  <SCORE.SYSTEM.DIHEDRAL>
0

>  <SCORE.SYSTEM.SOLV>
0

>  <SCORE.SYSTEM.norm>
0

>  <SCORE.heavy>
40

>  <SCORE.norm>
-0.0964036

>  <RMSD>
2.635

$$$$
2g5q_lig
 OpenBabel11021811433D
libRbt.so/2013.1/901 2013/11/27
 40 42  0  0  0  0  0  0  0  0999 V2000
    4.1097   -5.7429   20.0465 C   0  0  2  0  0  0  0  0  0  0  0  0
    2.8930   -6.4233   20.2614 O   0  0  0  0  0  0  0  0  0  0  0  0
    5.0888   -6.0861   21.2077 C   0  0  1  0  0  0  0  0  0  0  0  0
    4.5972   -5.5115   22.5722 C   0  0  2  0  0  0  0  0  0  0  0  0
    4.4814   -3.9721   22.4243 C   0  0  2  0  0  0  0  0  0  0  0  0
    4.0520   -3.4013   23.6710 O   0  0  0  0  0  0  0  0  0  0  0  0
    3.4465   -3.6612   21.2683 C   0  0  2  0  0  0  0  0  0  0  0  0
    3.9114   -4.2706   19.9895 O   0  0  0  0  0  0  0  0  0  0  0  0
    3.2641   -2.1667   21.0257 C   0  0  0  0  0  0  0  0  0  0  0  0
    2.1184   -1.8829   20.1044 N   0  0  0  0  0  0  0  0  0  0  0  0
    0.5731   -9.1069   17.7132 C   0  0  2  0  0  0  0  0  0  0  0  0
   -0.2800   -9.5929   16.6352 N   0  0  0  0  0  0  0  0  0  0  0  0
   -0.1972   -8.0208   18.5751 C   0  0  0  0  0  0  0  0  0  0  0  0
    0.7209   -7.4968   19.7486 C   0  0  2  0  0  0  0  0  0  0  0  0
   -0.0167   -6.4875   20.5556 N   0  0  0  0  0  0  0  0  0  0  0  0
    2.0515   -6.8920   19.1472 C   0  0  2  0  0  0  0  0  0  0  0  0
    2.7871   -7.9997   18.2935 C   0  0  2  0  0  0  0  0  0  0  0  0
    3.9882   -7.4480   17.7449 O   0  0  0  0  0  0  0  0  0  0  0  0
    1.8599   -8.4972   17.1197 C   0  0  1  0  0  0  0  0  0  0  0  0
    2.5351   -9.5260   16.3426 O   0  0  0  0  0  0  0  0  0  0  0  0
    2.2782   -9.7866   14.9846 C   0  0  2  0  0  0  0  0  0  0  0  0
    2.6036  -11.2969   14.7267 C   0  0  2  0  0  0  0  0  0  0  0  0
    1.7975  -12.0910   15.5366 O   0  0  0  0  0  0  0  0  0  0  0  0
    4.1289  -11.6014   14.9783 C   0  0  1  0  0  0  0  0  0  0  0  0
    4.4517  -13.0451   14.7294 N   0  0  0  0  0  0  0  0  0  0  0  0
    4.9842  -10.6654   14.0351 C   0  0  2  0  0  0  0  0  0  0  0  0
    6.3821  -10.9020   14.2136 O   0  0  0  0  0  0  0  0  0  0  0  0
    4.6148   -9.1749   14.3429 C   0  0  2  0  0  0  0  0  0  0  0  0
    3.1435   -8.9336   14.1505 O   0  0  0  0  0  0  0  0  0  0  0  0
    5.3673   -8.2217   13.4606 C   0  0  0  0  0  0  0  0  0  0  0  0
    5.2470   -6.8693   13.9313 O   0  0  0  0  0  0  0  0  0  0  0  0
    5.2357   -7.5464   21.2715 O   0  0  0  0  0  0  0  0  0  0  0  0
    5.5044   -5.8322   23.5578 O   0  0  0  0  0  0  0  0  0  0  0  0
   -5.1732  -10.9907   16.7813 N   0  0  0  0  0  0  0  0  0  0  0  0
   -0.7242  -10.9000   16.4929 C   0  0  0  0  0  0  0  0  0  0  0  0
   -0.4380  -11.8075   17.2661 O   0  0  0  0  0  0  0  0  0  0  0  0
   -1.6082  -11.0895   15.2386 C   0  0  1  0  0  0  0  0  0  0  0  0
   -3.0530  -10.6407   15.5376 C   0  0  0  0  0  0  0  0  0  0  0  0
   -3.8146  -11.4846   16.5662 C   0  0  0  0  0  0  0  0  0  0  0  0
   -1.0472  -10.3289   14.1450 O   0  0  0  0  0  0  0  0  0  0  0  0
  1  2  1  1  0  0  0
  1  3  1  0  0  0  0
  1  8  1  0  0  0  0
  3  4  1  0  0  0  0
  3 32  1  1  0  0  0
  4  5  1  0  0  0  0
  4 33  1  1  0  0  0
  5  6  1  1  0  0  0
  5  7  1  0  0  0  0
  7  8  1  0  0  0  0
  7  9  1  6  0  0  0
  9 10  1  0  0  0  0
 11 12  1  6  0  0  0
 11 13  1  0  0  0  0
 11 19  1  0  0  0  0
 12 35  1  0  0  0  0
 13 14  1  0  0  0  0
 14 15  1  6  0  0  0
 14 16  1  0  0  0  0
 16  2  1  1  0  0  0
 16 17  1  0  0  0  0
 17 18  1  6  0  0  0
 17 19  1  0  0  0  0
 19 20  1  1  0  0  0
 21 20  1  1  0  0  0
 21 22  1  0  0  0  0
 21 29  1  0  0  0  0
 22 23  1  1  0  0  0
 22 24  1  0  0  0  0
 24 25  1  6  0  0  0
 24 26  1  0  0  0  0
 26 27  1  1  0  0  0
 26 28  1  0  0  0  0
 28 29  1  0  0  0  0
 28 30  1  6  0  0  0
 30 31  1  0  0  0  0
 34 39  1  0  0  0  0
 35 36  2  0  0  0  0
 37 35  1  1  0  0  0
 37 38  1  0  0  0  0
 37 40  1  0  0  0  0
 38 39  1  0  0  0  0
M  END
>  <CHROM.1>
-148.24611023,-170.08477414,-116.80908802,-175.32842629,87.81552353,-152.10451188
-167.60005156,-81.72848073,-66.15359864,-179.74727010,2.33635173,-8.17587106
17.76195354,-1.21671774,-0.22519652,-2.27256828

>  <Name>
2g5q_lig

>  <RI>
9.52566e+06

>  <Rbt.Current_Directory>
/home/itssahil/PROJECTS/Mol_Feturizer/New_Systems/rnas/2g5q

>  <Rbt.Executable>
rbdock ($Id: //depot/dev/client3/rdock/2013.1/src/exe/rbdock.cxx#4 $)

>  <Rbt.Library>
libRbt.so (2013.1, Build901 2013/11/27)

>  <Rbt.Parameter_File>
/export/apps/rDock/src/rDock_2013.1_src/data/scripts/dock_solv.prm

>  <Rbt.Receptor>
prm/pocket_docking_4.prm

>  <SCORE>
-23.4736

>  <SCORE.INTER>
-18.6036

>  <SCORE.INTER.CONST>
1

>  <SCORE.INTER.POLAR>
-2.13826

>  <SCORE.INTER.ROT>
10

>  <SCORE.INTER.SOLV>
20.6423

>  <SCORE.INTER.VDW>
-22.4223

>  <SCORE.INTER.norm>
-0.465089

>  <SCORE.INTRA>
-5.03002

>  <SCORE.INTRA.DIHEDRAL>
-8.65738

>  <SCORE.INTRA.DIHEDRAL.0>
22.5778

>  <SCORE.INTRA.POLAR>
0

>  <SCORE.INTRA.POLAR.0>
0

>  <SCORE.INTRA.REPUL>
0

>  <SCORE.INTRA.REPUL.0>
0

>  <SCORE.INTRA.SOLV>
-0.262032

>  <SCORE.INTRA.SOLV.lig_0>
-102.332

>  <SCORE.INTRA.VDW>
-0.57031

>  <SCORE.INTRA.VDW.0>
-5.08747

>  <SCORE.INTRA.norm>
-0.12575

>  <SCORE.RESTR>
0.159965

>  <SCORE.RESTR.CAVITY>
0.159965

>  <SCORE.RESTR.norm>
0.00399913

>  <SCORE.SYSTEM>
0

>  <SCORE.SYSTEM.CONST>
0

>  <SCORE.SYSTEM.DIHEDRAL>
0

>  <SCORE.SYSTEM.SOLV>
0

>  <SCORE.SYSTEM.norm>
0

>  <SCORE.heavy>
40

>  <SCORE.norm>
-0.58684

>  <RMSD>
2.653

$$$$
2g5q_lig
 OpenBabel11021811433D
libRbt.so/2013.1/901 2013/11/27
 40 42  0  0  0  0  0  0  0  0999 V2000
    1.5442   -7.3355   20.1886 C   0  0  2  0  0  0  0  0  0  0  0  0
    1.1610   -6.9751   18.8798 O   0  0  0  0  0  0  0  0  0  0  0  0
    2.5496   -6.2754   20.7272 C   0  0  1  0  0  0  0  0  0  0  0  0
    3.8979   -6.3011   19.9430 C   0  0  2  0  0  0  0  0  0  0  0  0
    4.5057   -7.7200   20.0913 C   0  0  2  0  0  0  0  0  0  0  0  0
    5.7639   -7.7776   19.3998 O   0  0  0  0  0  0  0  0  0  0  0  0
    3.4783   -8.7647   19.4938 C   0  0  2  0  0  0  0  0  0  0  0  0
    2.1806   -8.6786   20.2228 O   0  0  0  0  0  0  0  0  0  0  0  0
    3.9708  -10.2041   19.6005 C   0  0  0  0  0  0  0  0  0  0  0  0
    4.4303  -10.5393   20.9855 N   0  0  0  0  0  0  0  0  0  0  0  0
   -1.4950  -10.2312   17.6879 C   0  0  2  0  0  0  0  0  0  0  0  0
   -2.5208  -10.9869   16.9790 N   0  0  0  0  0  0  0  0  0  0  0  0
   -2.1278   -8.9377   18.3529 C   0  0  0  0  0  0  0  0  0  0  0  0
   -1.0212   -8.1197   19.1281 C   0  0  2  0  0  0  0  0  0  0  0  0
   -1.6293   -6.9157   19.7562 N   0  0  0  0  0  0  0  0  0  0  0  0
    0.1386   -7.7244   18.1298 C   0  0  2  0  0  0  0  0  0  0  0  0
    0.7399   -9.0360   17.4854 C   0  0  2  0  0  0  0  0  0  0  0  0
    1.7855   -8.6752   16.5773 O   0  0  0  0  0  0  0  0  0  0  0  0
   -0.3768   -9.8284   16.7044 C   0  0  1  0  0  0  0  0  0  0  0  0
    0.1769  -11.0420   16.1224 O   0  0  0  0  0  0  0  0  0  0  0  0
   -0.1179  -11.5027   14.8266 C   0  0  2  0  0  0  0  0  0  0  0  0
    0.2825  -13.0156   14.7639 C   0  0  2  0  0  0  0  0  0  0  0  0
   -0.4447  -13.7287   15.7121 O   0  0  0  0  0  0  0  0  0  0  0  0
    1.8314  -13.2040   14.9832 C   0  0  1  0  0  0  0  0  0  0  0  0
    2.2257  -14.6499   14.9203 N   0  0  0  0  0  0  0  0  0  0  0  0
    2.5941  -12.3667   13.8811 C   0  0  2  0  0  0  0  0  0  0  0  0
    4.0092  -12.5045   14.0247 O   0  0  0  0  0  0  0  0  0  0  0  0
    2.1529  -10.8686   13.9981 C   0  0  2  0  0  0  0  0  0  0  0  0
    0.6639  -10.7318   13.8435 O   0  0  0  0  0  0  0  0  0  0  0  0
    2.8147  -10.0111   12.9587 C   0  0  0  0  0  0  0  0  0  0  0  0
    2.7921  -10.6438   11.6687 O   0  0  0  0  0  0  0  0  0  0  0  0
    1.9151   -4.9530   20.6440 O   0  0  0  0  0  0  0  0  0  0  0  0
    4.7513   -5.3559   20.4681 O   0  0  0  0  0  0  0  0  0  0  0  0
   -8.0188  -10.4536   16.5618 N   0  0  0  0  0  0  0  0  0  0  0  0
   -3.4785  -10.4411   16.1358 C   0  0  0  0  0  0  0  0  0  0  0  0
   -3.5746   -9.2426   15.8954 O   0  0  0  0  0  0  0  0  0  0  0  0
   -4.4242  -11.5122   15.5451 C   0  0  1  0  0  0  0  0  0  0  0  0
   -5.8583  -10.9540   15.4455 C   0  0  0  0  0  0  0  0  0  0  0  0
   -6.6275  -10.8508   16.7676 C   0  0  0  0  0  0  0  0  0  0  0  0
   -3.9340  -11.9111   14.2451 O   0  0  0  0  0  0  0  0  0  0  0  0
  1  2  1  6  0  0  0
  1  3  1  0  0  0  0
  1  8  1  0  0  0  0
  3  4  1  0  0  0  0
  3 32  1  6  0  0  0
  4  5  1  0  0  0  0
  4 33  1  1  0  0  0
  5  6  1  6  0  0  0
  5  7  1  0  0  0  0
  7  8  1  0  0  0  0
  7  9  1  1  0  0  0
  9 10  1  0  0  0  0
 11 12  1  6  0  0  0
 11 13  1  0  0  0  0
 11 19  1  0  0  0  0
 12 35  1  0  0  0  0
 13 14  1  0  0  0  0
 14 15  1  6  0  0  0
 14 16  1  0  0  0  0
 16  2  1  1  0  0  0
 16 17  1  0  0  0  0
 17 18  1  6  0  0  0
 17 19  1  0  0  0  0
 19 20  1  1  0  0  0
 21 20  1  1  0  0  0
 21 22  1  0  0  0  0
 21 29  1  0  0  0  0
 22 23  1  1  0  0  0
 22 24  1  0  0  0  0
 24 25  1  6  0  0  0
 24 26  1  0  0  0  0
 26 27  1  1  0  0  0
 26 28  1  0  0  0  0
 28 29  1  0  0  0  0
 28 30  1  6  0  0  0
 30 31  1  0  0  0  0
 34 39  1  0  0  0  0
 35 36  2  0  0  0  0
 37 35  1  6  0  0  0
 37 38  1  0  0  0  0
 37 40  1  0  0  0  0
 38 39  1  0  0  0  0
M  END
>  <CHROM.1>
-175.37585949,50.30783841,45.10063587,39.79783837,102.79332690,-161.94352295
44.39874954,142.89686219,-75.03610262,-173.72249588,0.45574489,-9.75949631
17.07399579,0.73885597,0.00364906,0.85034976

>  <Name>
2g5q_lig

>  <RI>
0

>  <Rbt.Current_Directory>
/home/itssahil/PROJECTS/Mol_Feturizer/New_Systems/rnas/2g5q

>  <Rbt.Executable>
rbdock ($Id: //depot/dev/client3/rdock/2013.1/src/exe/rbdock.cxx#4 $)

>  <Rbt.Library>
libRbt.so (2013.1, Build901 2013/11/27)

>  <Rbt.Parameter_File>
/export/apps/rDock/src/rDock_2013.1_src/data/scripts/dock_solv.prm

>  <Rbt.Receptor>
prm/pocket_docking_2.prm

>  <SCORE>
-5.15048

>  <SCORE.INTER>
-3.98534

>  <SCORE.INTER.CONST>
1

>  <SCORE.INTER.POLAR>
-0.400622

>  <SCORE.INTER.ROT>
10

>  <SCORE.INTER.SOLV>
16.121

>  <SCORE.INTER.VDW>
-16.9618

>  <SCORE.INTER.norm>
-0.0996335

>  <SCORE.INTRA>
-3.18431

>  <SCORE.INTRA.DIHEDRAL>
-9.17574

>  <SCORE.INTRA.DIHEDRAL.0>
22.5778

>  <SCORE.INTRA.POLAR>
0

>  <SCORE.INTRA.POLAR.0>
0

>  <SCORE.INTRA.REPUL>
0

>  <SCORE.INTRA.REPUL.0>
0

>  <SCORE.INTRA.SOLV>
1.78213

>  <SCORE.INTRA.SOLV.lig_0>
-102.332

>  <SCORE.INTRA.VDW>
0.512492

>  <SCORE.INTRA.VDW.0>
-5.08747

>  <SCORE.INTRA.norm>
-0.0796078

>  <SCORE.RESTR>
2.01917

>  <SCORE.RESTR.CAVITY>
2.01917

>  <SCORE.RESTR.norm>
0.0504792

>  <SCORE.SYSTEM>
0

>  <SCORE.SYSTEM.CONST>
0

>  <SCORE.SYSTEM.DIHEDRAL>
0

>  <SCORE.SYSTEM.SOLV>
0

>  <SCORE.SYSTEM.norm>
0

>  <SCORE.heavy>
40

>  <SCORE.norm>
-0.128762

>  <RMSD>
2.661

$$$$
2g5q_lig
 OpenBabel11021811433D
libRbt.so/2013.1/901 2013/11/27
 40 42  0  0  0  0  0  0  0  0999 V2000
    1.5279   -7.7580   20.0380 C   0  0  2  0  0  0  0  0  0  0  0  0
    1.2666   -7.2805   18.7367 O   0  0  0  0  0  0  0  0  0  0  0  0
    2.4405   -6.7337   20.7748 C   0  0  1  0  0  0  0  0  0  0  0  0
    3.8607   -6.6539   20.1344 C   0  0  2  0  0  0  0  0  0  0  0  0
    4.4949   -8.0671   20.2095 C   0  0  2  0  0  0  0  0  0  0  0  0
    5.8172   -8.0301   19.6487 O   0  0  0  0  0  0  0  0  0  0  0  0
    3.5657   -9.0708   19.4136 C   0  0  2  0  0  0  0  0  0  0  0  0
    2.1995   -9.0840   20.0104 O   0  0  0  0  0  0  0  0  0  0  0  0
    4.0900  -10.5027   19.4339 C   0  0  0  0  0  0  0  0  0  0  0  0
    5.5169  -10.5848   18.9879 N   0  0  0  0  0  0  0  0  0  0  0  0
   -1.7722  -10.0405   17.2449 C   0  0  2  0  0  0  0  0  0  0  0  0
   -2.8655  -10.5948   16.4555 N   0  0  0  0  0  0  0  0  0  0  0  0
   -2.2423   -8.7151   17.9786 C   0  0  0  0  0  0  0  0  0  0  0  0
   -1.0628   -8.1151   18.8408 C   0  0  2  0  0  0  0  0  0  0  0  0
   -1.5198   -6.8793   19.5322 N   0  0  0  0  0  0  0  0  0  0  0  0
    0.1791   -7.8264   17.9069 C   0  0  2  0  0  0  0  0  0  0  0  0
    0.6148   -9.1663   17.1916 C   0  0  2  0  0  0  0  0  0  0  0  0
    1.7353   -8.9012   16.3418 O   0  0  0  0  0  0  0  0  0  0  0  0
   -0.5709   -9.7393   16.3251 C   0  0  1  0  0  0  0  0  0  0  0  0
   -0.1710  -10.9797   15.6773 O   0  0  0  0  0  0  0  0  0  0  0  0
   -0.6451  -11.4048   14.4232 C   0  0  2  0  0  0  0  0  0  0  0  0
   -0.7066  -12.9696   14.4503 C   0  0  2  0  0  0  0  0  0  0  0  0
   -1.5669  -13.3836   15.4627 O   0  0  0  0  0  0  0  0  0  0  0  0
    0.7282  -13.5923   14.6406 C   0  0  1  0  0  0  0  0  0  0  0  0
    0.6804  -15.0915   14.6632 N   0  0  0  0  0  0  0  0  0  0  0  0
    1.6519  -13.0789   13.4656 C   0  0  2  0  0  0  0  0  0  0  0  0
    2.9702  -13.6184   13.5805 O   0  0  0  0  0  0  0  0  0  0  0  0
    1.6725  -11.5132   13.4946 C   0  0  2  0  0  0  0  0  0  0  0  0
    0.2828  -10.9537   13.3707 O   0  0  0  0  0  0  0  0  0  0  0  0
    2.5084  -10.9472   12.3835 C   0  0  0  0  0  0  0  0  0  0  0  0
    3.9033  -11.2271   12.5854 O   0  0  0  0  0  0  0  0  0  0  0  0
    1.7763   -5.4236   20.7522 O   0  0  0  0  0  0  0  0  0  0  0  0
    4.6272   -5.7460   20.8313 O   0  0  0  0  0  0  0  0  0  0  0  0
   -8.5887  -13.0769   16.1956 N   0  0  0  0  0  0  0  0  0  0  0  0
   -4.0569  -11.0857   16.9711 C   0  0  0  0  0  0  0  0  0  0  0  0
   -4.3235  -11.1150   18.1675 O   0  0  0  0  0  0  0  0  0  0  0  0
   -5.0062  -11.6086   15.8684 C   0  0  1  0  0  0  0  0  0  0  0  0
   -6.3246  -12.1033   16.4969 C   0  0  0  0  0  0  0  0  0  0  0  0
   -7.3618  -12.6641   15.5171 C   0  0  0  0  0  0  0  0  0  0  0  0
   -5.2537  -10.5498   14.9159 O   0  0  0  0  0  0  0  0  0  0  0  0
  1  2  1  6  0  0  0
  1  3  1  0  0  0  0
  1  8  1  0  0  0  0
  3  4  1  0  0  0  0
  3 32  1  6  0  0  0
  4  5  1  0  0  0  0
  4 33  1  1  0  0  0
  5  6  1  6  0  0  0
  5  7  1  0  0  0  0
  7  8  1  0  0  0  0
  7  9  1  1  0  0  0
  9 10  1  0  0  0  0
 11 12  1  6  0  0  0
 11 13  1  0  0  0  0
 11 19  1  0  0  0  0
 12 35  1  0  0  0  0
 13 14  1  0  0  0  0
 14 15  1  6  0  0  0
 14 16  1  0  0  0  0
 16  2  1  1  0  0  0
 16 17  1  0  0  0  0
 17 18  1  6  0  0  0
 17 19  1  0  0  0  0
 19 20  1  1  0  0  0
 21 20  1  1  0  0  0
 21 22  1  0  0  0  0
 21 29  1  0  0  0  0
 22 23  1  1  0  0  0
 22 24  1  0  0  0  0
 24 25  1  6  0  0  0
 24 26  1  0  0  0  0
 26 27  1  1  0  0  0
 26 28  1  0  0  0  0
 28 29  1  0  0  0  0
 28 30  1  6  0  0  0
 30 31  1  0  0  0  0
 34 39  1  0  0  0  0
 35 36  2  0  0  0  0
 37 35  1  1  0  0  0
 37 38  1  0  0  0  0
 37 40  1  0  0  0  0
 38 39  1  0  0  0  0
M  END
>  <CHROM.1>
-164.23115176,-52.51690336,-64.46632798,38.58062738,92.50401144,-147.36435016
-68.73454320,-178.43807932,-179.48296650,-178.58390730,0.14167979,-10.13278983
16.97084471,0.67723109,0.07972820,0.85740046

>  <Name>
2g5q_lig

>  <RI>
0

>  <Rbt.Current_Directory>
/home/itssahil/PROJECTS/Mol_Feturizer/New_Systems/rnas/2g5q

>  <Rbt.Executable>
rbdock ($Id: //depot/dev/client3/rdock/2013.1/src/exe/rbdock.cxx#4 $)

>  <Rbt.Library>
libRbt.so (2013.1, Build901 2013/11/27)

>  <Rbt.Parameter_File>
/export/apps/rDock/src/rDock_2013.1_src/data/scripts/dock_solv.prm

>  <Rbt.Receptor>
prm/pocket_docking_2.prm

>  <SCORE>
-11.0289

>  <SCORE.INTER>
-8.20189

>  <SCORE.INTER.CONST>
1

>  <SCORE.INTER.POLAR>
-0.254923

>  <SCORE.INTER.ROT>
10

>  <SCORE.INTER.SOLV>
17.6542

>  <SCORE.INTER.VDW>
-20.7696

>  <SCORE.INTER.norm>
-0.205047

>  <SCORE.INTRA>
-2.97969

>  <SCORE.INTRA.DIHEDRAL>
-9.90651

>  <SCORE.INTRA.DIHEDRAL.0>
22.5778

>  <SCORE.INTRA.POLAR>
0

>  <SCORE.INTRA.POLAR.0>
0

>  <SCORE.INTRA.REPUL>
0

>  <SCORE.INTRA.REPUL.0>
0

>  <SCORE.INTRA.SOLV>
1.5172

>  <SCORE.INTRA.SOLV.lig_0>
-102.332

>  <SCORE.INTRA.VDW>
1.21497

>  <SCORE.INTRA.VDW.0>
-5.08747

>  <SCORE.INTRA.norm>
-0.0744923

>  <SCORE.RESTR>
0.152731

>  <SCORE.RESTR.CAVITY>
0.152731

>  <SCORE.RESTR.norm>
0.00381829

>  <SCORE.SYSTEM>
0

>  <SCORE.SYSTEM.CONST>
0

>  <SCORE.SYSTEM.DIHEDRAL>
0

>  <SCORE.SYSTEM.SOLV>
0

>  <SCORE.SYSTEM.norm>
0

>  <SCORE.heavy>
40

>  <SCORE.norm>
-0.275721

>  <RMSD>
2.661

$$$$
2g5q_lig
 OpenBabel11021811433D
libRbt.so/2013.1/901 2013/11/27
 40 42  0  0  0  0  0  0  0  0999 V2000
    4.2350   -7.0026   19.6357 C   0  0  2  0  0  0  0  0  0  0  0  0
    2.9714   -7.5591   19.9244 O   0  0  0  0  0  0  0  0  0  0  0  0
    5.1708   -7.2193   20.8614 C   0  0  1  0  0  0  0  0  0  0  0  0
    4.6995   -6.4033   22.1046 C   0  0  2  0  0  0  0  0  0  0  0  0
    4.6918   -4.9031   21.7120 C   0  0  2  0  0  0  0  0  0  0  0  0
    4.2841   -4.1138   22.8413 O   0  0  0  0  0  0  0  0  0  0  0  0
    3.6980   -4.7138   20.4952 C   0  0  2  0  0  0  0  0  0  0  0  0
    4.1390   -5.5486   19.3413 O   0  0  0  0  0  0  0  0  0  0  0  0
    3.6222   -3.2685   20.0145 C   0  0  0  0  0  0  0  0  0  0  0  0
    2.9327   -2.3825   21.0051 N   0  0  0  0  0  0  0  0  0  0  0  0
   -0.0834   -9.7593   17.7098 C   0  0  2  0  0  0  0  0  0  0  0  0
   -1.0615  -10.1137   16.6883 N   0  0  0  0  0  0  0  0  0  0  0  0
   -0.4830   -8.3881   18.3998 C   0  0  0  0  0  0  0  0  0  0  0  0
    0.5702   -8.0039   19.5122 C   0  0  2  0  0  0  0  0  0  0  0  0
    0.1782   -6.7225   20.1589 N   0  0  0  0  0  0  0  0  0  0  0  0
    2.0088   -7.9054   18.8649 C   0  0  2  0  0  0  0  0  0  0  0  0
    2.3690   -9.2857   18.1853 C   0  0  2  0  0  0  0  0  0  0  0  0
    3.6691   -9.1921   17.5945 O   0  0  0  0  0  0  0  0  0  0  0  0
    1.3149   -9.6421   17.0687 C   0  0  1  0  0  0  0  0  0  0  0  0
    1.6421  -10.9196   16.4529 O   0  0  0  0  0  0  0  0  0  0  0  0
    2.9281  -11.2764   16.0090 C   0  0  2  0  0  0  0  0  0  0  0  0
    3.1128  -10.6762   14.5741 C   0  0  2  0  0  0  0  0  0  0  0  0
    2.9826   -9.2919   14.6290 O   0  0  0  0  0  0  0  0  0  0  0  0
    2.0809  -11.2994   13.5594 C   0  0  1  0  0  0  0  0  0  0  0  0
    2.2529  -10.7340   12.1806 N   0  0  0  0  0  0  0  0  0  0  0  0
    2.2784  -12.8673   13.5508 C   0  0  2  0  0  0  0  0  0  0  0  0
    1.3711  -13.4904   12.6394 O   0  0  0  0  0  0  0  0  0  0  0  0
    2.0795  -13.4035   15.0086 C   0  0  2  0  0  0  0  0  0  0  0  0
    3.0390  -12.7453   15.9605 O   0  0  0  0  0  0  0  0  0  0  0  0
    2.2829  -14.8888   15.0876 C   0  0  0  0  0  0  0  0  0  0  0  0
    1.2524  -15.5950   14.3776 O   0  0  0  0  0  0  0  0  0  0  0  0
    5.2163   -8.6571   21.1593 O   0  0  0  0  0  0  0  0  0  0  0  0
    5.5678   -6.6212   23.1515 O   0  0  0  0  0  0  0  0  0  0  0  0
   -3.9810  -12.0257   18.1265 N   0  0  0  0  0  0  0  0  0  0  0  0
   -1.6130  -11.3748   16.5108 C   0  0  0  0  0  0  0  0  0  0  0  0
   -1.3287  -12.3485   17.1997 O   0  0  0  0  0  0  0  0  0  0  0  0
   -2.6152  -11.4205   15.3344 C   0  0  1  0  0  0  0  0  0  0  0  0
   -4.0325  -11.0742   15.8338 C   0  0  0  0  0  0  0  0  0  0  0  0
   -4.6503  -12.0644   16.8279 C   0  0  0  0  0  0  0  0  0  0  0  0
   -2.1871  -10.4928   14.3119 O   0  0  0  0  0  0  0  0  0  0  0  0
  1  2  1  1  0  0  0
  1  3  1  0  0  0  0
  1  8  1  0  0  0  0
  3  4  1  0  0  0  0
  3 32  1  1  0  0  0
  4  5  1  0  0  0  0
  4 33  1  1  0  0  0
  5  6  1  1  0  0  0
  5  7  1  0  0  0  0
  7  8  1  0  0  0  0
  7  9  1  6  0  0  0
  9 10  1  0  0  0  0
 11 12  1  6  0  0  0
 11 13  1  0  0  0  0
 11 19  1  0  0  0  0
 12 35  1  0  0  0  0
 13 14  1  0  0  0  0
 14 15  1  6  0  0  0
 14 16  1  0  0  0  0
 16  2  1  1  0  0  0
 16 17  1  0  0  0  0
 17 18  1  6  0  0  0
 17 19  1  0  0  0  0
 19 20  1  1  0  0  0
 21 20  1  6  0  0  0
 21 22  1  0  0  0  0
 21 29  1  0  0  0  0
 22 23  1  1  0  0  0
 22 24  1  0  0  0  0
 24 25  1  6  0  0  0
 24 26  1  0  0  0  0
 26 27  1  6  0  0  0
 26 28  1  0  0  0  0
 28 29  1  0  0  0  0
 28 30  1  6  0  0  0
 30 31  1  0  0  0  0
 34 39  1  0  0  0  0
 35 36  2  0  0  0  0
 37 35  1  1  0  0  0
 37 38  1  0  0  0  0
 37 40  1  0  0  0  0
 38 39  1  0  0  0  0
M  END
>  <CHROM.1>
-160.28489015,-69.88547456,-134.96148605,-160.16070555,-166.75464452,-83.40692570
-67.21715616,-89.26890022,-64.63444790,69.65345854,1.69403014,-9.40160022
17.61687956,-1.15499854,-0.06179187,-2.38590370

>  <Name>
2g5q_lig

>  <RI>
0

>  <Rbt.Current_Directory>
/home/itssahil/PROJECTS/Mol_Feturizer/New_Systems/rnas/2g5q

>  <Rbt.Executable>
rbdock ($Id: //depot/dev/client3/rdock/2013.1/src/exe/rbdock.cxx#4 $)

>  <Rbt.Library>
libRbt.so (2013.1, Build901 2013/11/27)

>  <Rbt.Parameter_File>
/export/apps/rDock/src/rDock_2013.1_src/data/scripts/dock_solv.prm

>  <Rbt.Receptor>
prm/pocket_docking_3.prm

>  <SCORE>
-18.2628

>  <SCORE.INTER>
-14.677

>  <SCORE.INTER.CONST>
1

>  <SCORE.INTER.POLAR>
-1.79282

>  <SCORE.INTER.ROT>
10

>  <SCORE.INTER.SOLV>
19.0331

>  <SCORE.INTER.VDW>
-20.4196

>  <SCORE.INTER.norm>
-0.366925

>  <SCORE.INTRA>
-3.58574

>  <SCORE.INTRA.DIHEDRAL>
-12.286

>  <SCORE.INTRA.DIHEDRAL.0>
22.5778

>  <SCORE.INTRA.POLAR>
0

>  <SCORE.INTRA.POLAR.0>
0

>  <SCORE.INTRA.REPUL>
0

>  <SCORE.INTRA.REPUL.0>
0

>  <SCORE.INTRA.SOLV>
3.83088

>  <SCORE.INTRA.SOLV.lig_0>
-102.332

>  <SCORE.INTRA.VDW>
0.641794

>  <SCORE.INTRA.VDW.0>
-5.08747

>  <SCORE.INTRA.norm>
-0.0896435

>  <SCORE.RESTR>
0

>  <SCORE.RESTR.CAVITY>
0

>  <SCORE.RESTR.norm>
0

>  <SCORE.SYSTEM>
0

>  <SCORE.SYSTEM.CONST>
0

>  <SCORE.SYSTEM.DIHEDRAL>
0

>  <SCORE.SYSTEM.SOLV>
0

>  <SCORE.SYSTEM.norm>
0

>  <SCORE.heavy>
40

>  <SCORE.norm>
-0.456569

>  <RMSD>
2.691

$$$$
2g5q_lig
 OpenBabel11021811433D
libRbt.so/2013.1/901 2013/11/27
 40 42  0  0  0  0  0  0  0  0999 V2000
    1.5581   -7.8068   19.9923 C   0  0  2  0  0  0  0  0  0  0  0  0
    1.1754   -7.2803   18.7410 O   0  0  0  0  0  0  0  0  0  0  0  0
    2.4300   -6.7520   20.7353 C   0  0  1  0  0  0  0  0  0  0  0  0
    3.7947   -6.5156   20.0176 C   0  0  2  0  0  0  0  0  0  0  0  0
    4.5452   -7.8717   19.9674 C   0  0  2  0  0  0  0  0  0  0  0  0
    5.8212   -7.6906   19.3321 O   0  0  0  0  0  0  0  0  0  0  0  0
    3.6514   -8.9040   19.1677 C   0  0  2  0  0  0  0  0  0  0  0  0
    2.3321   -9.0672   19.8428 O   0  0  0  0  0  0  0  0  0  0  0  0
    4.2907  -10.2850   19.0682 C   0  0  0  0  0  0  0  0  0  0  0  0
    4.8620  -10.7352   20.3769 N   0  0  0  0  0  0  0  0  0  0  0  0
   -1.9107  -10.0581   17.3854 C   0  0  2  0  0  0  0  0  0  0  0  0
   -3.0524  -10.6089   16.6651 N   0  0  0  0  0  0  0  0  0  0  0  0
   -2.3494   -8.7772   18.2118 C   0  0  0  0  0  0  0  0  0  0  0  0
   -1.1169   -8.1814   18.9995 C   0  0  2  0  0  0  0  0  0  0  0  0
   -1.5440   -6.9879   19.7788 N   0  0  0  0  0  0  0  0  0  0  0  0
    0.0360   -7.8209   17.9803 C   0  0  2  0  0  0  0  0  0  0  0  0
    0.4423   -9.1180   17.1744 C   0  0  2  0  0  0  0  0  0  0  0  0
    1.4818   -8.7878   16.2479 O   0  0  0  0  0  0  0  0  0  0  0  0
   -0.7974   -9.6868   16.3841 C   0  0  1  0  0  0  0  0  0  0  0  0
   -0.4234  -10.8883   15.6527 O   0  0  0  0  0  0  0  0  0  0  0  0
   -0.3115  -10.9582   14.2524 C   0  0  2  0  0  0  0  0  0  0  0  0
   -0.2529  -12.4737   13.8613 C   0  0  2  0  0  0  0  0  0  0  0  0
   -1.4139  -13.1098   14.2900 O   0  0  0  0  0  0  0  0  0  0  0  0
    1.0259  -13.1683   14.4654 C   0  0  1  0  0  0  0  0  0  0  0  0
    1.0936  -14.6197   14.0923 N   0  0  0  0  0  0  0  0  0  0  0  0
    2.3027  -12.3960   13.9451 C   0  0  2  0  0  0  0  0  0  0  0  0
    3.4994  -12.9870   14.4558 O   0  0  0  0  0  0  0  0  0  0  0  0
    2.1840  -10.8930   14.3687 C   0  0  2  0  0  0  0  0  0  0  0  0
    0.9243  -10.2780   13.8257 O   0  0  0  0  0  0  0  0  0  0  0  0
    3.3507  -10.0838   13.8813 C   0  0  0  0  0  0  0  0  0  0  0  0
    3.4030  -10.0561   12.4455 O   0  0  0  0  0  0  0  0  0  0  0  0
    1.6614   -5.5039   20.8334 O   0  0  0  0  0  0  0  0  0  0  0  0
    4.5281   -5.5867   20.7224 O   0  0  0  0  0  0  0  0  0  0  0  0
   -5.6706   -8.5072   16.9446 N   0  0  0  0  0  0  0  0  0  0  0  0
   -4.2321  -11.0480   17.2497 C   0  0  0  0  0  0  0  0  0  0  0  0
   -4.4456  -11.0281   18.4569 O   0  0  0  0  0  0  0  0  0  0  0  0
   -5.2430  -11.5825   16.2091 C   0  0  1  0  0  0  0  0  0  0  0  0
   -6.5252  -10.7260   16.2297 C   0  0  0  0  0  0  0  0  0  0  0  0
   -6.3441   -9.2449   15.8778 C   0  0  0  0  0  0  0  0  0  0  0  0
   -4.6300  -11.5628   14.9003 O   0  0  0  0  0  0  0  0  0  0  0  0
  1  2  1  6  0  0  0
  1  3  1  0  0  0  0
  1  8  1  0  0  0  0
  3  4  1  0  0  0  0
  3 32  1  6  0  0  0
  4  5  1  0  0  0  0
  4 33  1  1  0  0  0
  5  6  1  6  0  0  0
  5  7  1  0  0  0  0
  7  8  1  0  0  0  0
  7  9  1  1  0  0  0
  9 10  1  0  0  0  0
 11 12  1  6  0  0  0
 11 13  1  0  0  0  0
 11 19  1  0  0  0  0
 12 35  1  0  0  0  0
 13 14  1  0  0  0  0
 14 15  1  6  0  0  0
 14 16  1  0  0  0  0
 16  2  1  1  0  0  0
 16 17  1  0  0  0  0
 17 18  1  6  0  0  0
 17 19  1  0  0  0  0
 19 20  1  1  0  0  0
 21 20  1  1  0  0  0
 21 22  1  0  0  0  0
 21 29  1  0  0  0  0
 22 23  1  1  0  0  0
 22 24  1  0  0  0  0
 24 25  1  6  0  0  0
 24 26  1  0  0  0  0
 26 27  1  1  0  0  0
 26 28  1  0  0  0  0
 28 29  1  0  0  0  0
 28 30  1  6  0  0  0
 30 31  1  0  0  0  0
 34 39  1  0  0  0  0
 35 36  2  0  0  0  0
 37 35  1  1  0  0  0
 37 38  1  0  0  0  0
 37 40  1  0  0  0  0
 38 39  1  0  0  0  0
M  END
>  <CHROM.1>
-160.70674904,44.82442711,-58.65260822,38.81380629,131.03753815,-165.90635024
63.28751451,-117.86257384,61.31872855,-72.13421913,0.29154040,-9.72942518
17.06424826,0.62965190,0.01195204,0.87527567

>  <Name>
2g5q_lig

>  <RI>
0

>  <Rbt.Current_Directory>
/home/itssahil/PROJECTS/Mol_Feturizer/New_Systems/rnas/2g5q

>  <Rbt.Executable>
rbdock ($Id: //depot/dev/client3/rdock/2013.1/src/exe/rbdock.cxx#4 $)

>  <Rbt.Library>
libRbt.so (2013.1, Build901 2013/11/27)

>  <Rbt.Parameter_File>
/export/apps/rDock/src/rDock_2013.1_src/data/scripts/dock_solv.prm

>  <Rbt.Receptor>
prm/pocket_docking_2.prm

>  <SCORE>
-3.57669

>  <SCORE.INTER>
-4.06177

>  <SCORE.INTER.CONST>
1

>  <SCORE.INTER.POLAR>
-0.0205496

>  <SCORE.INTER.ROT>
10

>  <SCORE.INTER.SOLV>
16.5311

>  <SCORE.INTER.VDW>
-18.4164

>  <SCORE.INTER.norm>
-0.101544

>  <SCORE.INTRA>
0.0363367

>  <SCORE.INTRA.DIHEDRAL>
-7.51693

>  <SCORE.INTRA.DIHEDRAL.0>
22.5778

>  <SCORE.INTRA.POLAR>
0

>  <SCORE.INTRA.POLAR.0>
0

>  <SCORE.INTRA.REPUL>
0.0107502

>  <SCORE.INTRA.REPUL.0>
0

>  <SCORE.INTRA.SOLV>
7.01739

>  <SCORE.INTRA.SOLV.lig_0>
-102.332

>  <SCORE.INTRA.VDW>
0.232357

>  <SCORE.INTRA.VDW.0>
-5.08747

>  <SCORE.INTRA.norm>
0.000908417

>  <SCORE.RESTR>
0.448747

>  <SCORE.RESTR.CAVITY>
0.448747

>  <SCORE.RESTR.norm>
0.0112187

>  <SCORE.SYSTEM>
0

>  <SCORE.SYSTEM.CONST>
0

>  <SCORE.SYSTEM.DIHEDRAL>
0

>  <SCORE.SYSTEM.SOLV>
0

>  <SCORE.SYSTEM.norm>
0

>  <SCORE.heavy>
40

>  <SCORE.norm>
-0.0894172

>  <RMSD>
2.705

$$$$
2g5q_lig
 OpenBabel11021811433D
libRbt.so/2013.1/901 2013/11/27
 40 42  0  0  0  0  0  0  0  0999 V2000
    1.5287   -7.4275   20.1861 C   0  0  2  0  0  0  0  0  0  0  0  0
    1.1444   -7.1286   18.8623 O   0  0  0  0  0  0  0  0  0  0  0  0
    2.5487   -6.3538   20.6674 C   0  0  1  0  0  0  0  0  0  0  0  0
    3.8934   -6.4348   19.8808 C   0  0  2  0  0  0  0  0  0  0  0  0
    4.4851   -7.8518   20.0979 C   0  0  2  0  0  0  0  0  0  0  0  0
    5.7397   -7.9590   19.4059 O   0  0  0  0  0  0  0  0  0  0  0  0
    3.4430   -8.9128   19.5572 C   0  0  2  0  0  0  0  0  0  0  0  0
    2.1494   -8.7747   20.2855 O   0  0  0  0  0  0  0  0  0  0  0  0
    3.9190  -10.3507   19.7342 C   0  0  0  0  0  0  0  0  0  0  0  0
    5.2244  -10.5993   19.0444 N   0  0  0  0  0  0  0  0  0  0  0  0
   -1.5236  -10.3620   17.6358 C   0  0  2  0  0  0  0  0  0  0  0  0
   -2.6254  -11.0782   17.0042 N   0  0  0  0  0  0  0  0  0  0  0  0
   -2.0837   -9.2402   18.6073 C   0  0  0  0  0  0  0  0  0  0  0  0
   -0.8934   -8.4665   19.2993 C   0  0  2  0  0  0  0  0  0  0  0  0
   -1.4319   -7.4253   20.2158 N   0  0  0  0  0  0  0  0  0  0  0  0
    0.0380   -7.8319   18.1912 C   0  0  2  0  0  0  0  0  0  0  0  0
    0.5721   -8.9770   17.2423 C   0  0  2  0  0  0  0  0  0  0  0  0
    1.4099   -8.3994   16.2362 O   0  0  0  0  0  0  0  0  0  0  0  0
   -0.6306   -9.7255   16.5507 C   0  0  1  0  0  0  0  0  0  0  0  0
   -0.1364  -10.7875   15.6869 O   0  0  0  0  0  0  0  0  0  0  0  0
   -0.1023  -10.7125   14.2829 C   0  0  2  0  0  0  0  0  0  0  0  0
   -0.1221  -12.1793   13.7338 C   0  0  2  0  0  0  0  0  0  0  0  0
   -1.2819  -12.8195   14.1598 O   0  0  0  0  0  0  0  0  0  0  0  0
    1.1599  -12.9745   14.1884 C   0  0  1  0  0  0  0  0  0  0  0  0
    1.1524  -14.3798   13.6634 N   0  0  0  0  0  0  0  0  0  0  0  0
    2.4354  -12.1929   13.6790 C   0  0  2  0  0  0  0  0  0  0  0  0
    3.6344  -12.8728   14.0563 O   0  0  0  0  0  0  0  0  0  0  0  0
    2.3965  -10.7401   14.2625 C   0  0  2  0  0  0  0  0  0  0  0  0
    1.1339  -10.0310   13.8591 O   0  0  0  0  0  0  0  0  0  0  0  0
    3.5654   -9.9218   13.7958 C   0  0  0  0  0  0  0  0  0  0  0  0
    3.4421   -9.5817   12.4051 O   0  0  0  0  0  0  0  0  0  0  0  0
    1.9294   -5.0298   20.5202 O   0  0  0  0  0  0  0  0  0  0  0  0
    4.7600   -5.4748   20.3549 O   0  0  0  0  0  0  0  0  0  0  0  0
   -5.5398   -9.9661   18.1259 N   0  0  0  0  0  0  0  0  0  0  0  0
   -3.5542  -10.5167   16.1392 C   0  0  0  0  0  0  0  0  0  0  0  0
   -3.5560   -9.3355   15.8108 O   0  0  0  0  0  0  0  0  0  0  0  0
   -4.5996  -11.5445   15.6479 C   0  0  1  0  0  0  0  0  0  0  0  0
   -5.4088  -12.0878   16.8429 C   0  0  0  0  0  0  0  0  0  0  0  0
   -6.3078  -11.0719   17.5572 C   0  0  0  0  0  0  0  0  0  0  0  0
   -5.4681  -10.9110   14.6816 O   0  0  0  0  0  0  0  0  0  0  0  0
  1  2  1  6  0  0  0
  1  3  1  0  0  0  0
  1  8  1  0  0  0  0
  3  4  1  0  0  0  0
  3 32  1  6  0  0  0
  4  5  1  0  0  0  0
  4 33  1  1  0  0  0
  5  6  1  6  0  0  0
  5  7  1  0  0  0  0
  7  8  1  0  0  0  0
  7  9  1  1  0  0  0
  9 10  1  0  0  0  0
 11 12  1  6  0  0  0
 11 13  1  0  0  0  0
 11 19  1  0  0  0  0
 12 35  1  0  0  0  0
 13 14  1  0  0  0  0
 14 15  1  1  0  0  0
 14 16  1  0  0  0  0
 16  2  1  1  0  0  0
 16 17  1  0  0  0  0
 17 18  1  6  0  0  0
 17 19  1  0  0  0  0
 19 20  1  6  0  0  0
 21 20  1  1  0  0  0
 21 22  1  0  0  0  0
 21 29  1  0  0  0  0
 22 23  1  1  0  0  0
 22 24  1  0  0  0  0
 24 25  1  6  0  0  0
 24 26  1  0  0  0  0
 26 27  1  1  0  0  0
 26 28  1  0  0  0  0
 28 29  1  0  0  0  0
 28 30  1  6  0  0  0
 30 31  1  0  0  0  0
 34 39  1  0  0  0  0
 35 36  2  0  0  0  0
 37 35  1  1  0  0  0
 37 38  1  0  0  0  0
 37 40  1  0  0  0  0
 38 39  1  0  0  0  0
M  END
>  <CHROM.1>
-170.44272814,-58.18723773,63.63690966,21.18467163,135.70706297,-155.59268339
71.58128350,62.19157672,66.20169224,-61.07497024,0.44412948,-9.68772708,17.03445927
0.71064974,0.09473626,0.92465902

>  <Name>
2g5q_lig

>  <RI>
0

>  <Rbt.Current_Directory>
/home/itssahil/PROJECTS/Mol_Feturizer/New_Systems/rnas/2g5q

>  <Rbt.Executable>
rbdock ($Id: //depot/dev/client3/rdock/2013.1/src/exe/rbdock.cxx#4 $)

>  <Rbt.Library>
libRbt.so (2013.1, Build901 2013/11/27)

>  <Rbt.Parameter_File>
/export/apps/rDock/src/rDock_2013.1_src/data/scripts/dock_solv.prm

>  <Rbt.Receptor>
prm/pocket_docking_2.prm

>  <SCORE>
-6.00031

>  <SCORE.INTER>
-7.5468

>  <SCORE.INTER.CONST>
1

>  <SCORE.INTER.POLAR>
-0.526094

>  <SCORE.INTER.ROT>
10

>  <SCORE.INTER.SOLV>
17.0115

>  <SCORE.INTER.VDW>
-19.2147

>  <SCORE.INTER.norm>
-0.18867

>  <SCORE.INTRA>
0.828117

>  <SCORE.INTRA.DIHEDRAL>
-6.85944

>  <SCORE.INTRA.DIHEDRAL.0>
22.5778

>  <SCORE.INTRA.POLAR>
0

>  <SCORE.INTRA.POLAR.0>
0

>  <SCORE.INTRA.REPUL>
0

>  <SCORE.INTRA.REPUL.0>
0

>  <SCORE.INTRA.SOLV>
7.48661

>  <SCORE.INTRA.SOLV.lig_0>
-102.332

>  <SCORE.INTRA.VDW>
0.514533

>  <SCORE.INTRA.VDW.0>
-5.08747

>  <SCORE.INTRA.norm>
0.0207029

>  <SCORE.RESTR>
0.718379

>  <SCORE.RESTR.CAVITY>
0.718379

>  <SCORE.RESTR.norm>
0.0179595

>  <SCORE.SYSTEM>
0

>  <SCORE.SYSTEM.CONST>
0

>  <SCORE.SYSTEM.DIHEDRAL>
0

>  <SCORE.SYSTEM.SOLV>
0

>  <SCORE.SYSTEM.norm>
0

>  <SCORE.heavy>
40

>  <SCORE.norm>
-0.150008

>  <RMSD>
2.715

$$$$
2g5q_lig
 OpenBabel11021811433D
libRbt.so/2013.1/901 2013/11/27
 40 42  0  0  0  0  0  0  0  0999 V2000
    1.6077   -7.6448   19.9719 C   0  0  2  0  0  0  0  0  0  0  0  0
    1.2869   -7.3473   18.6310 O   0  0  0  0  0  0  0  0  0  0  0  0
    2.5623   -6.5415   20.5163 C   0  0  1  0  0  0  0  0  0  0  0  0
    3.9504   -6.5703   19.8048 C   0  0  2  0  0  0  0  0  0  0  0  0
    4.5772   -7.9684   20.0446 C   0  0  2  0  0  0  0  0  0  0  0  0
    5.8709   -8.0272   19.4223 O   0  0  0  0  0  0  0  0  0  0  0  0
    3.6033   -9.0591   19.4396 C   0  0  2  0  0  0  0  0  0  0  0  0
    2.2676   -8.9711   20.0961 O   0  0  0  0  0  0  0  0  0  0  0  0
    4.1176  -10.4817   19.6328 C   0  0  0  0  0  0  0  0  0  0  0  0
    5.4492  -10.6909   18.9811 N   0  0  0  0  0  0  0  0  0  0  0  0
   -1.9632  -10.0872   17.6275 C   0  0  2  0  0  0  0  0  0  0  0  0
   -3.1666  -10.6357   17.0137 N   0  0  0  0  0  0  0  0  0  0  0  0
   -2.3076   -8.7536   18.4141 C   0  0  0  0  0  0  0  0  0  0  0  0
   -1.0078   -8.1598   19.0867 C   0  0  2  0  0  0  0  0  0  0  0  0
   -1.3462   -6.9161   19.8302 N   0  0  0  0  0  0  0  0  0  0  0  0
    0.0834   -7.8877   17.9762 C   0  0  2  0  0  0  0  0  0  0  0  0
    0.3963   -9.2354   17.2130 C   0  0  2  0  0  0  0  0  0  0  0  0
    1.3798   -8.9853   16.2039 O   0  0  0  0  0  0  0  0  0  0  0  0
   -0.9100   -9.8021   16.5368 C   0  0  1  0  0  0  0  0  0  0  0  0
   -0.6215  -11.0497   15.8450 O   0  0  0  0  0  0  0  0  0  0  0  0
   -0.9573  -11.3053   14.5034 C   0  0  2  0  0  0  0  0  0  0  0  0
   -0.8793  -12.8545   14.2868 C   0  0  2  0  0  0  0  0  0  0  0  0
   -1.7742  -13.4892   15.1428 O   0  0  0  0  0  0  0  0  0  0  0  0
    0.5869  -13.3870   14.5087 C   0  0  1  0  0  0  0  0  0  0  0  0
    0.6729  -14.8699   14.2990 N   0  0  0  0  0  0  0  0  0  0  0  0
    1.5482  -12.6236   13.5135 C   0  0  2  0  0  0  0  0  0  0  0  0
    2.8971  -13.0712   13.6635 O   0  0  0  0  0  0  0  0  0  0  0  0
    1.4252  -11.0856   13.7818 C   0  0  2  0  0  0  0  0  0  0  0  0
    0.0043  -10.6223   13.6196 O   0  0  0  0  0  0  0  0  0  0  0  0
    2.2897  -10.2874   12.8495 C   0  0  0  0  0  0  0  0  0  0  0  0
    3.6819  -10.5831   13.0473 O   0  0  0  0  0  0  0  0  0  0  0  0
    1.9073   -5.2379   20.3442 O   0  0  0  0  0  0  0  0  0  0  0  0
    4.7563   -5.5859   20.3328 O   0  0  0  0  0  0  0  0  0  0  0  0
   -8.0771  -10.2300   15.5292 N   0  0  0  0  0  0  0  0  0  0  0  0
   -4.3433  -10.9352   17.6859 C   0  0  0  0  0  0  0  0  0  0  0  0
   -4.5015  -10.7763   18.8913 O   0  0  0  0  0  0  0  0  0  0  0  0
   -5.4295  -11.5091   16.7471 C   0  0  1  0  0  0  0  0  0  0  0  0
   -5.6193  -10.5820   15.5295 C   0  0  0  0  0  0  0  0  0  0  0  0
   -6.9399  -10.7428   14.7677 C   0  0  0  0  0  0  0  0  0  0  0  0
   -5.0404  -12.8370   16.3293 O   0  0  0  0  0  0  0  0  0  0  0  0
  1  2  1  6  0  0  0
  1  3  1  0  0  0  0
  1  8  1  0  0  0  0
  3  4  1  0  0  0  0
  3 32  1  6  0  0  0
  4  5  1  0  0  0  0
  4 33  1  1  0  0  0
  5  6  1  6  0  0  0
  5  7  1  0  0  0  0
  7  8  1  0  0  0  0
  7  9  1  1  0  0  0
  9 10  1  0  0  0  0
 11 12  1  6  0  0  0
 11 13  1  0  0  0  0
 11 19  1  0  0  0  0
 12 35  1  0  0  0  0
 13 14  1  0  0  0  0
 14 15  1  6  0  0  0
 14 16  1  0  0  0  0
 16  2  1  1  0  0  0
 16 17  1  0  0  0  0
 17 18  1  6  0  0  0
 17 19  1  0  0  0  0
 19 20  1  1  0  0  0
 21 20  1  1  0  0  0
 21 22  1  0  0  0  0
 21 29  1  0  0  0  0
 22 23  1  1  0  0  0
 22 24  1  0  0  0  0
 24 25  1  6  0  0  0
 24 26  1  0  0  0  0
 26 27  1  1  0  0  0
 26 28  1  0  0  0  0
 28 29  1  0  0  0  0
 28 30  1  6  0  0  0
 30 31  1  0  0  0  0
 34 39  1  0  0  0  0
 35 36  2  0  0  0  0
 37 35  1  1  0  0  0
 37 38  1  0  0  0  0
 37 40  1  0  0  0  0
 38 39  1  0  0  0  0
M  END
>  <CHROM.1>
-158.27488412,-59.80994027,-54.73622699,27.30111404,112.60491132,-163.09066869
-63.27503357,-51.65761917,-160.38201856,71.28697482,0.09165739,-9.92888883
17.03418401,0.63032055,0.04732473,0.85759960

>  <Name>
2g5q_lig

>  <RI>
0

>  <Rbt.Current_Directory>
/home/itssahil/PROJECTS/Mol_Feturizer/New_Systems/rnas/2g5q

>  <Rbt.Executable>
rbdock ($Id: //depot/dev/client3/rdock/2013.1/src/exe/rbdock.cxx#4 $)

>  <Rbt.Library>
libRbt.so (2013.1, Build901 2013/11/27)

>  <Rbt.Parameter_File>
/export/apps/rDock/src/rDock_2013.1_src/data/scripts/dock_solv.prm

>  <Rbt.Receptor>
prm/pocket_docking_2.prm

>  <SCORE>
-6.82988

>  <SCORE.INTER>
-7.5352

>  <SCORE.INTER.CONST>
1

>  <SCORE.INTER.POLAR>
-0.384396

>  <SCORE.INTER.ROT>
10

>  <SCORE.INTER.SOLV>
15.8969

>  <SCORE.INTER.VDW>
-19.3078

>  <SCORE.INTER.norm>
-0.18838

>  <SCORE.INTRA>
-0.199029

>  <SCORE.INTRA.DIHEDRAL>
-5.45819

>  <SCORE.INTRA.DIHEDRAL.0>
22.5778

>  <SCORE.INTRA.POLAR>
0

>  <SCORE.INTRA.POLAR.0>
0

>  <SCORE.INTRA.REPUL>
0.0176627

>  <SCORE.INTRA.REPUL.0>
0

>  <SCORE.INTRA.SOLV>
2.50242

>  <SCORE.INTRA.SOLV.lig_0>
-102.332

>  <SCORE.INTRA.VDW>
1.19054

>  <SCORE.INTRA.VDW.0>
-5.08747

>  <SCORE.INTRA.norm>
-0.00497573

>  <SCORE.RESTR>
0.904355

>  <SCORE.RESTR.CAVITY>
0.904355

>  <SCORE.RESTR.norm>
0.0226089

>  <SCORE.SYSTEM>
0

>  <SCORE.SYSTEM.CONST>
0

>  <SCORE.SYSTEM.DIHEDRAL>
0

>  <SCORE.SYSTEM.SOLV>
0

>  <SCORE.SYSTEM.norm>
0

>  <SCORE.heavy>
40

>  <SCORE.norm>
-0.170747

>  <RMSD>
2.718

$$$$
2g5q_lig
 OpenBabel11021811433D
libRbt.so/2013.1/901 2013/11/27
 40 42  0  0  0  0  0  0  0  0999 V2000
    1.5535   -7.7396   20.0640 C   0  0  2  0  0  0  0  0  0  0  0  0
    1.2721   -7.2941   18.7557 O   0  0  0  0  0  0  0  0  0  0  0  0
    2.4769   -6.6975   20.7615 C   0  0  1  0  0  0  0  0  0  0  0  0
    3.8871   -6.6334   20.0976 C   0  0  2  0  0  0  0  0  0  0  0  0
    4.5229   -8.0443   20.1977 C   0  0  2  0  0  0  0  0  0  0  0  0
    5.8365   -8.0210   19.6159 O   0  0  0  0  0  0  0  0  0  0  0  0
    3.5821   -9.0672   19.4409 C   0  0  2  0  0  0  0  0  0  0  0  0
    2.2252   -9.0658   20.0586 O   0  0  0  0  0  0  0  0  0  0  0  0
    4.1072  -10.4982   19.4883 C   0  0  0  0  0  0  0  0  0  0  0  0
    5.5163  -10.5962   18.9916 N   0  0  0  0  0  0  0  0  0  0  0  0
   -1.8276  -10.0439   17.3744 C   0  0  2  0  0  0  0  0  0  0  0  0
   -2.9549  -10.5919   16.6298 N   0  0  0  0  0  0  0  0  0  0  0  0
   -2.2656   -8.7272   18.1427 C   0  0  0  0  0  0  0  0  0  0  0  0
   -1.0490   -8.1340   18.9567 C   0  0  2  0  0  0  0  0  0  0  0  0
   -1.4757   -6.9064   19.6812 N   0  0  0  0  0  0  0  0  0  0  0  0
    0.1488   -7.8332   17.9704 C   0  0  2  0  0  0  0  0  0  0  0  0
    0.5533   -9.1648   17.2219 C   0  0  2  0  0  0  0  0  0  0  0  0
    1.6337   -8.8887   16.3249 O   0  0  0  0  0  0  0  0  0  0  0  0
   -0.6697   -9.7308   16.4042 C   0  0  1  0  0  0  0  0  0  0  0  0
   -0.2980  -10.9637   15.7258 O   0  0  0  0  0  0  0  0  0  0  0  0
   -0.7321  -11.3174   14.4356 C   0  0  2  0  0  0  0  0  0  0  0  0
   -0.7683  -12.8817   14.3650 C   0  0  2  0  0  0  0  0  0  0  0  0
   -1.6478  -13.3702   15.3264 O   0  0  0  0  0  0  0  0  0  0  0  0
    0.6712  -13.4935   14.5554 C   0  0  1  0  0  0  0  0  0  0  0  0
    0.6476  -14.9917   14.4848 N   0  0  0  0  0  0  0  0  0  0  0  0
    1.6166  -12.8947   13.4396 C   0  0  2  0  0  0  0  0  0  0  0  0
    2.9402  -13.4204   13.5569 O   0  0  0  0  0  0  0  0  0  0  0  0
    1.6105  -11.3337   13.5652 C   0  0  2  0  0  0  0  0  0  0  0  0
    0.2153  -10.7883   13.4383 O   0  0  0  0  0  0  0  0  0  0  0  0
    2.4656  -10.6877   12.5140 C   0  0  0  0  0  0  0  0  0  0  0  0
    2.7004   -9.3016   12.8117 O   0  0  0  0  0  0  0  0  0  0  0  0
    1.8119   -5.3883   20.7169 O   0  0  0  0  0  0  0  0  0  0  0  0
    4.6638   -5.7087   20.7603 O   0  0  0  0  0  0  0  0  0  0  0  0
   -5.5517   -8.5220   16.7667 N   0  0  0  0  0  0  0  0  0  0  0  0
   -4.1327  -11.0639   17.1921 C   0  0  0  0  0  0  0  0  0  0  0  0
   -4.3565  -11.0797   18.3975 O   0  0  0  0  0  0  0  0  0  0  0  0
   -5.1269  -11.5850   16.1289 C   0  0  1  0  0  0  0  0  0  0  0  0
   -6.4338  -10.7680   16.1820 C   0  0  0  0  0  0  0  0  0  0  0  0
   -6.3145   -9.2917   15.7861 C   0  0  0  0  0  0  0  0  0  0  0  0
   -4.5139  -11.4940   14.8230 O   0  0  0  0  0  0  0  0  0  0  0  0
  1  2  1  6  0  0  0
  1  3  1  0  0  0  0
  1  8  1  0  0  0  0
  3  4  1  0  0  0  0
  3 32  1  6  0  0  0
  4  5  1  0  0  0  0
  4 33  1  1  0  0  0
  5  6  1  6  0  0  0
  5  7  1  0  0  0  0
  7  8  1  0  0  0  0
  7  9  1  1  0  0  0
  9 10  1  0  0  0  0
 11 12  1  6  0  0  0
 11 13  1  0  0  0  0
 11 19  1  0  0  0  0
 12 35  1  0  0  0  0
 13 14  1  0  0  0  0
 14 15  1  6  0  0  0
 14 16  1  0  0  0  0
 16  2  1  1  0  0  0
 16 17  1  0  0  0  0
 17 18  1  6  0  0  0
 17 19  1  0  0  0  0
 19 20  1  1  0  0  0
 21 20  1  1  0  0  0
 21 22  1  0  0  0  0
 21 29  1  0  0  0  0
 22 23  1  1  0  0  0
 22 24  1  0  0  0  0
 24 25  1  6  0  0  0
 24 26  1  0  0  0  0
 26 27  1  1  0  0  0
 26 28  1  0  0  0  0
 28 29  1  0  0  0  0
 28 30  1  6  0  0  0
 30 31  1  0  0  0  0
 34 39  1  0  0  0  0
 35 36  2  0  0  0  0
 37 35  1  1  0  0  0
 37 38  1  0  0  0  0
 37 40  1  0  0  0  0
 38 39  1  0  0  0  0
M  END
>  <CHROM.1>
-162.46502356,-53.88609892,-63.00203042,35.45400751,98.67116829,-151.36558262
-166.89528796,-119.08837058,65.84061925,-68.70320906,0.20096153,-9.83665497
17.01997454,0.73395368,-0.00472502,0.85716802

>  <Name>
2g5q_lig

>  <RI>
0

>  <Rbt.Current_Directory>
/home/itssahil/PROJECTS/Mol_Feturizer/New_Systems/rnas/2g5q

>  <Rbt.Executable>
rbdock ($Id: //depot/dev/client3/rdock/2013.1/src/exe/rbdock.cxx#4 $)

>  <Rbt.Library>
libRbt.so (2013.1, Build901 2013/11/27)

>  <Rbt.Parameter_File>
/export/apps/rDock/src/rDock_2013.1_src/data/scripts/dock_solv.prm

>  <Rbt.Receptor>
prm/pocket_docking_2.prm

>  <SCORE>
-9.89944

>  <SCORE.INTER>
-10.6819

>  <SCORE.INTER.CONST>
1

>  <SCORE.INTER.POLAR>
-0.821269

>  <SCORE.INTER.ROT>
10

>  <SCORE.INTER.SOLV>
17.7295

>  <SCORE.INTER.VDW>
-20.5602

>  <SCORE.INTER.norm>
-0.267048

>  <SCORE.INTRA>
0.515189

>  <SCORE.INTRA.DIHEDRAL>
-6.4451

>  <SCORE.INTRA.DIHEDRAL.0>
22.5778

>  <SCORE.INTRA.POLAR>
0

>  <SCORE.INTRA.POLAR.0>
0

>  <SCORE.INTRA.REPUL>
0

>  <SCORE.INTRA.REPUL.0>
0

>  <SCORE.INTRA.SOLV>
6.82344

>  <SCORE.INTRA.SOLV.lig_0>
-102.332

>  <SCORE.INTRA.VDW>
0.326022

>  <SCORE.INTRA.VDW.0>
-5.08747

>  <SCORE.INTRA.norm>
0.0128797

>  <SCORE.RESTR>
0.26728

>  <SCORE.RESTR.CAVITY>
0.26728

>  <SCORE.RESTR.norm>
0.00668199

>  <SCORE.SYSTEM>
0

>  <SCORE.SYSTEM.CONST>
0

>  <SCORE.SYSTEM.DIHEDRAL>
0

>  <SCORE.SYSTEM.SOLV>
0

>  <SCORE.SYSTEM.norm>
0

>  <SCORE.heavy>
40

>  <SCORE.norm>
-0.247486

>  <RMSD>
2.731

$$$$
2g5q_lig
 OpenBabel11021811433D
libRbt.so/2013.1/901 2013/11/27
 40 42  0  0  0  0  0  0  0  0999 V2000
    1.9228   -7.7399   20.3485 C   0  0  2  0  0  0  0  0  0  0  0  0
    1.6361   -7.1300   19.1095 O   0  0  0  0  0  0  0  0  0  0  0  0
    3.0731   -6.9517   21.0418 C   0  0  1  0  0  0  0  0  0  0  0  0
    4.4186   -7.0810   20.2630 C   0  0  2  0  0  0  0  0  0  0  0  0
    4.7842   -8.5865   20.1947 C   0  0  2  0  0  0  0  0  0  0  0  0
    6.0333   -8.7459   19.5028 O   0  0  0  0  0  0  0  0  0  0  0  0
    3.6162   -9.3472   19.4456 C   0  0  2  0  0  0  0  0  0  0  0  0
    2.3318   -9.1591   20.1790 O   0  0  0  0  0  0  0  0  0  0  0  0
    3.8658  -10.8474   19.3331 C   0  0  0  0  0  0  0  0  0  0  0  0
    5.0887  -11.1543   18.5256 N   0  0  0  0  0  0  0  0  0  0  0  0
   -1.3210   -9.7835   17.2950 C   0  0  2  0  0  0  0  0  0  0  0  0
   -2.4214  -10.2642   16.4680 N   0  0  0  0  0  0  0  0  0  0  0  0
   -1.8242   -8.6312   18.2619 C   0  0  0  0  0  0  0  0  0  0  0  0
   -0.6367   -8.1124   19.1648 C   0  0  2  0  0  0  0  0  0  0  0  0
   -1.1241   -7.0403   20.0744 N   0  0  0  0  0  0  0  0  0  0  0  0
    0.5391   -7.5953   18.2439 C   0  0  2  0  0  0  0  0  0  0  0  0
    1.0096   -8.7672   17.2940 C   0  0  2  0  0  0  0  0  0  0  0  0
    2.0699   -8.2949   16.4568 O   0  0  0  0  0  0  0  0  0  0  0  0
   -0.1857   -9.2590   16.3916 C   0  0  1  0  0  0  0  0  0  0  0  0
    0.2472  -10.3465   15.5266 O   0  0  0  0  0  0  0  0  0  0  0  0
    0.4400  -10.2234   14.1389 C   0  0  2  0  0  0  0  0  0  0  0  0
    0.3686  -11.6628   13.5255 C   0  0  2  0  0  0  0  0  0  0  0  0
   -0.8761  -12.2226   13.7971 O   0  0  0  0  0  0  0  0  0  0  0  0
    1.5290  -12.5747   14.0771 C   0  0  1  0  0  0  0  0  0  0  0  0
    1.4718  -13.9547   13.4918 N   0  0  0  0  0  0  0  0  0  0  0  0
    2.9083  -11.8803   13.7413 C   0  0  2  0  0  0  0  0  0  0  0  0
    4.0036  -12.6679   14.2126 O   0  0  0  0  0  0  0  0  0  0  0  0
    2.9167  -10.4514   14.3820 C   0  0  2  0  0  0  0  0  0  0  0  0
    1.7633   -9.6286   13.8795 O   0  0  0  0  0  0  0  0  0  0  0  0
    4.1884   -9.7134   14.0790 C   0  0  0  0  0  0  0  0  0  0  0  0
    3.9723   -8.2931   14.0461 O   0  0  0  0  0  0  0  0  0  0  0  0
    2.6638   -5.5458   21.1598 O   0  0  0  0  0  0  0  0  0  0  0  0
    5.4006   -6.3780   20.9255 O   0  0  0  0  0  0  0  0  0  0  0  0
   -6.7678  -12.2456   17.4012 N   0  0  0  0  0  0  0  0  0  0  0  0
   -3.2050  -11.3757   16.7449 C   0  0  0  0  0  0  0  0  0  0  0  0
   -3.0517  -12.0927   17.7276 O   0  0  0  0  0  0  0  0  0  0  0  0
   -4.2844  -11.6204   15.6653 C   0  0  1  0  0  0  0  0  0  0  0  0
   -5.5017  -10.7082   15.9187 C   0  0  0  0  0  0  0  0  0  0  0  0
   -6.2117  -10.9011   17.2637 C   0  0  0  0  0  0  0  0  0  0  0  0
   -3.7143  -11.3701   14.3609 O   0  0  0  0  0  0  0  0  0  0  0  0
  1  2  1  6  0  0  0
  1  3  1  0  0  0  0
  1  8  1  0  0  0  0
  3  4  1  0  0  0  0
  3 32  1  6  0  0  0
  4  5  1  0  0  0  0
  4 33  1  1  0  0  0
  5  6  1  6  0  0  0
  5  7  1  0  0  0  0
  7  8  1  0  0  0  0
  7  9  1  1  0  0  0
  9 10  1  0  0  0  0
 11 12  1  6  0  0  0
 11 13  1  0  0  0  0
 11 19  1  0  0  0  0
 12 35  1  0  0  0  0
 13 14  1  0  0  0  0
 14 15  1  1  0  0  0
 14 16  1  0  0  0  0
 16  2  1  1  0  0  0
 16 17  1  0  0  0  0
 17 18  1  6  0  0  0
 17 19  1  0  0  0  0
 19 20  1  6  0  0  0
 21 20  1  1  0  0  0
 21 22  1  0  0  0  0
 21 29  1  0  0  0  0
 22 23  1  1  0  0  0
 22 24  1  0  0  0  0
 24 25  1  6  0  0  0
 24 26  1  0  0  0  0
 26 27  1  1  0  0  0
 26 28  1  0  0  0  0
 28 29  1  0  0  0  0
 28 30  1  6  0  0  0
 30 31  1  0  0  0  0
 34 39  1  0  0  0  0
 35 36  2  0  0  0  0
 37 35  1  1  0  0  0
 37 38  1  0  0  0  0
 37 40  1  0  0  0  0
 38 39  1  0  0  0  0
M  END
>  <CHROM.1>
-176.42960864,-62.53374106,-96.10335782,33.65439200,132.67271295,-159.12894515
151.02554031,-81.65129153,-60.34424977,-62.03455097,0.82038862,-9.74343036
17.08505785,0.62120276,0.10920533,0.99045729

>  <Name>
2g5q_lig

>  <RI>
0

>  <Rbt.Current_Directory>
/home/itssahil/PROJECTS/Mol_Feturizer/New_Systems/rnas/2g5q

>  <Rbt.Executable>
rbdock ($Id: //depot/dev/client3/rdock/2013.1/src/exe/rbdock.cxx#4 $)

>  <Rbt.Library>
libRbt.so (2013.1, Build901 2013/11/27)

>  <Rbt.Parameter_File>
/export/apps/rDock/src/rDock_2013.1_src/data/scripts/dock_solv.prm

>  <Rbt.Receptor>
prm/pocket_docking_3.prm

>  <SCORE>
-11.4196

>  <SCORE.INTER>
-9.40586

>  <SCORE.INTER.CONST>
1

>  <SCORE.INTER.POLAR>
-1.32684

>  <SCORE.INTER.ROT>
10

>  <SCORE.INTER.SOLV>
16.967

>  <SCORE.INTER.VDW>
-17.7701

>  <SCORE.INTER.norm>
-0.235147

>  <SCORE.INTRA>
-2.01374

>  <SCORE.INTRA.DIHEDRAL>
-6.65482

>  <SCORE.INTRA.DIHEDRAL.0>
22.5778

>  <SCORE.INTRA.POLAR>
0

>  <SCORE.INTRA.POLAR.0>
0

>  <SCORE.INTRA.REPUL>
0

>  <SCORE.INTRA.REPUL.0>
0

>  <SCORE.INTRA.SOLV>
3.55727

>  <SCORE.INTRA.SOLV.lig_0>
-102.332

>  <SCORE.INTRA.VDW>
-0.464965

>  <SCORE.INTRA.VDW.0>
-5.08747

>  <SCORE.INTRA.norm>
-0.0503435

>  <SCORE.RESTR>
0

>  <SCORE.RESTR.CAVITY>
0

>  <SCORE.RESTR.norm>
0

>  <SCORE.SYSTEM>
0

>  <SCORE.SYSTEM.CONST>
0

>  <SCORE.SYSTEM.DIHEDRAL>
0

>  <SCORE.SYSTEM.SOLV>
0

>  <SCORE.SYSTEM.norm>
0

>  <SCORE.heavy>
40

>  <SCORE.norm>
-0.28549

>  <RMSD>
2.733

$$$$
2g5q_lig
 OpenBabel11021811433D
libRbt.so/2013.1/901 2013/11/27
 40 42  0  0  0  0  0  0  0  0999 V2000
    4.1282   -7.6873   18.8893 C   0  0  2  0  0  0  0  0  0  0  0  0
    3.0194   -8.4465   19.3179 O   0  0  0  0  0  0  0  0  0  0  0  0
    5.3423   -8.0082   19.8100 C   0  0  1  0  0  0  0  0  0  0  0  0
    5.1134   -7.5087   21.2701 C   0  0  2  0  0  0  0  0  0  0  0  0
    4.8891   -5.9752   21.2169 C   0  0  2  0  0  0  0  0  0  0  0  0
    4.6969   -5.4720   22.5489 O   0  0  0  0  0  0  0  0  0  0  0  0
    3.6232   -5.6901   20.3112 C   0  0  2  0  0  0  0  0  0  0  0  0
    3.8455   -6.2286   18.9389 O   0  0  0  0  0  0  0  0  0  0  0  0
    3.3166   -4.2022   20.1770 C   0  0  0  0  0  0  0  0  0  0  0  0
    2.8759   -3.6002   21.4751 N   0  0  0  0  0  0  0  0  0  0  0  0
   -0.0782  -10.7779   17.3061 C   0  0  2  0  0  0  0  0  0  0  0  0
   -1.1975  -11.1306   16.4409 N   0  0  0  0  0  0  0  0  0  0  0  0
   -0.5187   -9.6648   18.3468 C   0  0  0  0  0  0  0  0  0  0  0  0
    0.6891   -9.2849   19.2909 C   0  0  2  0  0  0  0  0  0  0  0  0
    0.2600   -8.2488   20.2688 N   0  0  0  0  0  0  0  0  0  0  0  0
    1.9048   -8.7814   18.4152 C   0  0  2  0  0  0  0  0  0  0  0  0
    2.3113   -9.9131   17.3900 C   0  0  2  0  0  0  0  0  0  0  0  0
    3.4080   -9.4526   16.5942 O   0  0  0  0  0  0  0  0  0  0  0  0
    1.0974  -10.2657   16.4483 C   0  0  1  0  0  0  0  0  0  0  0  0
    1.4707  -11.3168   15.5133 O   0  0  0  0  0  0  0  0  0  0  0  0
    2.1825  -12.4760   15.8707 C   0  0  2  0  0  0  0  0  0  0  0  0
    2.7290  -13.1171   14.5502 C   0  0  2  0  0  0  0  0  0  0  0  0
    3.5652  -12.2110   13.9051 O   0  0  0  0  0  0  0  0  0  0  0  0
    1.5507  -13.5673   13.6060 C   0  0  1  0  0  0  0  0  0  0  0  0
    2.0642  -14.1870   12.3401 N   0  0  0  0  0  0  0  0  0  0  0  0
    0.6405  -14.5865   14.3997 C   0  0  2  0  0  0  0  0  0  0  0  0
   -0.4462  -15.0380   13.5888 O   0  0  0  0  0  0  0  0  0  0  0  0
    0.1264  -13.8866   15.7029 C   0  0  2  0  0  0  0  0  0  0  0  0
    1.2751  -13.4170   16.5514 O   0  0  0  0  0  0  0  0  0  0  0  0
   -0.7242  -14.8065   16.5299 C   0  0  0  0  0  0  0  0  0  0  0  0
   -1.1480  -14.1716   17.7474 O   0  0  0  0  0  0  0  0  0  0  0  0
    5.5756   -9.4583   19.7782 O   0  0  0  0  0  0  0  0  0  0  0  0
    6.2200   -7.8059   22.0347 O   0  0  0  0  0  0  0  0  0  0  0  0
   -5.0588  -13.9536   16.9297 N   0  0  0  0  0  0  0  0  0  0  0  0
   -2.4831  -11.4234   16.8740 C   0  0  0  0  0  0  0  0  0  0  0  0
   -2.8240  -11.4254   18.0517 O   0  0  0  0  0  0  0  0  0  0  0  0
   -3.4361  -11.7647   15.7053 C   0  0  1  0  0  0  0  0  0  0  0  0
   -4.9024  -11.6003   16.1538 C   0  0  0  0  0  0  0  0  0  0  0  0
   -5.3775  -12.5633   17.2480 C   0  0  0  0  0  0  0  0  0  0  0  0
   -3.1391  -10.9010   14.5849 O   0  0  0  0  0  0  0  0  0  0  0  0
  1  2  1  1  0  0  0
  1  3  1  0  0  0  0
  1  8  1  0  0  0  0
  3  4  1  0  0  0  0
  3 32  1  1  0  0  0
  4  5  1  0  0  0  0
  4 33  1  1  0  0  0
  5  6  1  1  0  0  0
  5  7  1  0  0  0  0
  7  8  1  0  0  0  0
  7  9  1  6  0  0  0
  9 10  1  0  0  0  0
 11 12  1  6  0  0  0
 11 13  1  0  0  0  0
 11 19  1  0  0  0  0
 12 35  1  0  0  0  0
 13 14  1  0  0  0  0
 14 15  1  1  0  0  0
 14 16  1  0  0  0  0
 16  2  1  1  0  0  0
 16 17  1  0  0  0  0
 17 18  1  6  0  0  0
 17 19  1  0  0  0  0
 19 20  1  6  0  0  0
 21 20  1  6  0  0  0
 21 22  1  0  0  0  0
 21 29  1  0  0  0  0
 22 23  1  6  0  0  0
 22 24  1  0  0  0  0
 24 25  1  6  0  0  0
 24 26  1  0  0  0  0
 26 27  1  6  0  0  0
 26 28  1  0  0  0  0
 28 29  1  0  0  0  0
 28 30  1  1  0  0  0
 30 31  1  0  0  0  0
 34 39  1  0  0  0  0
 35 36  2  0  0  0  0
 37 35  1  1  0  0  0
 37 38  1  0  0  0  0
 37 40  1  0  0  0  0
 38 39  1  0  0  0  0
M  END
>  <CHROM.1>
-156.28220088,-67.04101043,-47.92557914,-165.09909263,-74.86751176,-163.89841368
177.77860332,-160.44685337,-64.88176068,-50.12852960,1.18873749,-10.35346853
17.56000861,-0.97378931,-0.10229973,-2.41550062

>  <Name>
2g5q_lig

>  <RI>
0

>  <Rbt.Current_Directory>
/home/itssahil/PROJECTS/Mol_Feturizer/New_Systems/rnas/2g5q

>  <Rbt.Executable>
rbdock ($Id: //depot/dev/client3/rdock/2013.1/src/exe/rbdock.cxx#4 $)

>  <Rbt.Library>
libRbt.so (2013.1, Build901 2013/11/27)

>  <Rbt.Parameter_File>
/export/apps/rDock/src/rDock_2013.1_src/data/scripts/dock_solv.prm

>  <Rbt.Receptor>
prm/pocket_docking_5.prm

>  <SCORE>
-19.6625

>  <SCORE.INTER>
-14.5139

>  <SCORE.INTER.CONST>
1

>  <SCORE.INTER.POLAR>
-1.7946

>  <SCORE.INTER.ROT>
10

>  <SCORE.INTER.SOLV>
20.2808

>  <SCORE.INTER.VDW>
-20.7209

>  <SCORE.INTER.norm>
-0.362847

>  <SCORE.INTRA>
-5.14859

>  <SCORE.INTRA.DIHEDRAL>
-14.8808

>  <SCORE.INTRA.DIHEDRAL.0>
22.5778

>  <SCORE.INTRA.POLAR>
0

>  <SCORE.INTRA.POLAR.0>
0

>  <SCORE.INTRA.REPUL>
0

>  <SCORE.INTRA.REPUL.0>
0

>  <SCORE.INTRA.SOLV>
3.55553

>  <SCORE.INTRA.SOLV.lig_0>
-102.332

>  <SCORE.INTRA.VDW>
0.514068

>  <SCORE.INTRA.VDW.0>
-5.08747

>  <SCORE.INTRA.norm>
-0.128715

>  <SCORE.RESTR>
0

>  <SCORE.RESTR.CAVITY>
0

>  <SCORE.RESTR.norm>
0

>  <SCORE.SYSTEM>
0

>  <SCORE.SYSTEM.CONST>
0

>  <SCORE.SYSTEM.DIHEDRAL>
0

>  <SCORE.SYSTEM.SOLV>
0

>  <SCORE.SYSTEM.norm>
0

>  <SCORE.heavy>
40

>  <SCORE.norm>
-0.491562

>  <RMSD>
2.754

$$$$
2g5q_lig
 OpenBabel11021811433D
libRbt.so/2013.1/901 2013/11/27
 40 42  0  0  0  0  0  0  0  0999 V2000
    1.6487   -7.8873   19.7826 C   0  0  2  0  0  0  0  0  0  0  0  0
    1.1109   -7.3854   18.5792 O   0  0  0  0  0  0  0  0  0  0  0  0
    2.6259   -6.8297   20.3754 C   0  0  1  0  0  0  0  0  0  0  0  0
    3.8866   -6.6347   19.4776 C   0  0  2  0  0  0  0  0  0  0  0  0
    4.6050   -8.0044   19.3650 C   0  0  2  0  0  0  0  0  0  0  0  0
    5.7879   -7.8611   18.5621 O   0  0  0  0  0  0  0  0  0  0  0  0
    3.5989   -9.0406   18.7183 C   0  0  2  0  0  0  0  0  0  0  0  0
    2.3786   -9.1642   19.5659 O   0  0  0  0  0  0  0  0  0  0  0  0
    4.2002  -10.4344   18.5722 C   0  0  0  0  0  0  0  0  0  0  0  0
    3.2216  -11.4108   17.9970 N   0  0  0  0  0  0  0  0  0  0  0  0
   -1.9087  -10.3677   17.5471 C   0  0  2  0  0  0  0  0  0  0  0  0
   -3.0610  -11.0069   16.9232 N   0  0  0  0  0  0  0  0  0  0  0  0
   -2.3617   -9.0661   18.3323 C   0  0  0  0  0  0  0  0  0  0  0  0
   -1.1173   -8.3743   19.0159 C   0  0  2  0  0  0  0  0  0  0  0  0
   -1.5571   -7.1619   19.7579 N   0  0  0  0  0  0  0  0  0  0  0  0
   -0.0419   -8.0164   17.9143 C   0  0  2  0  0  0  0  0  0  0  0  0
    0.3807   -9.3346   17.1523 C   0  0  2  0  0  0  0  0  0  0  0  0
    1.3497   -9.0072   16.1513 O   0  0  0  0  0  0  0  0  0  0  0  0
   -0.8723   -9.9999   16.4652 C   0  0  1  0  0  0  0  0  0  0  0  0
   -0.4824  -11.2202   15.7744 O   0  0  0  0  0  0  0  0  0  0  0  0
   -0.8625  -11.5392   14.4584 C   0  0  2  0  0  0  0  0  0  0  0  0
   -0.8064  -13.0981   14.3183 C   0  0  2  0  0  0  0  0  0  0  0  0
   -1.6802  -13.6788   15.2325 O   0  0  0  0  0  0  0  0  0  0  0  0
    0.6608  -13.6353   14.5218 C   0  0  1  0  0  0  0  0  0  0  0  0
    0.7258  -15.1278   14.3849 N   0  0  0  0  0  0  0  0  0  0  0  0
    1.5979  -12.9340   13.4600 C   0  0  2  0  0  0  0  0  0  0  0  0
    2.9463  -13.3886   13.5909 O   0  0  0  0  0  0  0  0  0  0  0  0
    1.4983  -11.3831   13.6536 C   0  0  2  0  0  0  0  0  0  0  0  0
    0.0776  -10.9125   13.5120 O   0  0  0  0  0  0  0  0  0  0  0  0
    2.3409  -10.6427   12.6559 C   0  0  0  0  0  0  0  0  0  0  0  0
    2.5870   -9.2923   13.0810 O   0  0  0  0  0  0  0  0  0  0  0  0
    1.8944   -5.5665   20.5408 O   0  0  0  0  0  0  0  0  0  0  0  0
    4.7198   -5.7016   20.0543 O   0  0  0  0  0  0  0  0  0  0  0  0
   -7.3582  -13.5988   17.6523 N   0  0  0  0  0  0  0  0  0  0  0  0
   -3.8695  -10.4301   15.9538 C   0  0  0  0  0  0  0  0  0  0  0  0
   -3.7063   -9.2978   15.5126 O   0  0  0  0  0  0  0  0  0  0  0  0
   -5.0120  -11.3692   15.5028 C   0  0  1  0  0  0  0  0  0  0  0  0
   -5.6810  -12.0158   16.7326 C   0  0  0  0  0  0  0  0  0  0  0  0
   -6.7468  -13.0760   16.4321 C   0  0  0  0  0  0  0  0  0  0  0  0
   -5.9714  -10.6109   14.7321 O   0  0  0  0  0  0  0  0  0  0  0  0
  1  2  1  6  0  0  0
  1  3  1  0  0  0  0
  1  8  1  0  0  0  0
  3  4  1  0  0  0  0
  3 32  1  6  0  0  0
  4  5  1  0  0  0  0
  4 33  1  1  0  0  0
  5  6  1  6  0  0  0
  5  7  1  0  0  0  0
  7  8  1  0  0  0  0
  7  9  1  1  0  0  0
  9 10  1  0  0  0  0
 11 12  1  6  0  0  0
 11 13  1  0  0  0  0
 11 19  1  0  0  0  0
 12 35  1  0  0  0  0
 13 14  1  0  0  0  0
 14 15  1  6  0  0  0
 14 16  1  0  0  0  0
 16  2  1  1  0  0  0
 16 17  1  0  0  0  0
 17 18  1  6  0  0  0
 17 19  1  0  0  0  0
 19 20  1  1  0  0  0
 21 20  1  1  0  0  0
 21 22  1  0  0  0  0
 21 29  1  0  0  0  0
 22 23  1  1  0  0  0
 22 24  1  0  0  0  0
 24 25  1  6  0  0  0
 24 26  1  0  0  0  0
 26 27  1  1  0  0  0
 26 28  1  0  0  0  0
 28 29  1  0  0  0  0
 28 30  1  6  0  0  0
 30 31  1  0  0  0  0
 34 39  1  0  0  0  0
 35 36  2  0  0  0  0
 37 35  1  1  0  0  0
 37 38  1  0  0  0  0
 37 40  1  0  0  0  0
 38 39  1  0  0  0  0
M  END
>  <CHROM.1>
-167.42047128,178.29578350,61.87477727,43.52705163,108.15298272,-155.50670285
-161.72398168,45.42717219,-174.40969086,-177.99361338,0.05313016,-10.11282089
16.78582880,0.66905361,0.12582216,0.82550140

>  <Name>
2g5q_lig

>  <RI>
9.52566e+06

>  <Rbt.Current_Directory>
/home/itssahil/PROJECTS/Mol_Feturizer/New_Systems/rnas/2g5q

>  <Rbt.Executable>
rbdock ($Id: //depot/dev/client3/rdock/2013.1/src/exe/rbdock.cxx#4 $)

>  <Rbt.Library>
libRbt.so (2013.1, Build901 2013/11/27)

>  <Rbt.Parameter_File>
/export/apps/rDock/src/rDock_2013.1_src/data/scripts/dock_solv.prm

>  <Rbt.Receptor>
prm/pocket_docking_4.prm

>  <SCORE>
-18.6585

>  <SCORE.INTER>
-15.0078

>  <SCORE.INTER.CONST>
1

>  <SCORE.INTER.POLAR>
-1.51236

>  <SCORE.INTER.ROT>
10

>  <SCORE.INTER.SOLV>
19.2986

>  <SCORE.INTER.VDW>
-21.6636

>  <SCORE.INTER.norm>
-0.375195

>  <SCORE.INTRA>
-3.65068

>  <SCORE.INTRA.DIHEDRAL>
-9.16755

>  <SCORE.INTRA.DIHEDRAL.0>
22.5778

>  <SCORE.INTRA.POLAR>
0

>  <SCORE.INTRA.POLAR.0>
0

>  <SCORE.INTRA.REPUL>
0.0541999

>  <SCORE.INTRA.REPUL.0>
0

>  <SCORE.INTRA.SOLV>
1.8905

>  <SCORE.INTRA.SOLV.lig_0>
-102.332

>  <SCORE.INTRA.VDW>
-0.283154

>  <SCORE.INTRA.VDW.0>
-5.08747

>  <SCORE.INTRA.norm>
-0.0912669

>  <SCORE.RESTR>
0

>  <SCORE.RESTR.CAVITY>
0

>  <SCORE.RESTR.norm>
0

>  <SCORE.SYSTEM>
0

>  <SCORE.SYSTEM.CONST>
0

>  <SCORE.SYSTEM.DIHEDRAL>
0

>  <SCORE.SYSTEM.SOLV>
0

>  <SCORE.SYSTEM.norm>
0

>  <SCORE.heavy>
40

>  <SCORE.norm>
-0.466462

>  <RMSD>
2.837

$$$$
2g5q_lig
 OpenBabel11021811433D
libRbt.so/2013.1/901 2013/11/27
 40 42  0  0  0  0  0  0  0  0999 V2000
    1.3148   -7.7189   19.8214 C   0  0  2  0  0  0  0  0  0  0  0  0
    0.9186   -7.1300   18.6025 O   0  0  0  0  0  0  0  0  0  0  0  0
    2.3102   -6.7619   20.5412 C   0  0  1  0  0  0  0  0  0  0  0  0
    3.6537   -6.6253   19.7602 C   0  0  2  0  0  0  0  0  0  0  0  0
    4.2802   -8.0391   19.6434 C   0  0  2  0  0  0  0  0  0  0  0  0
    5.5345   -7.9520   18.9480 O   0  0  0  0  0  0  0  0  0  0  0  0
    3.2621   -8.9704   18.8687 C   0  0  2  0  0  0  0  0  0  0  0  0
    1.9681   -9.0368   19.6063 O   0  0  0  0  0  0  0  0  0  0  0  0
    3.7733  -10.3981   18.7077 C   0  0  0  0  0  0  0  0  0  0  0  0
    5.0766  -10.4486   17.9726 N   0  0  0  0  0  0  0  0  0  0  0  0
   -2.0252   -9.9822   17.0939 C   0  0  2  0  0  0  0  0  0  0  0  0
   -3.0866  -10.5752   16.2891 N   0  0  0  0  0  0  0  0  0  0  0  0
   -2.5403   -8.6516   17.7867 C   0  0  0  0  0  0  0  0  0  0  0  0
   -1.3956   -8.0096   18.6654 C   0  0  2  0  0  0  0  0  0  0  0  0
   -1.8947   -6.7692   19.3182 N   0  0  0  0  0  0  0  0  0  0  0  0
   -0.1360   -7.7153   17.7573 C   0  0  2  0  0  0  0  0  0  0  0  0
    0.3445   -9.0608   17.0823 C   0  0  2  0  0  0  0  0  0  0  0  0
    1.4811   -8.7907   16.2557 O   0  0  0  0  0  0  0  0  0  0  0  0
   -0.8068   -9.6759   16.1985 C   0  0  1  0  0  0  0  0  0  0  0  0
   -0.3657  -10.9213   15.5879 O   0  0  0  0  0  0  0  0  0  0  0  0
   -1.0635  -11.5913   14.5670 C   0  0  2  0  0  0  0  0  0  0  0  0
   -1.1874  -13.0940   14.9911 C   0  0  2  0  0  0  0  0  0  0  0  0
   -1.8808  -13.1818   16.1944 O   0  0  0  0  0  0  0  0  0  0  0  0
    0.2305  -13.7713   15.1072 C   0  0  1  0  0  0  0  0  0  0  0  0
    0.1223  -15.2126   15.5086 N   0  0  0  0  0  0  0  0  0  0  0  0
    0.9631  -13.6312   13.7140 C   0  0  2  0  0  0  0  0  0  0  0  0
    2.2571  -14.2360   13.7552 O   0  0  0  0  0  0  0  0  0  0  0  0
    1.0562  -12.1109   13.3496 C   0  0  2  0  0  0  0  0  0  0  0  0
   -0.3088  -11.4827   13.3058 O   0  0  0  0  0  0  0  0  0  0  0  0
    1.7154  -11.8974   12.0179 C   0  0  0  0  0  0  0  0  0  0  0  0
    3.1124  -12.2305   12.0679 O   0  0  0  0  0  0  0  0  0  0  0  0
    1.6587   -5.4554   20.7044 O   0  0  0  0  0  0  0  0  0  0  0  0
    4.4986   -5.7809   20.4463 O   0  0  0  0  0  0  0  0  0  0  0  0
   -8.7279  -13.2248   15.9485 N   0  0  0  0  0  0  0  0  0  0  0  0
   -4.3117  -11.0105   16.7747 C   0  0  0  0  0  0  0  0  0  0  0  0
   -4.6398  -10.9507   17.9545 O   0  0  0  0  0  0  0  0  0  0  0  0
   -5.2125  -11.5966   15.6632 C   0  0  1  0  0  0  0  0  0  0  0  0
   -6.4979  -12.1846   16.2798 C   0  0  0  0  0  0  0  0  0  0  0  0
   -7.5058  -12.7737   15.2861 C   0  0  0  0  0  0  0  0  0  0  0  0
   -5.5263  -10.5558   14.7105 O   0  0  0  0  0  0  0  0  0  0  0  0
  1  2  1  6  0  0  0
  1  3  1  0  0  0  0
  1  8  1  0  0  0  0
  3  4  1  0  0  0  0
  3 32  1  6  0  0  0
  4  5  1  0  0  0  0
  4 33  1  1  0  0  0
  5  6  1  6  0  0  0
  5  7  1  0  0  0  0
  7  8  1  0  0  0  0
  7  9  1  1  0  0  0
  9 10  1  0  0  0  0
 11 12  1  6  0  0  0
 11 13  1  0  0  0  0
 11 19  1  0  0  0  0
 12 35  1  0  0  0  0
 13 14  1  0  0  0  0
 14 15  1  6  0  0  0
 14 16  1  0  0  0  0
 16  2  1  1  0  0  0
 16 17  1  0  0  0  0
 17 18  1  6  0  0  0
 17 19  1  0  0  0  0
 19 20  1  1  0  0  0
 21 20  1  1  0  0  0
 21 22  1  0  0  0  0
 21 29  1  0  0  0  0
 22 23  1  1  0  0  0
 22 24  1  0  0  0  0
 24 25  1  6  0  0  0
 24 26  1  0  0  0  0
 26 27  1  1  0  0  0
 26 28  1  0  0  0  0
 28 29  1  0  0  0  0
 28 30  1  6  0  0  0
 30 31  1  0  0  0  0
 34 39  1  0  0  0  0
 35 36  2  0  0  0  0
 37 35  1  1  0  0  0
 37 38  1  0  0  0  0
 37 40  1  0  0  0  0
 38 39  1  0  0  0  0
M  END
>  <CHROM.1>
-172.95958034,-58.62125515,-60.62241630,49.92412189,72.14134754,-130.73151140
-69.02240485,174.58851316,178.58658651,-176.17371351,-0.20051058,-10.21828880
16.81308062,0.70439724,0.06164968,0.77981872

>  <Name>
2g5q_lig

>  <RI>
0

>  <Rbt.Current_Directory>
/home/itssahil/PROJECTS/Mol_Feturizer/New_Systems/rnas/2g5q

>  <Rbt.Executable>
rbdock ($Id: //depot/dev/client3/rdock/2013.1/src/exe/rbdock.cxx#4 $)

>  <Rbt.Library>
libRbt.so (2013.1, Build901 2013/11/27)

>  <Rbt.Parameter_File>
/export/apps/rDock/src/rDock_2013.1_src/data/scripts/dock_solv.prm

>  <Rbt.Receptor>
prm/pocket_docking_3.prm

>  <SCORE>
-14.6351

>  <SCORE.INTER>
-9.6647

>  <SCORE.INTER.CONST>
1

>  <SCORE.INTER.POLAR>
-0.145894

>  <SCORE.INTER.ROT>
10

>  <SCORE.INTER.SOLV>
20.0707

>  <SCORE.INTER.VDW>
-22.9137

>  <SCORE.INTER.norm>
-0.241617

>  <SCORE.INTRA>
-4.97043

>  <SCORE.INTRA.DIHEDRAL>
-13.304

>  <SCORE.INTRA.DIHEDRAL.0>
22.5778

>  <SCORE.INTRA.POLAR>
0

>  <SCORE.INTRA.POLAR.0>
0

>  <SCORE.INTRA.REPUL>
0

>  <SCORE.INTRA.REPUL.0>
0

>  <SCORE.INTRA.SOLV>
1.49042

>  <SCORE.INTRA.SOLV.lig_0>
-102.332

>  <SCORE.INTRA.VDW>
0.93637

>  <SCORE.INTRA.VDW.0>
-5.08747

>  <SCORE.INTRA.norm>
-0.124261

>  <SCORE.RESTR>
0

>  <SCORE.RESTR.CAVITY>
0

>  <SCORE.RESTR.norm>
0

>  <SCORE.SYSTEM>
0

>  <SCORE.SYSTEM.CONST>
0

>  <SCORE.SYSTEM.DIHEDRAL>
0

>  <SCORE.SYSTEM.SOLV>
0

>  <SCORE.SYSTEM.norm>
0

>  <SCORE.heavy>
40

>  <SCORE.norm>
-0.365878

>  <RMSD>
2.899

$$$$
2g5q_lig
 OpenBabel11021811433D
libRbt.so/2013.1/901 2013/11/27
 40 42  0  0  0  0  0  0  0  0999 V2000
    2.7200   -8.8541   20.6957 C   0  0  2  0  0  0  0  0  0  0  0  0
    2.5844   -7.9246   19.6436 O   0  0  0  0  0  0  0  0  0  0  0  0
    3.8760   -8.3897   21.6300 C   0  0  1  0  0  0  0  0  0  0  0  0
    5.2621   -8.4558   20.9175 C   0  0  2  0  0  0  0  0  0  0  0  0
    5.5013   -9.9246   20.4809 C   0  0  2  0  0  0  0  0  0  0  0  0
    6.7823  -10.0317   19.8392 O   0  0  0  0  0  0  0  0  0  0  0  0
    4.3344  -10.3465   19.4990 C   0  0  2  0  0  0  0  0  0  0  0  0
    3.0175  -10.2187   20.1863 O   0  0  0  0  0  0  0  0  0  0  0  0
    4.4623  -11.7870   19.0150 C   0  0  0  0  0  0  0  0  0  0  0  0
    3.3702  -12.1580   18.0603 N   0  0  0  0  0  0  0  0  0  0  0  0
   -1.4154   -8.8159   18.1320 C   0  0  2  0  0  0  0  0  0  0  0  0
   -2.6525   -8.7293   17.3653 N   0  0  0  0  0  0  0  0  0  0  0  0
   -1.1983   -7.4898   18.9748 C   0  0  0  0  0  0  0  0  0  0  0  0
    0.1374   -7.5823   19.8126 C   0  0  2  0  0  0  0  0  0  0  0  0
    0.3235   -6.3377   20.6066 N   0  0  0  0  0  0  0  0  0  0  0  0
    1.3558   -7.8300   18.8368 C   0  0  2  0  0  0  0  0  0  0  0  0
    1.1018   -9.1543   18.0132 C   0  0  2  0  0  0  0  0  0  0  0  0
    2.2032   -9.3732   17.1260 O   0  0  0  0  0  0  0  0  0  0  0  0
   -0.2268   -9.0348   17.1732 C   0  0  1  0  0  0  0  0  0  0  0  0
   -0.4647  -10.2605   16.4252 O   0  0  0  0  0  0  0  0  0  0  0  0
   -0.8237  -10.2995   15.0659 C   0  0  2  0  0  0  0  0  0  0  0  0
   -1.2345  -11.7734   14.7310 C   0  0  2  0  0  0  0  0  0  0  0  0
   -2.3098  -12.1493   15.5303 O   0  0  0  0  0  0  0  0  0  0  0  0
   -0.0203  -12.7596   14.9200 C   0  0  1  0  0  0  0  0  0  0  0  0
   -0.4027  -14.1737   14.5971 N   0  0  0  0  0  0  0  0  0  0  0  0
    1.1631  -12.2734   13.9922 C   0  0  2  0  0  0  0  0  0  0  0  0
    2.2952  -13.1367   14.1153 O   0  0  0  0  0  0  0  0  0  0  0  0
    1.5261  -10.7995   14.3775 C   0  0  2  0  0  0  0  0  0  0  0  0
    0.3311   -9.8974   14.2431 O   0  0  0  0  0  0  0  0  0  0  0  0
    2.6269  -10.2540   13.5146 C   0  0  0  0  0  0  0  0  0  0  0  0
    2.3194  -10.4052   12.1191 O   0  0  0  0  0  0  0  0  0  0  0  0
    3.5810   -7.0248   22.0864 O   0  0  0  0  0  0  0  0  0  0  0  0
    6.2461   -8.0483   21.7910 O   0  0  0  0  0  0  0  0  0  0  0  0
   -8.0444   -8.0679   16.2675 N   0  0  0  0  0  0  0  0  0  0  0  0
   -3.9009   -8.4269   17.8909 C   0  0  0  0  0  0  0  0  0  0  0  0
   -4.1067   -8.2028   19.0786 O   0  0  0  0  0  0  0  0  0  0  0  0
   -5.0093   -8.4209   16.8130 C   0  0  1  0  0  0  0  0  0  0  0  0
   -5.8407   -7.1263   16.9171 C   0  0  0  0  0  0  0  0  0  0  0  0
   -7.0518   -7.0340   15.9816 C   0  0  0  0  0  0  0  0  0  0  0  0
   -4.4004   -8.5398   15.5074 O   0  0  0  0  0  0  0  0  0  0  0  0
  1  2  1  6  0  0  0
  1  3  1  0  0  0  0
  1  8  1  0  0  0  0
  3  4  1  0  0  0  0
  3 32  1  6  0  0  0
  4  5  1  0  0  0  0
  4 33  1  1  0  0  0
  5  6  1  6  0  0  0
  5  7  1  0  0  0  0
  7  8  1  0  0  0  0
  7  9  1  1  0  0  0
  9 10  1  0  0  0  0
 11 12  1  6  0  0  0
 11 13  1  0  0  0  0
 11 19  1  0  0  0  0
 12 35  1  0  0  0  0
 13 14  1  0  0  0  0
 14 15  1  6  0  0  0
 14 16  1  0  0  0  0
 16  2  1  1  0  0  0
 16 17  1  0  0  0  0
 17 18  1  6  0  0  0
 17 19  1  0  0  0  0
 19 20  1  1  0  0  0
 21 20  1  1  0  0  0
 21 22  1  0  0  0  0
 21 29  1  0  0  0  0
 22 23  1  1  0  0  0
 22 24  1  0  0  0  0
 24 25  1  6  0  0  0
 24 26  1  0  0  0  0
 26 27  1  1  0  0  0
 26 28  1  0  0  0  0
 28 29  1  0  0  0  0
 28 30  1  6  0  0  0
 30 31  1  0  0  0  0
 34 39  1  0  0  0  0
 35 36  2  0  0  0  0
 37 35  1  1  0  0  0
 37 38  1  0  0  0  0
 37 40  1  0  0  0  0
 38 39  1  0  0  0  0
M  END
>  <CHROM.1>
-160.81435317,-178.54516619,-53.12467730,55.93812032,107.18826933,-169.82149488
52.89511314,-130.38651385,-175.17973134,63.10845399,0.48907125,-9.54217083
17.53895189,0.33608754,-0.28498476,0.96305835

>  <Name>
2g5q_lig

>  <RI>
9.52566e+06

>  <Rbt.Current_Directory>
/home/itssahil/PROJECTS/Mol_Feturizer/New_Systems/rnas/2g5q

>  <Rbt.Executable>
rbdock ($Id: //depot/dev/client3/rdock/2013.1/src/exe/rbdock.cxx#4 $)

>  <Rbt.Library>
libRbt.so (2013.1, Build901 2013/11/27)

>  <Rbt.Parameter_File>
/export/apps/rDock/src/rDock_2013.1_src/data/scripts/dock_solv.prm

>  <Rbt.Receptor>
prm/pocket_docking_4.prm

>  <SCORE>
-15.445

>  <SCORE.INTER>
-11.5725

>  <SCORE.INTER.CONST>
1

>  <SCORE.INTER.POLAR>
-0.916515

>  <SCORE.INTER.ROT>
10

>  <SCORE.INTER.SOLV>
17.2805

>  <SCORE.INTER.VDW>
-20.6868

>  <SCORE.INTER.norm>
-0.289312

>  <SCORE.INTRA>
-3.87254

>  <SCORE.INTRA.DIHEDRAL>
-11.2145

>  <SCORE.INTRA.DIHEDRAL.0>
22.5778

>  <SCORE.INTRA.POLAR>
0

>  <SCORE.INTRA.POLAR.0>
0

>  <SCORE.INTRA.REPUL>
0

>  <SCORE.INTRA.REPUL.0>
0

>  <SCORE.INTRA.SOLV>
3.13594

>  <SCORE.INTRA.SOLV.lig_0>
-102.332

>  <SCORE.INTRA.VDW>
0.166714

>  <SCORE.INTRA.VDW.0>
-5.08747

>  <SCORE.INTRA.norm>
-0.0968136

>  <SCORE.RESTR>
0

>  <SCORE.RESTR.CAVITY>
0

>  <SCORE.RESTR.norm>
0

>  <SCORE.SYSTEM>
0

>  <SCORE.SYSTEM.CONST>
0

>  <SCORE.SYSTEM.DIHEDRAL>
0

>  <SCORE.SYSTEM.SOLV>
0

>  <SCORE.SYSTEM.norm>
0

>  <SCORE.heavy>
40

>  <SCORE.norm>
-0.386126

>  <RMSD>
3.031

$$$$
2g5q_lig
 OpenBabel11021811433D
libRbt.so/2013.1/901 2013/11/27
 40 42  0  0  0  0  0  0  0  0999 V2000
    2.7558   -8.0400   21.1114 C   0  0  2  0  0  0  0  0  0  0  0  0
    2.6710   -7.2277   19.9614 O   0  0  0  0  0  0  0  0  0  0  0  0
    4.0284   -7.6410   21.9152 C   0  0  1  0  0  0  0  0  0  0  0  0
    5.3378   -7.9854   21.1403 C   0  0  2  0  0  0  0  0  0  0  0  0
    5.3445   -9.5135   20.8763 C   0  0  2  0  0  0  0  0  0  0  0  0
    6.5496   -9.8752   20.1824 O   0  0  0  0  0  0  0  0  0  0  0  0
    4.0634   -9.8748   20.0206 C   0  0  2  0  0  0  0  0  0  0  0  0
    2.8290   -9.4824   20.7590 O   0  0  0  0  0  0  0  0  0  0  0  0
    3.9605  -11.3648   19.7123 C   0  0  0  0  0  0  0  0  0  0  0  0
    2.7481  -11.6869   18.8950 N   0  0  0  0  0  0  0  0  0  0  0  0
   -0.9334   -8.7076   17.9877 C   0  0  2  0  0  0  0  0  0  0  0  0
   -2.0925   -8.7838   17.1066 N   0  0  0  0  0  0  0  0  0  0  0  0
   -1.0516   -7.4461   18.9419 C   0  0  0  0  0  0  0  0  0  0  0  0
    0.1988   -7.3637   19.9032 C   0  0  2  0  0  0  0  0  0  0  0  0
    0.0703   -6.1833   20.8000 N   0  0  0  0  0  0  0  0  0  0  0  0
    1.5221   -7.2909   19.0421 C   0  0  2  0  0  0  0  0  0  0  0  0
    1.6023   -8.5593   18.1032 C   0  0  2  0  0  0  0  0  0  0  0  0
    2.7979   -8.4881   17.3200 O   0  0  0  0  0  0  0  0  0  0  0  0
    0.3537   -8.6137   17.1424 C   0  0  1  0  0  0  0  0  0  0  0  0
    0.4239   -9.7894   16.2873 O   0  0  0  0  0  0  0  0  0  0  0  0
    0.7334  -11.0825   16.7458 C   0  0  2  0  0  0  0  0  0  0  0  0
    1.3398  -11.8759   15.5391 C   0  0  2  0  0  0  0  0  0  0  0  0
    2.4873  -11.2307   15.0882 O   0  0  0  0  0  0  0  0  0  0  0  0
    0.2885  -12.0340   14.3762 C   0  0  1  0  0  0  0  0  0  0  0  0
    0.8585  -12.7968   13.2171 N   0  0  0  0  0  0  0  0  0  0  0  0
   -0.9866  -12.7658   14.9559 C   0  0  2  0  0  0  0  0  0  0  0  0
   -1.9769  -12.9451   13.9413 O   0  0  0  0  0  0  0  0  0  0  0  0
   -1.5438  -11.9243   16.1534 C   0  0  2  0  0  0  0  0  0  0  0  0
   -0.4973  -11.7423   17.2171 O   0  0  0  0  0  0  0  0  0  0  0  0
   -2.7433  -12.5744   16.7796 C   0  0  0  0  0  0  0  0  0  0  0  0
   -3.2013  -11.8334   17.9224 O   0  0  0  0  0  0  0  0  0  0  0  0
    3.9540   -6.2047   22.2148 O   0  0  0  0  0  0  0  0  0  0  0  0
    6.4283   -7.6247   21.9006 O   0  0  0  0  0  0  0  0  0  0  0  0
   -7.2147  -11.4968   15.6688 N   0  0  0  0  0  0  0  0  0  0  0  0
   -3.4158   -8.8092   17.5244 C   0  0  0  0  0  0  0  0  0  0  0  0
   -3.7623   -8.7773   18.7000 O   0  0  0  0  0  0  0  0  0  0  0  0
   -4.4066   -8.8997   16.3409 C   0  0  1  0  0  0  0  0  0  0  0  0
   -5.3105  -10.1387   16.5021 C   0  0  0  0  0  0  0  0  0  0  0  0
   -6.3199  -10.3796   15.3736 C   0  0  0  0  0  0  0  0  0  0  0  0
   -5.1945   -7.6889   16.2898 O   0  0  0  0  0  0  0  0  0  0  0  0
  1  2  1  6  0  0  0
  1  3  1  0  0  0  0
  1  8  1  0  0  0  0
  3  4  1  0  0  0  0
  3 32  1  6  0  0  0
  4  5  1  0  0  0  0
  4 33  1  1  0  0  0
  5  6  1  6  0  0  0
  5  7  1  0  0  0  0
  7  8  1  0  0  0  0
  7  9  1  1  0  0  0
  9 10  1  0  0  0  0
 11 12  1  6  0  0  0
 11 13  1  0  0  0  0
 11 19  1  0  0  0  0
 12 35  1  0  0  0  0
 13 14  1  0  0  0  0
 14 15  1  6  0  0  0
 14 16  1  0  0  0  0
 16  2  1  1  0  0  0
 16 17  1  0  0  0  0
 17 18  1  6  0  0  0
 17 19  1  0  0  0  0
 19 20  1  6  0  0  0
 21 20  1  6  0  0  0
 21 22  1  0  0  0  0
 21 29  1  0  0  0  0
 22 23  1  6  0  0  0
 22 24  1  0  0  0  0
 24 25  1  6  0  0  0
 24 26  1  0  0  0  0
 26 27  1  6  0  0  0
 26 28  1  0  0  0  0
 28 29  1  0  0  0  0
 28 30  1  1  0  0  0
 30 31  1  0  0  0  0
 34 39  1  0  0  0  0
 35 36  2  0  0  0  0
 37 35  1  1  0  0  0
 37 38  1  0  0  0  0
 37 40  1  0  0  0  0
 38 39  1  0  0  0  0
M  END
>  <CHROM.1>
-175.40977857,-179.62696985,-55.20900030,43.04740566,-73.22826118,-154.44667116
176.79020057,123.10043043,-178.24833286,-174.64320082,0.33753069,-9.66633643
18.00062918,0.55270502,-0.22168052,0.76305768

>  <Name>
2g5q_lig

>  <RI>
0

>  <Rbt.Current_Directory>
/home/itssahil/PROJECTS/Mol_Feturizer/New_Systems/rnas/2g5q

>  <Rbt.Executable>
rbdock ($Id: //depot/dev/client3/rdock/2013.1/src/exe/rbdock.cxx#4 $)

>  <Rbt.Library>
libRbt.so (2013.1, Build901 2013/11/27)

>  <Rbt.Parameter_File>
/export/apps/rDock/src/rDock_2013.1_src/data/scripts/dock_solv.prm

>  <Rbt.Receptor>
prm/pocket_docking_3.prm

>  <SCORE>
-5.30454

>  <SCORE.INTER>
0.696736

>  <SCORE.INTER.CONST>
1

>  <SCORE.INTER.POLAR>
0

>  <SCORE.INTER.ROT>
10

>  <SCORE.INTER.SOLV>
18.4678

>  <SCORE.INTER.VDW>
-15.9581

>  <SCORE.INTER.norm>
0.0174184

>  <SCORE.INTRA>
-6.08819

>  <SCORE.INTRA.DIHEDRAL>
-14.924

>  <SCORE.INTRA.DIHEDRAL.0>
22.5778

>  <SCORE.INTRA.POLAR>
0

>  <SCORE.INTRA.POLAR.0>
0

>  <SCORE.INTRA.REPUL>
0

>  <SCORE.INTRA.REPUL.0>
0

>  <SCORE.INTRA.SOLV>
5.35335

>  <SCORE.INTRA.SOLV.lig_0>
-102.332

>  <SCORE.INTRA.VDW>
-1.30284

>  <SCORE.INTRA.VDW.0>
-5.08747

>  <SCORE.INTRA.norm>
-0.152205

>  <SCORE.RESTR>
0.086915

>  <SCORE.RESTR.CAVITY>
0.086915

>  <SCORE.RESTR.norm>
0.00217287

>  <SCORE.SYSTEM>
0

>  <SCORE.SYSTEM.CONST>
0

>  <SCORE.SYSTEM.DIHEDRAL>
0

>  <SCORE.SYSTEM.SOLV>
0

>  <SCORE.SYSTEM.norm>
0

>  <SCORE.heavy>
40

>  <SCORE.norm>
-0.132613

>  <RMSD>
3.497

$$$$
2g5q_lig
 OpenBabel11021811433D
libRbt.so/2013.1/901 2013/11/27
 40 42  0  0  0  0  0  0  0  0999 V2000
    4.7339   -7.0255   20.4203 C   0  0  2  0  0  0  0  0  0  0  0  0
    3.5260   -7.7356   20.5820 O   0  0  0  0  0  0  0  0  0  0  0  0
    5.4821   -6.9901   21.7855 C   0  0  1  0  0  0  0  0  0  0  0  0
    4.7137   -6.1455   22.8484 C   0  0  2  0  0  0  0  0  0  0  0  0
    4.5691   -4.7043   22.2945 C   0  0  2  0  0  0  0  0  0  0  0  0
    3.8846   -3.8867   23.2575 O   0  0  0  0  0  0  0  0  0  0  0  0
    3.7663   -4.7744   20.9326 C   0  0  2  0  0  0  0  0  0  0  0  0
    4.4934   -5.6341   19.9552 O   0  0  0  0  0  0  0  0  0  0  0  0
    3.5765   -3.4053   20.2883 C   0  0  0  0  0  0  0  0  0  0  0  0
    2.7540   -2.4915   21.1427 N   0  0  0  0  0  0  0  0  0  0  0  0
    2.1593   -9.9864   17.0973 C   0  0  2  0  0  0  0  0  0  0  0  0
    1.3455  -10.4270   15.9706 N   0  0  0  0  0  0  0  0  0  0  0  0
    1.3339  -10.0983   18.4471 C   0  0  0  0  0  0  0  0  0  0  0  0
    2.2144   -9.6287   19.6714 C   0  0  2  0  0  0  0  0  0  0  0  0
    1.4329   -9.7490   20.9319 N   0  0  0  0  0  0  0  0  0  0  0  0
    2.6984   -8.1431   19.4339 C   0  0  2  0  0  0  0  0  0  0  0  0
    3.5114   -8.0709   18.0808 C   0  0  2  0  0  0  0  0  0  0  0  0
    3.9432   -6.7237   17.8647 O   0  0  0  0  0  0  0  0  0  0  0  0
    2.6101   -8.5285   16.8711 C   0  0  1  0  0  0  0  0  0  0  0  0
    3.3650   -8.4728   15.6280 O   0  0  0  0  0  0  0  0  0  0  0  0
    4.6110   -9.0949   15.4317 C   0  0  2  0  0  0  0  0  0  0  0  0
    5.2416   -8.4840   14.1347 C   0  0  2  0  0  0  0  0  0  0  0  0
    5.4023   -7.1114   14.2980 O   0  0  0  0  0  0  0  0  0  0  0  0
    4.3587   -8.8012   12.8687 C   0  0  1  0  0  0  0  0  0  0  0  0
    4.9570   -8.2239   11.6201 N   0  0  0  0  0  0  0  0  0  0  0  0
    4.2122  -10.3699   12.7463 C   0  0  2  0  0  0  0  0  0  0  0  0
    3.4241  -10.7210   11.6071 O   0  0  0  0  0  0  0  0  0  0  0  0
    3.5765  -10.9166   14.0691 C   0  0  2  0  0  0  0  0  0  0  0  0
    4.4124  -10.5454   15.2621 O   0  0  0  0  0  0  0  0  0  0  0  0
    3.4333  -12.4107   14.0414 C   0  0  0  0  0  0  0  0  0  0  0  0
    4.7151  -13.0565   13.9713 O   0  0  0  0  0  0  0  0  0  0  0  0
    5.6705   -8.3727   22.2449 O   0  0  0  0  0  0  0  0  0  0  0  0
    5.4246   -6.1374   24.0282 O   0  0  0  0  0  0  0  0  0  0  0  0
   -2.4772  -13.3531   16.2264 N   0  0  0  0  0  0  0  0  0  0  0  0
    0.1210   -9.8845   15.6066 C   0  0  0  0  0  0  0  0  0  0  0  0
   -0.4248   -8.9648   16.2063 O   0  0  0  0  0  0  0  0  0  0  0  0
   -0.4886  -10.5815   14.3685 C   0  0  1  0  0  0  0  0  0  0  0  0
   -1.0274  -11.9732   14.7572 C   0  0  0  0  0  0  0  0  0  0  0  0
   -2.0995  -11.9916   15.8529 C   0  0  0  0  0  0  0  0  0  0  0  0
   -1.5425   -9.7520   13.8295 O   0  0  0  0  0  0  0  0  0  0  0  0
  1  2  1  1  0  0  0
  1  3  1  0  0  0  0
  1  8  1  0  0  0  0
  3  4  1  0  0  0  0
  3 32  1  1  0  0  0
  4  5  1  0  0  0  0
  4 33  1  1  0  0  0
  5  6  1  1  0  0  0
  5  7  1  0  0  0  0
  7  8  1  0  0  0  0
  7  9  1  6  0  0  0
  9 10  1  0  0  0  0
 11 12  1  6  0  0  0
 11 13  1  0  0  0  0
 11 19  1  0  0  0  0
 12 35  1  0  0  0  0
 13 14  1  0  0  0  0
 14 15  1  1  0  0  0
 14 16  1  0  0  0  0
 16  2  1  1  0  0  0
 16 17  1  0  0  0  0
 17 18  1  6  0  0  0
 17 19  1  0  0  0  0
 19 20  1  6  0  0  0
 21 20  1  6  0  0  0
 21 22  1  0  0  0  0
 21 29  1  0  0  0  0
 22 23  1  1  0  0  0
 22 24  1  0  0  0  0
 24 25  1  6  0  0  0
 24 26  1  0  0  0  0
 26 27  1  6  0  0  0
 26 28  1  0  0  0  0
 28 29  1  0  0  0  0
 28 30  1  6  0  0  0
 30 31  1  0  0  0  0
 34 39  1  0  0  0  0
 35 36  2  0  0  0  0
 37 35  1  1  0  0  0
 37 38  1  0  0  0  0
 37 40  1  0  0  0  0
 38 39  1  0  0  0  0
M  END
>  <CHROM.1>
-169.44731037,-63.24791030,57.83134227,136.72420676,-66.40503882,-165.08690675
63.88662071,73.85993888,58.61928005,-175.69519454,2.95922022,-8.57302953
17.42359436,-1.27254116,-0.51916123,-2.01597098

>  <Name>
2g5q_lig

>  <RI>
2.90231e+07

>  <Rbt.Current_Directory>
/home/itssahil/PROJECTS/Mol_Feturizer/New_Systems/rnas/2g5q

>  <Rbt.Executable>
rbdock ($Id: //depot/dev/client3/rdock/2013.1/src/exe/rbdock.cxx#4 $)

>  <Rbt.Library>
libRbt.so (2013.1, Build901 2013/11/27)

>  <Rbt.Parameter_File>
/export/apps/rDock/src/rDock_2013.1_src/data/scripts/dock_solv.prm

>  <Rbt.Receptor>
prm/pocket_docking_6.prm

>  <SCORE>
-22.5569

>  <SCORE.INTER>
-18.7465

>  <SCORE.INTER.CONST>
1

>  <SCORE.INTER.POLAR>
-2.18844

>  <SCORE.INTER.ROT>
10

>  <SCORE.INTER.SOLV>
21.4971

>  <SCORE.INTER.VDW>
-22.6352

>  <SCORE.INTER.norm>
-0.468664

>  <SCORE.INTRA>
-3.81039

>  <SCORE.INTRA.DIHEDRAL>
-13.6813

>  <SCORE.INTRA.DIHEDRAL.0>
22.5778

>  <SCORE.INTRA.POLAR>
0

>  <SCORE.INTRA.POLAR.0>
0

>  <SCORE.INTRA.REPUL>
0

>  <SCORE.INTRA.REPUL.0>
0

>  <SCORE.INTRA.SOLV>
1.05409

>  <SCORE.INTRA.SOLV.lig_0>
-102.332

>  <SCORE.INTRA.VDW>
2.50319

>  <SCORE.INTRA.VDW.0>
-5.08747

>  <SCORE.INTRA.norm>
-0.0952598

>  <SCORE.RESTR>
0

>  <SCORE.RESTR.CAVITY>
0

>  <SCORE.RESTR.norm>
0

>  <SCORE.SYSTEM>
0

>  <SCORE.SYSTEM.CONST>
0

>  <SCORE.SYSTEM.DIHEDRAL>
0

>  <SCORE.SYSTEM.SOLV>
0

>  <SCORE.SYSTEM.norm>
0

>  <SCORE.heavy>
40

>  <SCORE.norm>
-0.563923

>  <RMSD>
3.819

$$$$
2g5q_lig
 OpenBabel11021811433D
libRbt.so/2013.1/901 2013/11/27
 40 42  0  0  0  0  0  0  0  0999 V2000
    2.8425   -9.1664   21.0107 C   0  0  2  0  0  0  0  0  0  0  0  0
    2.9062   -8.9233   19.6228 O   0  0  0  0  0  0  0  0  0  0  0  0
    3.7547   -8.1385   21.7428 C   0  0  1  0  0  0  0  0  0  0  0  0
    5.2631   -8.3605   21.4128 C   0  0  2  0  0  0  0  0  0  0  0  0
    5.6383   -9.7991   21.8541 C   0  0  2  0  0  0  0  0  0  0  0  0
    7.0302  -10.0352   21.5870 O   0  0  0  0  0  0  0  0  0  0  0  0
    4.7243  -10.8165   21.0581 C   0  0  2  0  0  0  0  0  0  0  0  0
    3.2869  -10.5448   21.3464 O   0  0  0  0  0  0  0  0  0  0  0  0
    5.0001  -12.2704   21.4264 C   0  0  0  0  0  0  0  0  0  0  0  0
    4.1627  -13.2207   20.6281 N   0  0  0  0  0  0  0  0  0  0  0  0
   -1.3075   -8.8919   18.4735 C   0  0  2  0  0  0  0  0  0  0  0  0
   -2.5160   -8.8528   17.6588 N   0  0  0  0  0  0  0  0  0  0  0  0
   -0.4447   -7.5819   18.2381 C   0  0  0  0  0  0  0  0  0  0  0  0
    0.8622   -7.6167   19.1244 C   0  0  2  0  0  0  0  0  0  0  0  0
    1.6566   -6.3782   18.9029 N   0  0  0  0  0  0  0  0  0  0  0  0
    1.7020   -8.9093   18.7750 C   0  0  2  0  0  0  0  0  0  0  0  0
    0.8096  -10.1907   19.0172 C   0  0  2  0  0  0  0  0  0  0  0  0
    1.5699  -11.3593   18.6942 O   0  0  0  0  0  0  0  0  0  0  0  0
   -0.4804  -10.1431   18.1125 C   0  0  1  0  0  0  0  0  0  0  0  0
   -1.3065  -11.3183   18.3466 O   0  0  0  0  0  0  0  0  0  0  0  0
   -2.3965  -11.6914   17.5399 C   0  0  2  0  0  0  0  0  0  0  0  0
   -2.9792  -13.0225   18.1245 C   0  0  2  0  0  0  0  0  0  0  0  0
   -3.3930  -12.8122   19.4364 O   0  0  0  0  0  0  0  0  0  0  0  0
   -1.9226  -14.1887   18.0470 C   0  0  1  0  0  0  0  0  0  0  0  0
   -2.4731  -15.4697   18.6006 N   0  0  0  0  0  0  0  0  0  0  0  0
   -1.4930  -14.3698   16.5371 C   0  0  2  0  0  0  0  0  0  0  0  0
   -0.5370  -15.4233   16.4018 O   0  0  0  0  0  0  0  0  0  0  0  0
   -0.9192  -13.0094   16.0148 C   0  0  2  0  0  0  0  0  0  0  0  0
   -1.9314  -11.9072   16.1581 O   0  0  0  0  0  0  0  0  0  0  0  0
   -0.5161  -13.0932   14.5711 C   0  0  0  0  0  0  0  0  0  0  0  0
   -1.6575  -13.2940   13.7215 O   0  0  0  0  0  0  0  0  0  0  0  0
    3.3242   -6.7862   21.3630 O   0  0  0  0  0  0  0  0  0  0  0  0
    6.0223   -7.4356   22.0950 O   0  0  0  0  0  0  0  0  0  0  0  0
   -7.5155   -9.2899   15.9633 N   0  0  0  0  0  0  0  0  0  0  0  0
   -3.6185   -8.0449   17.8997 C   0  0  0  0  0  0  0  0  0  0  0  0
   -3.7030   -7.2673   18.8439 O   0  0  0  0  0  0  0  0  0  0  0  0
   -4.7383   -8.2471   16.8530 C   0  0  1  0  0  0  0  0  0  0  0  0
   -5.2553   -9.6991   16.9059 C   0  0  0  0  0  0  0  0  0  0  0  0
   -6.2909  -10.0779   15.8408 C   0  0  0  0  0  0  0  0  0  0  0  0
   -5.8062   -7.3090   17.1153 O   0  0  0  0  0  0  0  0  0  0  0  0
  1  2  1  6  0  0  0
  1  3  1  0  0  0  0
  1  8  1  0  0  0  0
  3  4  1  0  0  0  0
  3 32  1  6  0  0  0
  4  5  1  0  0  0  0
  4 33  1  1  0  0  0
  5  6  1  6  0  0  0
  5  7  1  0  0  0  0
  7  8  1  0  0  0  0
  7  9  1  1  0  0  0
  9 10  1  0  0  0  0
 11 12  1  6  0  0  0
 11 13  1  0  0  0  0
 11 19  1  0  0  0  0
 12 35  1  0  0  0  0
 13 14  1  0  0  0  0
 14 15  1  6  0  0  0
 14 16  1  0  0  0  0
 16  2  1  1  0  0  0
 16 17  1  0  0  0  0
 17 18  1  6  0  0  0
 17 19  1  0  0  0  0
 19 20  1  1  0  0  0
 21 20  1  1  0  0  0
 21 22  1  0  0  0  0
 21 29  1  0  0  0  0
 22 23  1  1  0  0  0
 22 24  1  0  0  0  0
 24 25  1  6  0  0  0
 24 26  1  0  0  0  0
 26 27  1  1  0  0  0
 26 28  1  0  0  0  0
 28 29  1  0  0  0  0
 28 30  1  6  0  0  0
 30 31  1  0  0  0  0
 34 39  1  0  0  0  0
 35 36  2  0  0  0  0
 37 35  1  1  0  0  0
 37 38  1  0  0  0  0
 37 40  1  0  0  0  0
 38 39  1  0  0  0  0
M  END
>  <CHROM.1>
-135.50510194,-177.89670163,-73.12411697,70.54457945,72.06673373,178.76037041
66.16706790,62.07747740,-175.12449145,-62.38625264,-0.04866023,-10.37953505
18.62817041,0.28488520,-0.42559941,0.27643986

>  <Name>
2g5q_lig

>  <RI>
2.90231e+07

>  <Rbt.Current_Directory>
/home/itssahil/PROJECTS/Mol_Feturizer/New_Systems/rnas/2g5q

>  <Rbt.Executable>
rbdock ($Id: //depot/dev/client3/rdock/2013.1/src/exe/rbdock.cxx#4 $)

>  <Rbt.Library>
libRbt.so (2013.1, Build901 2013/11/27)

>  <Rbt.Parameter_File>
/export/apps/rDock/src/rDock_2013.1_src/data/scripts/dock_solv.prm

>  <Rbt.Receptor>
prm/pocket_docking_6.prm

>  <SCORE>
-11.3199

>  <SCORE.INTER>
-5.57761

>  <SCORE.INTER.CONST>
1

>  <SCORE.INTER.POLAR>
0

>  <SCORE.INTER.ROT>
10

>  <SCORE.INTER.SOLV>
14.9547

>  <SCORE.INTER.VDW>
-18.97

>  <SCORE.INTER.norm>
-0.13944

>  <SCORE.INTRA>
-5.74233

>  <SCORE.INTRA.DIHEDRAL>
-14.0417

>  <SCORE.INTRA.DIHEDRAL.0>
22.5778

>  <SCORE.INTRA.POLAR>
0

>  <SCORE.INTRA.POLAR.0>
0

>  <SCORE.INTRA.REPUL>
0

>  <SCORE.INTRA.REPUL.0>
0

>  <SCORE.INTRA.SOLV>
2.54861

>  <SCORE.INTRA.SOLV.lig_0>
-102.332

>  <SCORE.INTRA.VDW>
0.00421158

>  <SCORE.INTRA.VDW.0>
-5.08747

>  <SCORE.INTRA.norm>
-0.143558

>  <SCORE.RESTR>
0

>  <SCORE.RESTR.CAVITY>
0

>  <SCORE.RESTR.norm>
0

>  <SCORE.SYSTEM>
0

>  <SCORE.SYSTEM.CONST>
0

>  <SCORE.SYSTEM.DIHEDRAL>
0

>  <SCORE.SYSTEM.SOLV>
0

>  <SCORE.SYSTEM.norm>
0

>  <SCORE.heavy>
40

>  <SCORE.norm>
-0.282999

>  <RMSD>
3.948

$$$$
2g5q_lig
 OpenBabel11021811433D
libRbt.so/2013.1/901 2013/11/27
 40 42  0  0  0  0  0  0  0  0999 V2000
    5.6434   -8.5385   17.7890 C   0  0  2  0  0  0  0  0  0  0  0  0
    4.5918   -9.3571   17.3269 O   0  0  0  0  0  0  0  0  0  0  0  0
    6.9224   -8.8463   16.9559 C   0  0  1  0  0  0  0  0  0  0  0  0
    7.4545  -10.2891   17.2182 C   0  0  2  0  0  0  0  0  0  0  0  0
    7.7751  -10.4085   18.7308 C   0  0  2  0  0  0  0  0  0  0  0  0
    8.2913  -11.7200   19.0097 O   0  0  0  0  0  0  0  0  0  0  0  0
    6.4449  -10.1345   19.5430 C   0  0  2  0  0  0  0  0  0  0  0  0
    5.9269   -8.7720   19.2296 O   0  0  0  0  0  0  0  0  0  0  0  0
    6.6483  -10.2129   21.0523 C   0  0  0  0  0  0  0  0  0  0  0  0
    6.7344  -11.6276   21.5348 N   0  0  0  0  0  0  0  0  0  0  0  0
    0.3353   -8.5699   17.9102 C   0  0  2  0  0  0  0  0  0  0  0  0
   -1.0102   -8.0426   17.7174 N   0  0  0  0  0  0  0  0  0  0  0  0
    1.3650   -7.3822   18.1221 C   0  0  0  0  0  0  0  0  0  0  0  0
    2.8230   -7.9494   18.3385 C   0  0  2  0  0  0  0  0  0  0  0  0
    3.7767   -6.8265   18.5471 N   0  0  0  0  0  0  0  0  0  0  0  0
    3.2359   -8.8315   17.0937 C   0  0  2  0  0  0  0  0  0  0  0  0
    2.1866   -9.9990   16.9125 C   0  0  2  0  0  0  0  0  0  0  0  0
    2.5589  -10.7925   15.7812 O   0  0  0  0  0  0  0  0  0  0  0  0
    0.7421   -9.4111   16.6826 C   0  0  1  0  0  0  0  0  0  0  0  0
   -0.2242  -10.4885   16.5283 O   0  0  0  0  0  0  0  0  0  0  0  0
   -0.6104  -11.0322   15.2900 C   0  0  2  0  0  0  0  0  0  0  0  0
   -2.0034  -11.7190   15.4929 C   0  0  2  0  0  0  0  0  0  0  0  0
   -2.9302  -10.7732   15.9205 O   0  0  0  0  0  0  0  0  0  0  0  0
   -1.9053  -12.9140   16.5152 C   0  0  1  0  0  0  0  0  0  0  0  0
   -3.2341  -13.5815   16.7128 N   0  0  0  0  0  0  0  0  0  0  0  0
   -0.8359  -13.9438   15.9737 C   0  0  2  0  0  0  0  0  0  0  0  0
   -0.7076  -15.0583   16.8589 O   0  0  0  0  0  0  0  0  0  0  0  0
    0.5295  -13.1981   15.7950 C   0  0  2  0  0  0  0  0  0  0  0  0
    0.3868  -12.0290   14.8608 O   0  0  0  0  0  0  0  0  0  0  0  0
    1.5931  -14.1075   15.2516 C   0  0  0  0  0  0  0  0  0  0  0  0
    1.8693  -15.1876   16.1583 O   0  0  0  0  0  0  0  0  0  0  0  0
    6.6062   -8.6500   15.5347 O   0  0  0  0  0  0  0  0  0  0  0  0
    8.5903  -10.5019   16.4685 O   0  0  0  0  0  0  0  0  0  0  0  0
   -5.7428   -8.2601   19.9242 N   0  0  0  0  0  0  0  0  0  0  0  0
   -1.8493   -7.5990   18.7300 C   0  0  0  0  0  0  0  0  0  0  0  0
   -1.5502   -7.6086   19.9191 O   0  0  0  0  0  0  0  0  0  0  0  0
   -3.2129   -7.1064   18.1932 C   0  0  1  0  0  0  0  0  0  0  0  0
   -4.1693   -8.3012   18.0040 C   0  0  0  0  0  0  0  0  0  0  0  0
   -4.6440   -8.9863   19.2907 C   0  0  0  0  0  0  0  0  0  0  0  0
   -3.7661   -6.1439   19.1188 O   0  0  0  0  0  0  0  0  0  0  0  0
  1  2  1  6  0  0  0
  1  3  1  0  0  0  0
  1  8  1  0  0  0  0
  3  4  1  0  0  0  0
  3 32  1  6  0  0  0
  4  5  1  0  0  0  0
  4 33  1  6  0  0  0
  5  6  1  6  0  0  0
  5  7  1  0  0  0  0
  7  8  1  0  0  0  0
  7  9  1  1  0  0  0
  9 10  1  0  0  0  0
 11 12  1  6  0  0  0
 11 13  1  0  0  0  0
 11 19  1  0  0  0  0
 12 35  1  0  0  0  0
 13 14  1  0  0  0  0
 14 15  1  6  0  0  0
 14 16  1  0  0  0  0
 16  2  1  1  0  0  0
 16 17  1  0  0  0  0
 17 18  1  6  0  0  0
 17 19  1  0  0  0  0
 19 20  1  1  0  0  0
 21 20  1  1  0  0  0
 21 22  1  0  0  0  0
 21 29  1  0  0  0  0
 22 23  1  1  0  0  0
 22 24  1  0  0  0  0
 24 25  1  6  0  0  0
 24 26  1  0  0  0  0
 26 27  1  1  0  0  0
 26 28  1  0  0  0  0
 28 29  1  0  0  0  0
 28 30  1  6  0  0  0
 30 31  1  0  0  0  0
 34 39  1  0  0  0  0
 35 36  2  0  0  0  0
 37 35  1  1  0  0  0
 37 38  1  0  0  0  0
 37 40  1  0  0  0  0
 38 39  1  0  0  0  0
M  END
>  <CHROM.1>
-135.36917698,-77.03360203,-79.17438754,-46.41070742,147.56192227,-158.22816042
-62.69868247,83.85097527,68.50639532,80.69482191,1.64126979,-10.14895506
17.53891343,0.00063652,-0.06164048,0.46505288

>  <Name>
2g5q_lig

>  <RI>
2.90231e+07

>  <Rbt.Current_Directory>
/home/itssahil/PROJECTS/Mol_Feturizer/New_Systems/rnas/2g5q

>  <Rbt.Executable>
rbdock ($Id: //depot/dev/client3/rdock/2013.1/src/exe/rbdock.cxx#4 $)

>  <Rbt.Library>
libRbt.so (2013.1, Build901 2013/11/27)

>  <Rbt.Parameter_File>
/export/apps/rDock/src/rDock_2013.1_src/data/scripts/dock_solv.prm

>  <Rbt.Receptor>
prm/pocket_docking_6.prm

>  <SCORE>
-12.67

>  <SCORE.INTER>
-13.2558

>  <SCORE.INTER.CONST>
1

>  <SCORE.INTER.POLAR>
-1.49438

>  <SCORE.INTER.ROT>
10

>  <SCORE.INTER.SOLV>
19.3528

>  <SCORE.INTER.VDW>
-20.5735

>  <SCORE.INTER.norm>
-0.331394

>  <SCORE.INTRA>
0.585815

>  <SCORE.INTRA.DIHEDRAL>
-5.06343

>  <SCORE.INTRA.DIHEDRAL.0>
22.5778

>  <SCORE.INTRA.POLAR>
0

>  <SCORE.INTRA.POLAR.0>
0

>  <SCORE.INTRA.REPUL>
0

>  <SCORE.INTRA.REPUL.0>
0

>  <SCORE.INTRA.SOLV>
3.86938

>  <SCORE.INTRA.SOLV.lig_0>
-102.332

>  <SCORE.INTRA.VDW>
1.18284

>  <SCORE.INTRA.VDW.0>
-5.08747

>  <SCORE.INTRA.norm>
0.0146454

>  <SCORE.RESTR>
0

>  <SCORE.RESTR.CAVITY>
0

>  <SCORE.RESTR.norm>
0

>  <SCORE.SYSTEM>
0

>  <SCORE.SYSTEM.CONST>
0

>  <SCORE.SYSTEM.DIHEDRAL>
0

>  <SCORE.SYSTEM.SOLV>
0

>  <SCORE.SYSTEM.norm>
0

>  <SCORE.heavy>
40

>  <SCORE.norm>
-0.316749

>  <RMSD>
4.476

$$$$
2g5q_lig
 OpenBabel11021811433D
libRbt.so/2013.1/901 2013/11/27
 40 42  0  0  0  0  0  0  0  0999 V2000
    4.9240   -7.0342   20.4957 C   0  0  2  0  0  0  0  0  0  0  0  0
    3.7373   -7.7923   20.5774 O   0  0  0  0  0  0  0  0  0  0  0  0
    5.5675   -6.9550   21.9114 C   0  0  1  0  0  0  0  0  0  0  0  0
    4.6892   -6.1330   22.9046 C   0  0  2  0  0  0  0  0  0  0  0  0
    4.5272   -4.7042   22.3237 C   0  0  2  0  0  0  0  0  0  0  0  0
    3.7409   -3.9067   23.2237 O   0  0  0  0  0  0  0  0  0  0  0  0
    3.8305   -4.8205   20.9076 C   0  0  2  0  0  0  0  0  0  0  0  0
    4.6619   -5.6585   19.9969 O   0  0  0  0  0  0  0  0  0  0  0  0
    3.6331   -3.4666   20.2341 C   0  0  0  0  0  0  0  0  0  0  0  0
    2.6972   -2.5874   21.0040 N   0  0  0  0  0  0  0  0  0  0  0  0
    2.2224  -10.1282   17.2120 C   0  0  2  0  0  0  0  0  0  0  0  0
    1.4441  -10.5214   16.0435 N   0  0  0  0  0  0  0  0  0  0  0  0
    1.2624   -9.8602   18.4458 C   0  0  0  0  0  0  0  0  0  0  0  0
    2.1022   -9.4409   19.7160 C   0  0  2  0  0  0  0  0  0  0  0  0
    1.1915   -9.2035   20.8685 N   0  0  0  0  0  0  0  0  0  0  0  0
    2.9560   -8.1534   19.3823 C   0  0  2  0  0  0  0  0  0  0  0  0
    3.8946   -8.4572   18.1480 C   0  0  2  0  0  0  0  0  0  0  0  0
    4.6620   -7.2882   17.8437 O   0  0  0  0  0  0  0  0  0  0  0  0
    3.0362   -8.8582   16.8882 C   0  0  1  0  0  0  0  0  0  0  0  0
    3.9037   -9.1494   15.7564 O   0  0  0  0  0  0  0  0  0  0  0  0
    4.7890   -8.2209   15.1799 C   0  0  2  0  0  0  0  0  0  0  0  0
    4.9441   -8.5967   13.6673 C   0  0  2  0  0  0  0  0  0  0  0  0
    3.7014   -8.5376   13.0439 O   0  0  0  0  0  0  0  0  0  0  0  0
    5.5917  -10.0232   13.4989 C   0  0  1  0  0  0  0  0  0  0  0  0
    5.7487  -10.3905   12.0530 N   0  0  0  0  0  0  0  0  0  0  0  0
    6.9916  -10.0224   14.2321 C   0  0  2  0  0  0  0  0  0  0  0  0
    7.6333  -11.2931   14.1071 O   0  0  0  0  0  0  0  0  0  0  0  0
    6.7679   -9.6425   15.7348 C   0  0  2  0  0  0  0  0  0  0  0  0
    6.0950   -8.3039   15.8578 O   0  0  0  0  0  0  0  0  0  0  0  0
    8.0620   -9.5902   16.4939 C   0  0  0  0  0  0  0  0  0  0  0  0
    7.8332   -9.4622   17.9068 O   0  0  0  0  0  0  0  0  0  0  0  0
    5.7777   -8.3242   22.4006 O   0  0  0  0  0  0  0  0  0  0  0  0
    5.3103   -6.0842   24.1331 O   0  0  0  0  0  0  0  0  0  0  0  0
    2.4405  -13.2136   13.0432 N   0  0  0  0  0  0  0  0  0  0  0  0
    0.6958   -9.6604   15.2530 C   0  0  0  0  0  0  0  0  0  0  0  0
    0.5985   -8.4554   15.4572 O   0  0  0  0  0  0  0  0  0  0  0  0
   -0.0174  -10.3936   14.0935 C   0  0  1  0  0  0  0  0  0  0  0  0
    1.0065  -11.1993   13.2685 C   0  0  0  0  0  0  0  0  0  0  0  0
    1.5067  -12.4985   13.9106 C   0  0  0  0  0  0  0  0  0  0  0  0
   -1.0380  -11.2602   14.6383 O   0  0  0  0  0  0  0  0  0  0  0  0
  1  2  1  1  0  0  0
  1  3  1  0  0  0  0
  1  8  1  0  0  0  0
  3  4  1  0  0  0  0
  3 32  1  1  0  0  0
  4  5  1  0  0  0  0
  4 33  1  1  0  0  0
  5  6  1  1  0  0  0
  5  7  1  0  0  0  0
  7  8  1  0  0  0  0
  7  9  1  6  0  0  0
  9 10  1  0  0  0  0
 11 12  1  6  0  0  0
 11 13  1  0  0  0  0
 11 19  1  0  0  0  0
 12 35  1  0  0  0  0
 13 14  1  0  0  0  0
 14 15  1  1  0  0  0
 14 16  1  0  0  0  0
 16  2  1  1  0  0  0
 16 17  1  0  0  0  0
 17 18  1  6  0  0  0
 17 19  1  0  0  0  0
 19 20  1  6  0  0  0
 21 20  1  1  0  0  0
 21 22  1  0  0  0  0
 21 29  1  0  0  0  0
 22 23  1  1  0  0  0
 22 24  1  0  0  0  0
 24 25  1  6  0  0  0
 24 26  1  0  0  0  0
 26 27  1  1  0  0  0
 26 28  1  0  0  0  0
 28 29  1  0  0  0  0
 28 30  1  1  0  0  0
 30 31  1  0  0  0  0
 34 39  1  0  0  0  0
 35 36  2  0  0  0  0
 37 35  1  1  0  0  0
 37 38  1  0  0  0  0
 37 40  1  0  0  0  0
 38 39  1  0  0  0  0
M  END
>  <CHROM.1>
-174.41269310,-64.10980731,75.82070601,156.45542936,179.76453418,-150.89893879
-170.38335551,-54.17781484,75.48716378,178.29886860,3.85328376,-8.46882216
17.56861913,-1.45346159,-0.10180374,-2.12283617

>  <Name>
2g5q_lig

>  <RI>
2.90231e+07

>  <Rbt.Current_Directory>
/home/itssahil/PROJECTS/Mol_Feturizer/New_Systems/rnas/2g5q

>  <Rbt.Executable>
rbdock ($Id: //depot/dev/client3/rdock/2013.1/src/exe/rbdock.cxx#4 $)

>  <Rbt.Library>
libRbt.so (2013.1, Build901 2013/11/27)

>  <Rbt.Parameter_File>
/export/apps/rDock/src/rDock_2013.1_src/data/scripts/dock_solv.prm

>  <Rbt.Receptor>
prm/pocket_docking_6.prm

>  <SCORE>
-21.8665

>  <SCORE.INTER>
-16.9335

>  <SCORE.INTER.CONST>
1

>  <SCORE.INTER.POLAR>
-1.29064

>  <SCORE.INTER.ROT>
10

>  <SCORE.INTER.SOLV>
17.1012

>  <SCORE.INTER.VDW>
-22.9539

>  <SCORE.INTER.norm>
-0.423336

>  <SCORE.INTRA>
-4.93304

>  <SCORE.INTRA.DIHEDRAL>
-14.3282

>  <SCORE.INTRA.DIHEDRAL.0>
22.5778

>  <SCORE.INTRA.POLAR>
0

>  <SCORE.INTRA.POLAR.0>
0

>  <SCORE.INTRA.REPUL>
0

>  <SCORE.INTRA.REPUL.0>
0

>  <SCORE.INTRA.SOLV>
0.837803

>  <SCORE.INTRA.SOLV.lig_0>
-102.332

>  <SCORE.INTRA.VDW>
1.81215

>  <SCORE.INTRA.VDW.0>
-5.08747

>  <SCORE.INTRA.norm>
-0.123326

>  <SCORE.RESTR>
0

>  <SCORE.RESTR.CAVITY>
0

>  <SCORE.RESTR.norm>
0

>  <SCORE.SYSTEM>
0

>  <SCORE.SYSTEM.CONST>
0

>  <SCORE.SYSTEM.DIHEDRAL>
0

>  <SCORE.SYSTEM.SOLV>
0

>  <SCORE.SYSTEM.norm>
0

>  <SCORE.heavy>
40

>  <SCORE.norm>
-0.546663

>  <RMSD>
4.611

$$$$
2g5q_lig
 OpenBabel11021811433D
libRbt.so/2013.1/901 2013/11/27
 40 42  0  0  0  0  0  0  0  0999 V2000
    5.1275  -10.2702   16.7502 C   0  0  2  0  0  0  0  0  0  0  0  0
    4.5058   -9.3015   17.5655 O   0  0  0  0  0  0  0  0  0  0  0  0
    6.6039  -10.4438   17.2137 C   0  0  1  0  0  0  0  0  0  0  0  0
    7.4514   -9.1610   16.9494 C   0  0  2  0  0  0  0  0  0  0  0  0
    7.4125   -8.8727   15.4261 C   0  0  2  0  0  0  0  0  0  0  0  0
    8.2031   -7.7080   15.1381 O   0  0  0  0  0  0  0  0  0  0  0  0
    5.9038   -8.6575   15.0002 C   0  0  2  0  0  0  0  0  0  0  0  0
    5.1052   -9.8760   15.3170 O   0  0  0  0  0  0  0  0  0  0  0  0
    5.7454   -8.3789   13.5093 C   0  0  0  0  0  0  0  0  0  0  0  0
    4.3070   -8.2768   13.1066 N   0  0  0  0  0  0  0  0  0  0  0  0
    0.2412   -8.4789   18.0281 C   0  0  2  0  0  0  0  0  0  0  0  0
   -1.0996   -7.9618   17.7823 N   0  0  0  0  0  0  0  0  0  0  0  0
    1.2693   -7.2822   18.1918 C   0  0  0  0  0  0  0  0  0  0  0  0
    2.7222   -7.8379   18.4654 C   0  0  2  0  0  0  0  0  0  0  0  0
    3.6742   -6.7060   18.6280 N   0  0  0  0  0  0  0  0  0  0  0  0
    3.1553   -8.7884   17.2792 C   0  0  2  0  0  0  0  0  0  0  0  0
    2.1071   -9.9631   17.1447 C   0  0  2  0  0  0  0  0  0  0  0  0
    2.4978  -10.8188   16.0661 O   0  0  0  0  0  0  0  0  0  0  0  0
    0.6681   -9.3876   16.8567 C   0  0  1  0  0  0  0  0  0  0  0  0
   -0.2974  -10.4710   16.7455 O   0  0  0  0  0  0  0  0  0  0  0  0
   -0.4544  -11.2753   15.6024 C   0  0  2  0  0  0  0  0  0  0  0  0
   -1.8936  -11.8910   15.6556 C   0  0  2  0  0  0  0  0  0  0  0  0
   -2.8368  -10.8680   15.6652 O   0  0  0  0  0  0  0  0  0  0  0  0
   -2.0657  -12.8279   16.9107 C   0  0  1  0  0  0  0  0  0  0  0  0
   -3.4401  -13.4263   16.9681 N   0  0  0  0  0  0  0  0  0  0  0  0
   -0.9645  -13.9591   16.8405 C   0  0  2  0  0  0  0  0  0  0  0  0
   -1.0753  -14.8483   17.9536 O   0  0  0  0  0  0  0  0  0  0  0  0
    0.4460  -13.2803   16.7917 C   0  0  2  0  0  0  0  0  0  0  0  0
    0.5554  -12.3487   15.6170 O   0  0  0  0  0  0  0  0  0  0  0  0
    1.5483  -14.2946   16.6922 C   0  0  0  0  0  0  0  0  0  0  0  0
    1.5335  -15.1929   17.8137 O   0  0  0  0  0  0  0  0  0  0  0  0
    6.6021  -10.7910   18.6412 O   0  0  0  0  0  0  0  0  0  0  0  0
    8.7473   -9.3744   17.3648 O   0  0  0  0  0  0  0  0  0  0  0  0
   -5.6754   -8.8068   15.6441 N   0  0  0  0  0  0  0  0  0  0  0  0
   -2.0012   -7.5750   18.7639 C   0  0  0  0  0  0  0  0  0  0  0  0
   -1.7693   -7.6331   19.9665 O   0  0  0  0  0  0  0  0  0  0  0  0
   -3.3403   -7.0775   18.1724 C   0  0  1  0  0  0  0  0  0  0  0  0
   -4.0492   -8.2275   17.4287 C   0  0  0  0  0  0  0  0  0  0  0  0
   -5.3454   -7.8527   16.7009 C   0  0  0  0  0  0  0  0  0  0  0  0
   -4.1685   -6.5657   19.2408 O   0  0  0  0  0  0  0  0  0  0  0  0
  1  2  1  1  0  0  0
  1  3  1  0  0  0  0
  1  8  1  0  0  0  0
  3  4  1  0  0  0  0
  3 32  1  1  0  0  0
  4  5  1  0  0  0  0
  4 33  1  6  0  0  0
  5  6  1  1  0  0  0
  5  7  1  0  0  0  0
  7  8  1  0  0  0  0
  7  9  1  6  0  0  0
  9 10  1  0  0  0  0
 11 12  1  6  0  0  0
 11 13  1  0  0  0  0
 11 19  1  0  0  0  0
 12 35  1  0  0  0  0
 13 14  1  0  0  0  0
 14 15  1  6  0  0  0
 14 16  1  0  0  0  0
 16  2  1  1  0  0  0
 16 17  1  0  0  0  0
 17 18  1  6  0  0  0
 17 19  1  0  0  0  0
 19 20  1  1  0  0  0
 21 20  1  1  0  0  0
 21 22  1  0  0  0  0
 21 29  1  0  0  0  0
 22 23  1  1  0  0  0
 22 24  1  0  0  0  0
 24 25  1  6  0  0  0
 24 26  1  0  0  0  0
 26 27  1  1  0  0  0
 26 28  1  0  0  0  0
 28 29  1  0  0  0  0
 28 30  1  6  0  0  0
 30 31  1  0  0  0  0
 34 39  1  0  0  0  0
 35 36  2  0  0  0  0
 37 35  1  1  0  0  0
 37 38  1  0  0  0  0
 37 40  1  0  0  0  0
 38 39  1  0  0  0  0
M  END
>  <CHROM.1>
172.32653476,175.84829825,-85.37311994,174.36914964,161.99599064,-157.88951174
-59.51330858,63.96306867,-175.69507520,158.42946775,1.41754654,-9.94504505
16.89766214,-0.05639927,-0.11708056,-2.99769182

>  <Name>
2g5q_lig

>  <RI>
224

>  <Rbt.Current_Directory>
/home/itssahil/PROJECTS/Mol_Feturizer/New_Systems/rnas/2g5q

>  <Rbt.Executable>
rbdock ($Id: //depot/dev/client3/rdock/2013.1/src/exe/rbdock.cxx#4 $)

>  <Rbt.Library>
libRbt.so (2013.1, Build901 2013/11/27)

>  <Rbt.Parameter_File>
/export/apps/rDock/src/rDock_2013.1_src/data/scripts/dock_solv.prm

>  <Rbt.Receptor>
prm/pocket_docking_8.prm

>  <SCORE>
-19.4401

>  <SCORE.INTER>
-12.5917

>  <SCORE.INTER.CONST>
1

>  <SCORE.INTER.POLAR>
-3.08583

>  <SCORE.INTER.ROT>
10

>  <SCORE.INTER.SOLV>
21.1851

>  <SCORE.INTER.VDW>
-15.4367

>  <SCORE.INTER.norm>
-0.314792

>  <SCORE.INTRA>
-6.84845

>  <SCORE.INTRA.DIHEDRAL>
-15.4943

>  <SCORE.INTRA.DIHEDRAL.0>
22.5778

>  <SCORE.INTRA.POLAR>
0

>  <SCORE.INTRA.POLAR.0>
0

>  <SCORE.INTRA.REPUL>
0

>  <SCORE.INTRA.REPUL.0>
0

>  <SCORE.INTRA.SOLV>
-0.234641

>  <SCORE.INTRA.SOLV.lig_0>
-102.332

>  <SCORE.INTRA.VDW>
1.01603

>  <SCORE.INTRA.VDW.0>
-5.08747

>  <SCORE.INTRA.norm>
-0.171211

>  <SCORE.RESTR>
0

>  <SCORE.RESTR.CAVITY>
0

>  <SCORE.RESTR.norm>
0

>  <SCORE.SYSTEM>
0

>  <SCORE.SYSTEM.CONST>
0

>  <SCORE.SYSTEM.DIHEDRAL>
0

>  <SCORE.SYSTEM.SOLV>
0

>  <SCORE.SYSTEM.norm>
0

>  <SCORE.heavy>
40

>  <SCORE.norm>
-0.486003

>  <RMSD>
4.780

$$$$
2g5q_lig
 OpenBabel11021811433D
libRbt.so/2013.1/901 2013/11/27
 40 42  0  0  0  0  0  0  0  0999 V2000
    4.0598   -6.2132   19.6114 C   0  0  2  0  0  0  0  0  0  0  0  0
    2.7190   -6.6508   19.6314 O   0  0  0  0  0  0  0  0  0  0  0  0
    4.9208   -7.1943   20.4604 C   0  0  1  0  0  0  0  0  0  0  0  0
    4.5502   -7.1327   21.9745 C   0  0  2  0  0  0  0  0  0  0  0  0
    4.7828   -5.6786   22.4609 C   0  0  2  0  0  0  0  0  0  0  0  0
    4.4736   -5.5858   23.8609 O   0  0  0  0  0  0  0  0  0  0  0  0
    3.8600   -4.7167   21.6081 C   0  0  2  0  0  0  0  0  0  0  0  0
    4.1956   -4.8383   20.1605 O   0  0  0  0  0  0  0  0  0  0  0  0
    4.0189   -3.2503   21.9951 C   0  0  0  0  0  0  0  0  0  0  0  0
    2.9046   -2.4045   21.4616 N   0  0  0  0  0  0  0  0  0  0  0  0
    0.8530   -8.6750   16.2406 C   0  0  2  0  0  0  0  0  0  0  0  0
    0.3883   -9.7298   15.3477 N   0  0  0  0  0  0  0  0  0  0  0  0
    2.4307   -8.7388   16.3907 C   0  0  0  0  0  0  0  0  0  0  0  0
    2.9392   -7.5932   17.3517 C   0  0  2  0  0  0  0  0  0  0  0  0
    4.4206   -7.6570   17.4751 N   0  0  0  0  0  0  0  0  0  0  0  0
    2.2375   -7.7366   18.7607 C   0  0  2  0  0  0  0  0  0  0  0  0
    0.6702   -7.6729   18.5702 C   0  0  2  0  0  0  0  0  0  0  0  0
    0.0370   -7.8094   19.8463 O   0  0  0  0  0  0  0  0  0  0  0  0
    0.1826   -8.8332   17.6211 C   0  0  1  0  0  0  0  0  0  0  0  0
   -1.2596   -8.7647   17.4375 O   0  0  0  0  0  0  0  0  0  0  0  0
   -2.1930   -9.4181   18.2621 C   0  0  2  0  0  0  0  0  0  0  0  0
   -2.1400  -10.9442   17.9135 C   0  0  2  0  0  0  0  0  0  0  0  0
   -0.8575  -11.4304   18.1482 O   0  0  0  0  0  0  0  0  0  0  0  0
   -2.5762  -11.2026   16.4216 C   0  0  1  0  0  0  0  0  0  0  0  0
   -2.5332  -12.6625   16.0793 N   0  0  0  0  0  0  0  0  0  0  0  0
   -4.0330  -10.6232   16.2230 C   0  0  2  0  0  0  0  0  0  0  0  0
   -4.4881  -10.8354   14.8851 O   0  0  0  0  0  0  0  0  0  0  0  0
   -4.0178   -9.0995   16.5847 C   0  0  2  0  0  0  0  0  0  0  0  0
   -3.5405   -8.8850   17.9939 O   0  0  0  0  0  0  0  0  0  0  0  0
   -5.3796   -8.4822   16.4499 C   0  0  0  0  0  0  0  0  0  0  0  0
   -6.3736   -9.2549   17.1425 O   0  0  0  0  0  0  0  0  0  0  0  0
    4.7376   -8.5505   19.9263 O   0  0  0  0  0  0  0  0  0  0  0  0
    5.3488   -8.0076   22.6775 O   0  0  0  0  0  0  0  0  0  0  0  0
    2.4177  -12.4429   15.0772 N   0  0  0  0  0  0  0  0  0  0  0  0
    0.8958   -9.9891   14.0822 C   0  0  0  0  0  0  0  0  0  0  0  0
    1.8007   -9.3448   13.5633 O   0  0  0  0  0  0  0  0  0  0  0  0
    0.1803  -11.1723   13.3905 C   0  0  1  0  0  0  0  0  0  0  0  0
    1.2159  -12.2122   12.9169 C   0  0  0  0  0  0  0  0  0  0  0  0
    1.7486  -13.1626   13.9954 C   0  0  0  0  0  0  0  0  0  0  0  0
   -0.7590  -11.7638   14.3163 O   0  0  0  0  0  0  0  0  0  0  0  0
  1  2  1  1  0  0  0
  1  3  1  0  0  0  0
  1  8  1  0  0  0  0
  3  4  1  0  0  0  0
  3 32  1  6  0  0  0
  4  5  1  0  0  0  0
  4 33  1  1  0  0  0
  5  6  1  1  0  0  0
  5  7  1  0  0  0  0
  7  8  1  0  0  0  0
  7  9  1  1  0  0  0
  9 10  1  0  0  0  0
 11 12  1  6  0  0  0
 11 13  1  0  0  0  0
 11 19  1  0  0  0  0
 12 35  1  0  0  0  0
 13 14  1  0  0  0  0
 14 15  1  1  0  0  0
 14 16  1  0  0  0  0
 16  2  1  1  0  0  0
 16 17  1  0  0  0  0
 17 18  1  1  0  0  0
 17 19  1  0  0  0  0
 19 20  1  6  0  0  0
 21 20  1  6  0  0  0
 21 22  1  0  0  0  0
 21 29  1  0  0  0  0
 22 23  1  6  0  0  0
 22 24  1  0  0  0  0
 24 25  1  1  0  0  0
 24 26  1  0  0  0  0
 26 27  1  6  0  0  0
 26 28  1  0  0  0  0
 28 29  1  0  0  0  0
 28 30  1  1  0  0  0
 30 31  1  0  0  0  0
 34 39  1  0  0  0  0
 35 36  2  0  0  0  0
 37 35  1  1  0  0  0
 37 38  1  0  0  0  0
 37 40  1  0  0  0  0
 38 39  1  0  0  0  0
M  END
>  <CHROM.1>
-80.48374393,-164.64858450,-50.78142204,-38.41503706,150.64121628,-73.83761796
50.27058023,-126.85125535,79.76491293,-60.18837322,0.80245367,-8.65950080
17.88353263,-0.87423105,-0.02097863,-2.26595126

>  <Name>
2g5q_lig

>  <RI>
0

>  <Rbt.Current_Directory>
/home/itssahil/PROJECTS/Mol_Feturizer/New_Systems/rnas/2g5q

>  <Rbt.Executable>
rbdock ($Id: //depot/dev/client3/rdock/2013.1/src/exe/rbdock.cxx#4 $)

>  <Rbt.Library>
libRbt.so (2013.1, Build901 2013/11/27)

>  <Rbt.Parameter_File>
/export/apps/rDock/src/rDock_2013.1_src/data/scripts/dock_solv.prm

>  <Rbt.Receptor>
prm/pocket_docking_2.prm

>  <SCORE>
-11.3156

>  <SCORE.INTER>
-17.217

>  <SCORE.INTER.CONST>
1

>  <SCORE.INTER.POLAR>
-0.638741

>  <SCORE.INTER.ROT>
10

>  <SCORE.INTER.SOLV>
18.1242

>  <SCORE.INTER.VDW>
-25.6569

>  <SCORE.INTER.norm>
-0.430425

>  <SCORE.INTRA>
2.86207

>  <SCORE.INTRA.DIHEDRAL>
-9.36538

>  <SCORE.INTRA.DIHEDRAL.0>
22.5778

>  <SCORE.INTRA.POLAR>
0

>  <SCORE.INTRA.POLAR.0>
0

>  <SCORE.INTRA.REPUL>
0

>  <SCORE.INTRA.REPUL.0>
0

>  <SCORE.INTRA.SOLV>
9.05457

>  <SCORE.INTRA.SOLV.lig_0>
-102.332

>  <SCORE.INTRA.VDW>
3.01747

>  <SCORE.INTRA.VDW.0>
-5.08747

>  <SCORE.INTRA.norm>
0.0715516

>  <SCORE.RESTR>
3.03938

>  <SCORE.RESTR.CAVITY>
3.03938

>  <SCORE.RESTR.norm>
0.0759844

>  <SCORE.SYSTEM>
0

>  <SCORE.SYSTEM.CONST>
0

>  <SCORE.SYSTEM.DIHEDRAL>
0

>  <SCORE.SYSTEM.SOLV>
0

>  <SCORE.SYSTEM.norm>
0

>  <SCORE.heavy>
40

>  <SCORE.norm>
-0.282889

>  <RMSD>
4.958

$$$$
2g5q_lig
 OpenBabel11021811433D
libRbt.so/2013.1/901 2013/11/27
 40 42  0  0  0  0  0  0  0  0999 V2000
    4.9904   -9.2917   21.5074 C   0  0  2  0  0  0  0  0  0  0  0  0
    3.6617   -9.5691   21.8908 O   0  0  0  0  0  0  0  0  0  0  0  0
    5.3746   -7.8721   22.0191 C   0  0  1  0  0  0  0  0  0  0  0  0
    4.5575   -6.7539   21.3010 C   0  0  2  0  0  0  0  0  0  0  0  0
    4.8467   -6.8573   19.7809 C   0  0  2  0  0  0  0  0  0  0  0  0
    4.1280   -5.8261   19.0847 O   0  0  0  0  0  0  0  0  0  0  0  0
    4.4029   -8.2940   19.2880 C   0  0  2  0  0  0  0  0  0  0  0  0
    5.1569   -9.3440   20.0310 O   0  0  0  0  0  0  0  0  0  0  0  0
    4.6567   -8.5120   17.8002 C   0  0  0  0  0  0  0  0  0  0  0  0
    3.8603   -7.5708   16.9507 N   0  0  0  0  0  0  0  0  0  0  0  0
    2.2547  -12.4812   18.9552 C   0  0  2  0  0  0  0  0  0  0  0  0
    1.5232  -13.5870   18.3487 N   0  0  0  0  0  0  0  0  0  0  0  0
    3.1011  -12.9970   20.1936 C   0  0  0  0  0  0  0  0  0  0  0  0
    3.9009  -11.8033   20.8494 C   0  0  2  0  0  0  0  0  0  0  0  0
    4.6988  -12.3021   22.0021 N   0  0  0  0  0  0  0  0  0  0  0  0
    2.8900  -10.6732   21.2952 C   0  0  2  0  0  0  0  0  0  0  0  0
    2.0638  -10.1888   20.0384 C   0  0  2  0  0  0  0  0  0  0  0  0
    1.1448   -9.1701   20.4456 O   0  0  0  0  0  0  0  0  0  0  0  0
    1.2618  -11.3913   19.4092 C   0  0  1  0  0  0  0  0  0  0  0  0
    0.5116  -10.9450   18.2445 O   0  0  0  0  0  0  0  0  0  0  0  0
    0.7693   -9.7501   17.5489 C   0  0  2  0  0  0  0  0  0  0  0  0
   -0.5407   -8.8924   17.5877 C   0  0  2  0  0  0  0  0  0  0  0  0
   -0.8810   -8.6232   18.9098 O   0  0  0  0  0  0  0  0  0  0  0  0
   -1.7204   -9.6211   16.8394 C   0  0  1  0  0  0  0  0  0  0  0  0
   -2.9788   -8.8050   16.8671 N   0  0  0  0  0  0  0  0  0  0  0  0
   -1.2668   -9.9010   15.3517 C   0  0  2  0  0  0  0  0  0  0  0  0
   -2.3028  -10.5567   14.6176 O   0  0  0  0  0  0  0  0  0  0  0  0
    0.0417  -10.7610   15.3823 C   0  0  2  0  0  0  0  0  0  0  0  0
    1.1270  -10.0635   16.1539 O   0  0  0  0  0  0  0  0  0  0  0  0
    0.5542  -11.0433   13.9998 C   0  0  0  0  0  0  0  0  0  0  0  0
   -0.2879  -11.9835   13.3130 O   0  0  0  0  0  0  0  0  0  0  0  0
    5.1618   -7.8316   23.4721 O   0  0  0  0  0  0  0  0  0  0  0  0
    4.9460   -5.5226   21.7810 O   0  0  0  0  0  0  0  0  0  0  0  0
   -3.1990  -13.9000   17.1203 N   0  0  0  0  0  0  0  0  0  0  0  0
    1.3043  -13.7519   16.9882 C   0  0  0  0  0  0  0  0  0  0  0  0
    1.7016  -12.9693   16.1320 O   0  0  0  0  0  0  0  0  0  0  0  0
    0.4869  -15.0257   16.6721 C   0  0  1  0  0  0  0  0  0  0  0  0
   -0.9681  -14.6481   16.3278 C   0  0  0  0  0  0  0  0  0  0  0  0
   -1.7864  -14.0347   17.4700 C   0  0  0  0  0  0  0  0  0  0  0  0
    1.1115  -15.7283   15.5741 O   0  0  0  0  0  0  0  0  0  0  0  0
  1  2  1  6  0  0  0
  1  3  1  0  0  0  0
  1  8  1  0  0  0  0
  3  4  1  0  0  0  0
  3 32  1  1  0  0  0
  4  5  1  0  0  0  0
  4 33  1  1  0  0  0
  5  6  1  6  0  0  0
  5  7  1  0  0  0  0
  7  8  1  0  0  0  0
  7  9  1  6  0  0  0
  9 10  1  0  0  0  0
 11 12  1  1  0  0  0
 11 13  1  0  0  0  0
 11 19  1  0  0  0  0
 12 35  1  0  0  0  0
 13 14  1  0  0  0  0
 14 15  1  1  0  0  0
 14 16  1  0  0  0  0
 16  2  1  6  0  0  0
 16 17  1  0  0  0  0
 17 18  1  1  0  0  0
 17 19  1  0  0  0  0
 19 20  1  6  0  0  0
 21 20  1  1  0  0  0
 21 22  1  0  0  0  0
 21 29  1  0  0  0  0
 22 23  1  1  0  0  0
 22 24  1  0  0  0  0
 24 25  1  6  0  0  0
 24 26  1  0  0  0  0
 26 27  1  6  0  0  0
 26 28  1  0  0  0  0
 28 29  1  0  0  0  0
 28 30  1  6  0  0  0
 30 31  1  0  0  0  0
 34 39  1  0  0  0  0
 35 36  2  0  0  0  0
 37 35  1  6  0  0  0
 37 38  1  0  0  0  0
 37 40  1  0  0  0  0
 38 39  1  0  0  0  0
M  END
>  <CHROM.1>
164.89479806,-62.84743365,-142.91928264,28.62547614,-101.82082697,-121.36476013
-71.52657325,103.84524465,-65.63396947,-171.19500176,1.75537553,-10.44571805
18.42798822,-0.49086075,0.80231471,3.06966969

>  <Name>
2g5q_lig

>  <RI>
224

>  <Rbt.Current_Directory>
/home/itssahil/PROJECTS/Mol_Feturizer/New_Systems/rnas/2g5q

>  <Rbt.Executable>
rbdock ($Id: //depot/dev/client3/rdock/2013.1/src/exe/rbdock.cxx#4 $)

>  <Rbt.Library>
libRbt.so (2013.1, Build901 2013/11/27)

>  <Rbt.Parameter_File>
/export/apps/rDock/src/rDock_2013.1_src/data/scripts/dock_solv.prm

>  <Rbt.Receptor>
prm/pocket_docking_8.prm

>  <SCORE>
-8.30649

>  <SCORE.INTER>
-9.61548

>  <SCORE.INTER.CONST>
1

>  <SCORE.INTER.POLAR>
-1.82142

>  <SCORE.INTER.ROT>
10

>  <SCORE.INTER.SOLV>
19.4159

>  <SCORE.INTER.VDW>
-17.0776

>  <SCORE.INTER.norm>
-0.240387

>  <SCORE.INTRA>
1.10975

>  <SCORE.INTRA.DIHEDRAL>
-0.876023

>  <SCORE.INTRA.DIHEDRAL.0>
22.5778

>  <SCORE.INTRA.POLAR>
0

>  <SCORE.INTRA.POLAR.0>
0

>  <SCORE.INTRA.REPUL>
0

>  <SCORE.INTRA.REPUL.0>
0

>  <SCORE.INTRA.SOLV>
4.126

>  <SCORE.INTRA.SOLV.lig_0>
-102.332

>  <SCORE.INTRA.VDW>
-0.515239

>  <SCORE.INTRA.VDW.0>
-5.08747

>  <SCORE.INTRA.norm>
0.0277438

>  <SCORE.RESTR>
0.199245

>  <SCORE.RESTR.CAVITY>
0.199245

>  <SCORE.RESTR.norm>
0.00498113

>  <SCORE.SYSTEM>
0

>  <SCORE.SYSTEM.CONST>
0

>  <SCORE.SYSTEM.DIHEDRAL>
0

>  <SCORE.SYSTEM.SOLV>
0

>  <SCORE.SYSTEM.norm>
0

>  <SCORE.heavy>
40

>  <SCORE.norm>
-0.207662

>  <RMSD>
4.958

$$$$
2g5q_lig
 OpenBabel11021811433D
libRbt.so/2013.1/901 2013/11/27
 40 42  0  0  0  0  0  0  0  0999 V2000
    4.3704   -6.3463   19.8140 C   0  0  2  0  0  0  0  0  0  0  0  0
    2.9841   -6.5845   19.7096 O   0  0  0  0  0  0  0  0  0  0  0  0
    5.0110   -7.4777   20.6710 C   0  0  1  0  0  0  0  0  0  0  0  0
    4.5299   -7.4275   22.1541 C   0  0  2  0  0  0  0  0  0  0  0  0
    4.9255   -6.0449   22.7344 C   0  0  2  0  0  0  0  0  0  0  0  0
    4.5188   -5.9679   24.1103 O   0  0  0  0  0  0  0  0  0  0  0  0
    4.2216   -4.9233   21.8679 C   0  0  2  0  0  0  0  0  0  0  0  0
    4.6543   -5.0306   20.4452 O   0  0  0  0  0  0  0  0  0  0  0  0
    4.5546   -3.5135   22.3445 C   0  0  0  0  0  0  0  0  0  0  0  0
    3.8237   -3.1583   23.6020 N   0  0  0  0  0  0  0  0  0  0  0  0
    1.0232   -8.6425   16.3935 C   0  0  2  0  0  0  0  0  0  0  0  0
    0.4963   -9.7061   15.5468 N   0  0  0  0  0  0  0  0  0  0  0  0
    2.5902   -8.8098   16.5730 C   0  0  0  0  0  0  0  0  0  0  0  0
    3.1664   -7.6553   17.4839 C   0  0  2  0  0  0  0  0  0  0  0  0
    4.6378   -7.8172   17.6352 N   0  0  0  0  0  0  0  0  0  0  0  0
    2.4378   -7.6767   18.8863 C   0  0  2  0  0  0  0  0  0  0  0  0
    0.8817   -7.5122   18.6666 C   0  0  2  0  0  0  0  0  0  0  0  0
    0.2236   -7.5382   19.9371 O   0  0  0  0  0  0  0  0  0  0  0  0
    0.3251   -8.6822   17.7686 C   0  0  1  0  0  0  0  0  0  0  0  0
   -1.1060   -8.5214   17.5577 O   0  0  0  0  0  0  0  0  0  0  0  0
   -2.0750   -8.6708   18.5661 C   0  0  2  0  0  0  0  0  0  0  0  0
   -2.2384  -10.2049   18.8367 C   0  0  2  0  0  0  0  0  0  0  0  0
   -1.0201  -10.7366   19.2485 O   0  0  0  0  0  0  0  0  0  0  0  0
   -2.7770  -10.9538   17.5594 C   0  0  1  0  0  0  0  0  0  0  0  0
   -2.9413  -12.4237   17.8100 N   0  0  0  0  0  0  0  0  0  0  0  0
   -4.1539  -10.2990   17.1438 C   0  0  2  0  0  0  0  0  0  0  0  0
   -4.6977  -10.9440   15.9904 O   0  0  0  0  0  0  0  0  0  0  0  0
   -3.9228   -8.7716   16.8865 C   0  0  2  0  0  0  0  0  0  0  0  0
   -3.3532   -8.1001   18.1049 O   0  0  0  0  0  0  0  0  0  0  0  0
   -5.1975   -8.0708   16.5156 C   0  0  0  0  0  0  0  0  0  0  0  0
   -5.5866   -8.3750   15.1662 O   0  0  0  0  0  0  0  0  0  0  0  0
    4.6817   -8.7687   20.0521 O   0  0  0  0  0  0  0  0  0  0  0  0
    5.1359   -8.4386   22.8668 O   0  0  0  0  0  0  0  0  0  0  0  0
    0.6689  -13.7332   15.4296 N   0  0  0  0  0  0  0  0  0  0  0  0
    0.9004   -9.9680   14.2451 C   0  0  0  0  0  0  0  0  0  0  0  0
    1.7539   -9.3189   13.6505 O   0  0  0  0  0  0  0  0  0  0  0  0
    0.1411  -11.1611   13.6202 C   0  0  1  0  0  0  0  0  0  0  0  0
    1.1021  -12.3495   13.4141 C   0  0  0  0  0  0  0  0  0  0  0  0
    1.6757  -12.9732   14.6917 C   0  0  0  0  0  0  0  0  0  0  0  0
   -0.9567  -11.5289   14.4856 O   0  0  0  0  0  0  0  0  0  0  0  0
  1  2  1  1  0  0  0
  1  3  1  0  0  0  0
  1  8  1  0  0  0  0
  3  4  1  0  0  0  0
  3 32  1  6  0  0  0
  4  5  1  0  0  0  0
  4 33  1  1  0  0  0
  5  6  1  1  0  0  0
  5  7  1  0  0  0  0
  7  8  1  0  0  0  0
  7  9  1  1  0  0  0
  9 10  1  0  0  0  0
 11 12  1  6  0  0  0
 11 13  1  0  0  0  0
 11 19  1  0  0  0  0
 12 35  1  0  0  0  0
 13 14  1  0  0  0  0
 14 15  1  1  0  0  0
 14 16  1  0  0  0  0
 16  2  1  1  0  0  0
 16 17  1  0  0  0  0
 17 18  1  1  0  0  0
 17 19  1  0  0  0  0
 19 20  1  6  0  0  0
 21 20  1  6  0  0  0
 21 22  1  0  0  0  0
 21 29  1  0  0  0  0
 22 23  1  6  0  0  0
 22 24  1  0  0  0  0
 24 25  1  1  0  0  0
 24 26  1  0  0  0  0
 26 27  1  6  0  0  0
 26 28  1  0  0  0  0
 28 29  1  0  0  0  0
 28 30  1  1  0  0  0
 30 31  1  0  0  0  0
 34 39  1  0  0  0  0
 35 36  2  0  0  0  0
 37 35  1  1  0  0  0
 37 38  1  0  0  0  0
 37 40  1  0  0  0  0
 38 39  1  0  0  0  0
M  END
>  <CHROM.1>
-71.85346727,-75.10099395,-58.44509857,-46.15924876,171.85238036,-75.39253848
-74.81257984,-111.72557530,65.12004568,71.92294670,0.86724761,-8.61778256
18.22111979,-0.84456566,0.01449801,-2.23885693

>  <Name>
2g5q_lig

>  <RI>
0

>  <Rbt.Current_Directory>
/home/itssahil/PROJECTS/Mol_Feturizer/New_Systems/rnas/2g5q

>  <Rbt.Executable>
rbdock ($Id: //depot/dev/client3/rdock/2013.1/src/exe/rbdock.cxx#4 $)

>  <Rbt.Library>
libRbt.so (2013.1, Build901 2013/11/27)

>  <Rbt.Parameter_File>
/export/apps/rDock/src/rDock_2013.1_src/data/scripts/dock_solv.prm

>  <Rbt.Receptor>
prm/pocket_docking_3.prm

>  <SCORE>
-22.9788

>  <SCORE.INTER>
-21.3601

>  <SCORE.INTER.CONST>
1

>  <SCORE.INTER.POLAR>
-1.419

>  <SCORE.INTER.ROT>
10

>  <SCORE.INTER.SOLV>
16.3162

>  <SCORE.INTER.VDW>
-25.2155

>  <SCORE.INTER.norm>
-0.534002

>  <SCORE.INTRA>
-1.62076

>  <SCORE.INTRA.DIHEDRAL>
-15.0612

>  <SCORE.INTRA.DIHEDRAL.0>
22.5778

>  <SCORE.INTRA.POLAR>
0

>  <SCORE.INTRA.POLAR.0>
0

>  <SCORE.INTRA.REPUL>
0

>  <SCORE.INTRA.REPUL.0>
0

>  <SCORE.INTRA.SOLV>
6.04609

>  <SCORE.INTRA.SOLV.lig_0>
-102.332

>  <SCORE.INTRA.VDW>
2.88678

>  <SCORE.INTRA.VDW.0>
-5.08747

>  <SCORE.INTRA.norm>
-0.0405189

>  <SCORE.RESTR>
0.00203816

>  <SCORE.RESTR.CAVITY>
0.00203816

>  <SCORE.RESTR.norm>
5.0954e-05

>  <SCORE.SYSTEM>
0

>  <SCORE.SYSTEM.CONST>
0

>  <SCORE.SYSTEM.DIHEDRAL>
0

>  <SCORE.SYSTEM.SOLV>
0

>  <SCORE.SYSTEM.norm>
0

>  <SCORE.heavy>
40

>  <SCORE.norm>
-0.57447

>  <RMSD>
4.975

$$$$
2g5q_lig
 OpenBabel11021811433D
libRbt.so/2013.1/901 2013/11/27
 40 42  0  0  0  0  0  0  0  0999 V2000
    3.5895   -5.3317   19.8196 C   0  0  2  0  0  0  0  0  0  0  0  0
    2.4324   -6.1221   19.9808 O   0  0  0  0  0  0  0  0  0  0  0  0
    4.7170   -5.9006   20.7306 C   0  0  1  0  0  0  0  0  0  0  0  0
    4.3813   -5.7335   22.2449 C   0  0  2  0  0  0  0  0  0  0  0  0
    4.1971   -4.2194   22.5254 C   0  0  2  0  0  0  0  0  0  0  0  0
    3.9085   -4.0214   23.9189 O   0  0  0  0  0  0  0  0  0  0  0  0
    3.0159   -3.6867   21.6171 C   0  0  2  0  0  0  0  0  0  0  0  0
    3.3370   -3.9113   20.1786 O   0  0  0  0  0  0  0  0  0  0  0  0
    2.7553   -2.1956   21.8024 C   0  0  0  0  0  0  0  0  0  0  0  0
    3.9685   -1.3715   21.5009 N   0  0  0  0  0  0  0  0  0  0  0  0
    1.0571   -8.4990   16.5842 C   0  0  2  0  0  0  0  0  0  0  0  0
    0.7977   -9.6367   15.7102 N   0  0  0  0  0  0  0  0  0  0  0  0
    2.6176   -8.3245   16.8089 C   0  0  0  0  0  0  0  0  0  0  0  0
    2.9036   -7.0885   17.7497 C   0  0  2  0  0  0  0  0  0  0  0  0
    4.3702   -6.9290   17.9433 N   0  0  0  0  0  0  0  0  0  0  0  0
    2.1597   -7.2924   19.1292 C   0  0  2  0  0  0  0  0  0  0  0  0
    0.6116   -7.4666   18.8647 C   0  0  2  0  0  0  0  0  0  0  0  0
   -0.0590   -7.6574   20.1144 O   0  0  0  0  0  0  0  0  0  0  0  0
    0.3477   -8.7137   17.9372 C   0  0  1  0  0  0  0  0  0  0  0  0
   -1.0778   -8.8645   17.6852 O   0  0  0  0  0  0  0  0  0  0  0  0
   -2.0203   -9.2209   18.6664 C   0  0  2  0  0  0  0  0  0  0  0  0
   -1.6456  -10.6527   19.1791 C   0  0  2  0  0  0  0  0  0  0  0  0
   -0.3633  -10.6322   19.7193 O   0  0  0  0  0  0  0  0  0  0  0  0
   -1.7528  -11.7174   18.0226 C   0  0  1  0  0  0  0  0  0  0  0  0
   -1.4001  -13.0934   18.5050 N   0  0  0  0  0  0  0  0  0  0  0  0
   -3.2262  -11.6842   17.4523 C   0  0  2  0  0  0  0  0  0  0  0  0
   -3.3875  -12.6381   16.4006 O   0  0  0  0  0  0  0  0  0  0  0  0
   -3.5369  -10.2315   16.9564 C   0  0  2  0  0  0  0  0  0  0  0  0
   -3.3674   -9.2347   18.0688 O   0  0  0  0  0  0  0  0  0  0  0  0
   -4.9364  -10.1120   16.4265 C   0  0  0  0  0  0  0  0  0  0  0  0
   -5.9058  -10.4452   17.4336 O   0  0  0  0  0  0  0  0  0  0  0  0
    4.9189   -7.3146   20.3871 O   0  0  0  0  0  0  0  0  0  0  0  0
    5.4149   -6.2398   23.0018 O   0  0  0  0  0  0  0  0  0  0  0  0
    1.6072  -14.1836   12.9371 N   0  0  0  0  0  0  0  0  0  0  0  0
    1.1120  -10.9571   15.9996 C   0  0  0  0  0  0  0  0  0  0  0  0
    1.6585  -11.3184   17.0361 O   0  0  0  0  0  0  0  0  0  0  0  0
    0.7116  -11.9226   14.8603 C   0  0  1  0  0  0  0  0  0  0  0  0
    1.7268  -11.8250   13.7036 C   0  0  0  0  0  0  0  0  0  0  0  0
    1.4958  -12.7843   12.5303 C   0  0  0  0  0  0  0  0  0  0  0  0
    0.6502  -13.2695   15.3811 O   0  0  0  0  0  0  0  0  0  0  0  0
  1  2  1  1  0  0  0
  1  3  1  0  0  0  0
  1  8  1  0  0  0  0
  3  4  1  0  0  0  0
  3 32  1  6  0  0  0
  4  5  1  0  0  0  0
  4 33  1  1  0  0  0
  5  6  1  1  0  0  0
  5  7  1  0  0  0  0
  7  8  1  0  0  0  0
  7  9  1  6  0  0  0
  9 10  1  0  0  0  0
 11 12  1  6  0  0  0
 11 13  1  0  0  0  0
 11 19  1  0  0  0  0
 12 35  1  0  0  0  0
 13 14  1  0  0  0  0
 14 15  1  1  0  0  0
 14 16  1  0  0  0  0
 16  2  1  1  0  0  0
 16 17  1  0  0  0  0
 17 18  1  1  0  0  0
 17 19  1  0  0  0  0
 19 20  1  6  0  0  0
 21 20  1  6  0  0  0
 21 22  1  0  0  0  0
 21 29  1  0  0  0  0
 22 23  1  6  0  0  0
 22 24  1  0  0  0  0
 24 25  1  1  0  0  0
 24 26  1  0  0  0  0
 26 27  1  6  0  0  0
 26 28  1  0  0  0  0
 28 29  1  0  0  0  0
 28 30  1  1  0  0  0
 30 31  1  0  0  0  0
 34 39  1  0  0  0  0
 35 36  2  0  0  0  0
 37 35  1  1  0  0  0
 37 38  1  0  0  0  0
 37 40  1  0  0  0  0
 38 39  1  0  0  0  0
M  END
>  <CHROM.1>
-90.77252250,58.30591946,63.04908807,-25.56838594,172.75954102,-62.47928755
59.61819050,76.79756425,176.91819223,-62.74797933,0.92885691,-8.56730724
18.41770276,-1.02927698,-0.20156898,-2.37567366

>  <Name>
2g5q_lig

>  <RI>
9.52566e+06

>  <Rbt.Current_Directory>
/home/itssahil/PROJECTS/Mol_Feturizer/New_Systems/rnas/2g5q

>  <Rbt.Executable>
rbdock ($Id: //depot/dev/client3/rdock/2013.1/src/exe/rbdock.cxx#4 $)

>  <Rbt.Library>
libRbt.so (2013.1, Build901 2013/11/27)

>  <Rbt.Parameter_File>
/export/apps/rDock/src/rDock_2013.1_src/data/scripts/dock_solv.prm

>  <Rbt.Receptor>
prm/pocket_docking_4.prm

>  <SCORE>
-9.22563

>  <SCORE.INTER>
-9.7907

>  <SCORE.INTER.CONST>
1

>  <SCORE.INTER.POLAR>
-0.723037

>  <SCORE.INTER.ROT>
10

>  <SCORE.INTER.SOLV>
18.4876

>  <SCORE.INTER.VDW>
-20.5462

>  <SCORE.INTER.norm>
-0.244768

>  <SCORE.INTRA>
0.565068

>  <SCORE.INTRA.DIHEDRAL>
-12.9102

>  <SCORE.INTRA.DIHEDRAL.0>
22.5778

>  <SCORE.INTRA.POLAR>
0

>  <SCORE.INTRA.POLAR.0>
0

>  <SCORE.INTRA.REPUL>
0

>  <SCORE.INTRA.REPUL.0>
0

>  <SCORE.INTRA.SOLV>
7.83587

>  <SCORE.INTRA.SOLV.lig_0>
-102.332

>  <SCORE.INTRA.VDW>
3.10223

>  <SCORE.INTRA.VDW.0>
-5.08747

>  <SCORE.INTRA.norm>
0.0141267

>  <SCORE.RESTR>
0

>  <SCORE.RESTR.CAVITY>
0

>  <SCORE.RESTR.norm>
0

>  <SCORE.SYSTEM>
0

>  <SCORE.SYSTEM.CONST>
0

>  <SCORE.SYSTEM.DIHEDRAL>
0

>  <SCORE.SYSTEM.SOLV>
0

>  <SCORE.SYSTEM.norm>
0

>  <SCORE.heavy>
40

>  <SCORE.norm>
-0.230641

>  <RMSD>
5.017

$$$$
2g5q_lig
 OpenBabel11021811433D
libRbt.so/2013.1/901 2013/11/27
 40 42  0  0  0  0  0  0  0  0999 V2000
    4.6231   -6.3775   19.8265 C   0  0  2  0  0  0  0  0  0  0  0  0
    3.3048   -6.8568   19.6781 O   0  0  0  0  0  0  0  0  0  0  0  0
    5.4101   -7.3511   20.7525 C   0  0  1  0  0  0  0  0  0  0  0  0
    4.8610   -7.3366   22.2126 C   0  0  2  0  0  0  0  0  0  0  0  0
    4.9854   -5.8879   22.7517 C   0  0  2  0  0  0  0  0  0  0  0  0
    4.5098   -5.8376   24.1065 O   0  0  0  0  0  0  0  0  0  0  0  0
    4.1382   -4.9353   21.8142 C   0  0  2  0  0  0  0  0  0  0  0  0
    4.6467   -5.0124   20.4147 O   0  0  0  0  0  0  0  0  0  0  0  0
    4.2009   -3.4741   22.2461 C   0  0  0  0  0  0  0  0  0  0  0  0
    3.5262   -3.2483   23.5635 N   0  0  0  0  0  0  0  0  0  0  0  0
    1.6313   -9.2907   16.4605 C   0  0  2  0  0  0  0  0  0  0  0  0
    1.3242  -10.4366   15.6131 N   0  0  0  0  0  0  0  0  0  0  0  0
    3.1952   -9.0266   16.4805 C   0  0  0  0  0  0  0  0  0  0  0  0
    3.5318   -7.7814   17.3918 C   0  0  2  0  0  0  0  0  0  0  0  0
    4.9997   -7.5377   17.3931 N   0  0  0  0  0  0  0  0  0  0  0  0
    2.9894   -8.0362   18.8543 C   0  0  2  0  0  0  0  0  0  0  0  0
    1.4324   -8.2990   18.7933 C   0  0  2  0  0  0  0  0  0  0  0  0
    0.9447   -8.5357   20.1177 O   0  0  0  0  0  0  0  0  0  0  0  0
    1.1201   -9.5540   17.8921 C   0  0  1  0  0  0  0  0  0  0  0  0
   -0.3152   -9.7864   17.8276 O   0  0  0  0  0  0  0  0  0  0  0  0
   -1.2270   -8.9262   17.1897 C   0  0  2  0  0  0  0  0  0  0  0  0
   -2.1800   -8.3514   18.2918 C   0  0  2  0  0  0  0  0  0  0  0  0
   -1.4318   -7.6552   19.2362 O   0  0  0  0  0  0  0  0  0  0  0  0
   -3.0200   -9.4978   18.9721 C   0  0  1  0  0  0  0  0  0  0  0  0
   -3.9395   -8.9565   20.0265 N   0  0  0  0  0  0  0  0  0  0  0  0
   -3.8375  -10.2485   17.8473 C   0  0  2  0  0  0  0  0  0  0  0  0
   -4.6281  -11.2992   18.4068 O   0  0  0  0  0  0  0  0  0  0  0  0
   -2.8307  -10.7989   16.7815 C   0  0  2  0  0  0  0  0  0  0  0  0
   -2.0048   -9.6876   16.1960 O   0  0  0  0  0  0  0  0  0  0  0  0
   -3.5377  -11.5015   15.6589 C   0  0  0  0  0  0  0  0  0  0  0  0
   -4.5068  -10.6436   15.0347 O   0  0  0  0  0  0  0  0  0  0  0  0
    5.3369   -8.6994   20.1738 O   0  0  0  0  0  0  0  0  0  0  0  0
    5.5997   -8.2026   22.9884 O   0  0  0  0  0  0  0  0  0  0  0  0
    0.2343  -14.3784   15.2319 N   0  0  0  0  0  0  0  0  0  0  0  0
    1.5381  -10.4999   14.2433 C   0  0  0  0  0  0  0  0  0  0  0  0
    2.0099   -9.5817   13.5818 O   0  0  0  0  0  0  0  0  0  0  0  0
    1.0987  -11.8537   13.6393 C   0  0  1  0  0  0  0  0  0  0  0  0
   -0.3149  -12.2196   14.1352 C   0  0  0  0  0  0  0  0  0  0  0  0
   -0.6168  -13.7188   14.2437 C   0  0  0  0  0  0  0  0  0  0  0  0
    1.1321  -11.7615   12.1972 O   0  0  0  0  0  0  0  0  0  0  0  0
  1  2  1  1  0  0  0
  1  3  1  0  0  0  0
  1  8  1  0  0  0  0
  3  4  1  0  0  0  0
  3 32  1  6  0  0  0
  4  5  1  0  0  0  0
  4 33  1  1  0  0  0
  5  6  1  1  0  0  0
  5  7  1  0  0  0  0
  7  8  1  0  0  0  0
  7  9  1  1  0  0  0
  9 10  1  0  0  0  0
 11 12  1  6  0  0  0
 11 13  1  0  0  0  0
 11 19  1  0  0  0  0
 12 35  1  0  0  0  0
 13 14  1  0  0  0  0
 14 15  1  1  0  0  0
 14 16  1  0  0  0  0
 16  2  1  1  0  0  0
 16 17  1  0  0  0  0
 17 18  1  1  0  0  0
 17 19  1  0  0  0  0
 19 20  1  6  0  0  0
 21 20  1  1  0  0  0
 21 22  1  0  0  0  0
 21 29  1  0  0  0  0
 22 23  1  1  0  0  0
 22 24  1  0  0  0  0
 24 25  1  1  0  0  0
 24 26  1  0  0  0  0
 26 27  1  1  0  0  0
 26 28  1  0  0  0  0
 28 29  1  0  0  0  0
 28 30  1  6  0  0  0
 30 31  1  0  0  0  0
 34 39  1  0  0  0  0
 35 36  2  0  0  0  0
 37 35  1  1  0  0  0
 37 38  1  0  0  0  0
 37 40  1  0  0  0  0
 38 39  1  0  0  0  0
M  END
>  <CHROM.1>
-73.26139424,-66.96862168,-64.35966627,-56.35629200,-51.76326808,-115.67207629
56.12679909,48.20645686,-150.39008941,63.51295374,1.18743855,-8.82889304
18.21756694,-0.91972266,-0.16259905,-2.14903401

>  <Name>
2g5q_lig

>  <RI>
0

>  <Rbt.Current_Directory>
/home/itssahil/PROJECTS/Mol_Feturizer/New_Systems/rnas/2g5q

>  <Rbt.Executable>
rbdock ($Id: //depot/dev/client3/rdock/2013.1/src/exe/rbdock.cxx#4 $)

>  <Rbt.Library>
libRbt.so (2013.1, Build901 2013/11/27)

>  <Rbt.Parameter_File>
/export/apps/rDock/src/rDock_2013.1_src/data/scripts/dock_solv.prm

>  <Rbt.Receptor>
prm/pocket_docking_3.prm

>  <SCORE>
-17.6825

>  <SCORE.INTER>
-15.9572

>  <SCORE.INTER.CONST>
1

>  <SCORE.INTER.POLAR>
-0.838146

>  <SCORE.INTER.ROT>
10

>  <SCORE.INTER.SOLV>
20.3203

>  <SCORE.INTER.VDW>
-24.8844

>  <SCORE.INTER.norm>
-0.39893

>  <SCORE.INTRA>
-1.73246

>  <SCORE.INTRA.DIHEDRAL>
-10.4854

>  <SCORE.INTRA.DIHEDRAL.0>
22.5778

>  <SCORE.INTRA.POLAR>
0

>  <SCORE.INTRA.POLAR.0>
0

>  <SCORE.INTRA.REPUL>
0

>  <SCORE.INTRA.REPUL.0>
0

>  <SCORE.INTRA.SOLV>
4.24032

>  <SCORE.INTRA.SOLV.lig_0>
-102.332

>  <SCORE.INTRA.VDW>
1.39009

>  <SCORE.INTRA.VDW.0>
-5.08747

>  <SCORE.INTRA.norm>
-0.0433115

>  <SCORE.RESTR>
0.0071212

>  <SCORE.RESTR.CAVITY>
0.0071212

>  <SCORE.RESTR.norm>
0.00017803

>  <SCORE.SYSTEM>
0

>  <SCORE.SYSTEM.CONST>
0

>  <SCORE.SYSTEM.DIHEDRAL>
0

>  <SCORE.SYSTEM.SOLV>
0

>  <SCORE.SYSTEM.norm>
0

>  <SCORE.heavy>
40

>  <SCORE.norm>
-0.442063

>  <RMSD>
5.043

$$$$
2g5q_lig
 OpenBabel11021811433D
libRbt.so/2013.1/901 2013/11/27
 40 42  0  0  0  0  0  0  0  0999 V2000
    4.2111   -6.3531   19.7955 C   0  0  2  0  0  0  0  0  0  0  0  0
    2.8249   -6.6130   19.7749 O   0  0  0  0  0  0  0  0  0  0  0  0
    4.9247   -7.4968   20.5750 C   0  0  1  0  0  0  0  0  0  0  0  0
    4.5414   -7.4974   22.0872 C   0  0  2  0  0  0  0  0  0  0  0  0
    4.9522   -6.1250   22.6811 C   0  0  2  0  0  0  0  0  0  0  0  0
    4.6356   -6.0945   24.0823 O   0  0  0  0  0  0  0  0  0  0  0  0
    4.1750   -4.9920   21.8960 C   0  0  2  0  0  0  0  0  0  0  0  0
    4.5148   -5.0511   20.4455 O   0  0  0  0  0  0  0  0  0  0  0  0
    4.5160   -3.5906   22.3913 C   0  0  0  0  0  0  0  0  0  0  0  0
    3.6931   -2.5395   21.7134 N   0  0  0  0  0  0  0  0  0  0  0  0
    0.7403   -8.3350   16.3447 C   0  0  2  0  0  0  0  0  0  0  0  0
    0.1658   -9.3100   15.4254 N   0  0  0  0  0  0  0  0  0  0  0  0
    2.3048   -8.5603   16.4760 C   0  0  0  0  0  0  0  0  0  0  0  0
    2.9325   -7.5015   17.4656 C   0  0  2  0  0  0  0  0  0  0  0  0
    4.4010   -7.7164   17.5713 N   0  0  0  0  0  0  0  0  0  0  0  0
    2.2307   -7.6179   18.8770 C   0  0  2  0  0  0  0  0  0  0  0  0
    0.6762   -7.3924   18.7052 C   0  0  2  0  0  0  0  0  0  0  0  0
    0.0421   -7.5046   19.9833 O   0  0  0  0  0  0  0  0  0  0  0  0
    0.0679   -8.4683   17.7267 C   0  0  1  0  0  0  0  0  0  0  0  0
   -1.3616   -8.2507   17.5607 O   0  0  0  0  0  0  0  0  0  0  0  0
   -2.3024   -8.3521   18.6012 C   0  0  2  0  0  0  0  0  0  0  0  0
   -2.4301   -9.8684   18.9726 C   0  0  2  0  0  0  0  0  0  0  0  0
   -1.1922  -10.3516   19.3856 O   0  0  0  0  0  0  0  0  0  0  0  0
   -2.9859  -10.7065   17.7596 C   0  0  1  0  0  0  0  0  0  0  0  0
   -3.1162  -12.1600   18.1070 N   0  0  0  0  0  0  0  0  0  0  0  0
   -4.3848  -10.1033   17.3391 C   0  0  2  0  0  0  0  0  0  0  0  0
   -4.9446  -10.8299   16.2433 O   0  0  0  0  0  0  0  0  0  0  0  0
   -4.1889   -8.5917   16.9797 C   0  0  2  0  0  0  0  0  0  0  0  0
   -3.6021   -7.8341   18.1380 O   0  0  0  0  0  0  0  0  0  0  0  0
   -5.4853   -7.9381   16.5982 C   0  0  0  0  0  0  0  0  0  0  0  0
   -5.8758   -8.2943   15.2620 O   0  0  0  0  0  0  0  0  0  0  0  0
    4.5761   -8.7753   19.9411 O   0  0  0  0  0  0  0  0  0  0  0  0
    5.2090   -8.5174   22.7286 O   0  0  0  0  0  0  0  0  0  0  0  0
    2.6729  -12.3005   12.3076 N   0  0  0  0  0  0  0  0  0  0  0  0
    0.2379  -10.6882   15.5719 C   0  0  0  0  0  0  0  0  0  0  0  0
    0.8083  -11.2480   16.5017 O   0  0  0  0  0  0  0  0  0  0  0  0
   -0.4677  -11.4418   14.4208 C   0  0  1  0  0  0  0  0  0  0  0  0
    0.5622  -12.2586   13.6144 C   0  0  0  0  0  0  0  0  0  0  0  0
    1.6454  -11.4446   12.8972 C   0  0  0  0  0  0  0  0  0  0  0  0
   -1.4893  -12.3016   14.9744 O   0  0  0  0  0  0  0  0  0  0  0  0
  1  2  1  1  0  0  0
  1  3  1  0  0  0  0
  1  8  1  0  0  0  0
  3  4  1  0  0  0  0
  3 32  1  6  0  0  0
  4  5  1  0  0  0  0
  4 33  1  1  0  0  0
  5  6  1  1  0  0  0
  5  7  1  0  0  0  0
  7  8  1  0  0  0  0
  7  9  1  1  0  0  0
  9 10  1  0  0  0  0
 11 12  1  6  0  0  0
 11 13  1  0  0  0  0
 11 19  1  0  0  0  0
 12 35  1  0  0  0  0
 13 14  1  0  0  0  0
 14 15  1  1  0  0  0
 14 16  1  0  0  0  0
 16  2  1  1  0  0  0
 16 17  1  0  0  0  0
 17 18  1  1  0  0  0
 17 19  1  0  0  0  0
 19 20  1  6  0  0  0
 21 20  1  6  0  0  0
 21 22  1  0  0  0  0
 21 29  1  0  0  0  0
 22 23  1  6  0  0  0
 22 24  1  0  0  0  0
 24 25  1  1  0  0  0
 24 26  1  0  0  0  0
 26 27  1  6  0  0  0
 26 28  1  0  0  0  0
 28 29  1  0  0  0  0
 28 30  1  1  0  0  0
 30 31  1  0  0  0  0
 34 39  1  0  0  0  0
 35 36  2  0  0  0  0
 37 35  1  1  0  0  0
 37 38  1  0  0  0  0
 37 40  1  0  0  0  0
 38 39  1  0  0  0  0
M  END
>  <CHROM.1>
-76.86444031,-175.47212877,58.47821315,-41.29626290,177.15211968,-70.75819372
-77.02021581,115.56193991,-63.14348003,172.51023149,0.69237144,-8.53044140
18.22082181,-0.80224443,0.00843861,-2.23982129

>  <Name>
2g5q_lig

>  <RI>
0

>  <Rbt.Current_Directory>
/home/itssahil/PROJECTS/Mol_Feturizer/New_Systems/rnas/2g5q

>  <Rbt.Executable>
rbdock ($Id: //depot/dev/client3/rdock/2013.1/src/exe/rbdock.cxx#4 $)

>  <Rbt.Library>
libRbt.so (2013.1, Build901 2013/11/27)

>  <Rbt.Parameter_File>
/export/apps/rDock/src/rDock_2013.1_src/data/scripts/dock_solv.prm

>  <Rbt.Receptor>
prm/pocket_docking_3.prm

>  <SCORE>
-22.5638

>  <SCORE.INTER>
-19.1945

>  <SCORE.INTER.CONST>
1

>  <SCORE.INTER.POLAR>
-0.87185

>  <SCORE.INTER.ROT>
10

>  <SCORE.INTER.SOLV>
17.544

>  <SCORE.INTER.VDW>
-26.0048

>  <SCORE.INTER.norm>
-0.479861

>  <SCORE.INTRA>
-3.46436

>  <SCORE.INTRA.DIHEDRAL>
-15.3431

>  <SCORE.INTRA.DIHEDRAL.0>
22.5778

>  <SCORE.INTRA.POLAR>
0

>  <SCORE.INTRA.POLAR.0>
0

>  <SCORE.INTRA.REPUL>
0

>  <SCORE.INTRA.REPUL.0>
0

>  <SCORE.INTRA.SOLV>
3.89643

>  <SCORE.INTRA.SOLV.lig_0>
-102.332

>  <SCORE.INTRA.VDW>
2.25896

>  <SCORE.INTRA.VDW.0>
-5.08747

>  <SCORE.INTRA.norm>
-0.0866091

>  <SCORE.RESTR>
0.0949995

>  <SCORE.RESTR.CAVITY>
0.0949995

>  <SCORE.RESTR.norm>
0.00237499

>  <SCORE.SYSTEM>
0

>  <SCORE.SYSTEM.CONST>
0

>  <SCORE.SYSTEM.DIHEDRAL>
0

>  <SCORE.SYSTEM.SOLV>
0

>  <SCORE.SYSTEM.norm>
0

>  <SCORE.heavy>
40

>  <SCORE.norm>
-0.564095

>  <RMSD>
5.056

$$$$
2g5q_lig
 OpenBabel11021811433D
libRbt.so/2013.1/901 2013/11/27
 40 42  0  0  0  0  0  0  0  0999 V2000
    4.6044   -6.9342   20.8029 C   0  0  2  0  0  0  0  0  0  0  0  0
    3.3514   -7.5376   21.0385 O   0  0  0  0  0  0  0  0  0  0  0  0
    5.3734   -6.8304   22.1529 C   0  0  1  0  0  0  0  0  0  0  0  0
    4.6831   -5.8401   23.1411 C   0  0  2  0  0  0  0  0  0  0  0  0
    4.6334   -4.4479   22.4597 C   0  0  2  0  0  0  0  0  0  0  0  0
    4.0234   -3.4995   23.3502 O   0  0  0  0  0  0  0  0  0  0  0  0
    3.8076   -4.5821   21.1166 C   0  0  2  0  0  0  0  0  0  0  0  0
    4.4568   -5.5766   20.2154 O   0  0  0  0  0  0  0  0  0  0  0  0
    3.7064   -3.2664   20.3522 C   0  0  0  0  0  0  0  0  0  0  0  0
    2.9058   -2.2439   21.0973 N   0  0  0  0  0  0  0  0  0  0  0  0
    0.1432   -8.5032   18.2363 C   0  0  2  0  0  0  0  0  0  0  0  0
   -0.6088   -9.1524   17.1692 N   0  0  0  0  0  0  0  0  0  0  0  0
    1.4959   -7.9018   17.6667 C   0  0  0  0  0  0  0  0  0  0  0  0
    2.3105   -7.1912   18.8181 C   0  0  2  0  0  0  0  0  0  0  0  0
    3.5708   -6.6220   18.2689 N   0  0  0  0  0  0  0  0  0  0  0  0
    2.6033   -8.2282   19.9744 C   0  0  2  0  0  0  0  0  0  0  0  0
    1.2351   -8.8076   20.5122 C   0  0  2  0  0  0  0  0  0  0  0  0
    1.5029   -9.7509   21.5546 O   0  0  0  0  0  0  0  0  0  0  0  0
    0.4460   -9.5252   19.3515 C   0  0  1  0  0  0  0  0  0  0  0  0
   -0.8192  -10.0471   19.8468 O   0  0  0  0  0  0  0  0  0  0  0  0
   -1.6334   -9.3868   20.7845 C   0  0  2  0  0  0  0  0  0  0  0  0
   -2.7900  -10.3680   21.1753 C   0  0  2  0  0  0  0  0  0  0  0  0
   -2.2507  -11.5259   21.7275 O   0  0  0  0  0  0  0  0  0  0  0  0
   -3.6945  -10.7060   19.9302 C   0  0  1  0  0  0  0  0  0  0  0  0
   -4.8085  -11.6420   20.2954 N   0  0  0  0  0  0  0  0  0  0  0  0
   -4.2676   -9.3520   19.3509 C   0  0  2  0  0  0  0  0  0  0  0  0
   -5.1056   -9.5958   18.2193 O   0  0  0  0  0  0  0  0  0  0  0  0
   -3.0655   -8.4196   18.9793 C   0  0  2  0  0  0  0  0  0  0  0  0
   -2.1906   -8.1660   20.1751 O   0  0  0  0  0  0  0  0  0  0  0  0
   -3.5322   -7.0952   18.4484 C   0  0  0  0  0  0  0  0  0  0  0  0
   -2.4219   -6.2432   18.1226 O   0  0  0  0  0  0  0  0  0  0  0  0
    5.4695   -8.1760   22.7345 O   0  0  0  0  0  0  0  0  0  0  0  0
    5.4102   -5.7773   24.3093 O   0  0  0  0  0  0  0  0  0  0  0  0
    0.3729  -11.7921   13.0208 N   0  0  0  0  0  0  0  0  0  0  0  0
   -0.1842  -10.2608   16.4500 C   0  0  0  0  0  0  0  0  0  0  0  0
    0.8912  -10.8216   16.6299 O   0  0  0  0  0  0  0  0  0  0  0  0
   -1.2123  -10.7008   15.3823 C   0  0  1  0  0  0  0  0  0  0  0  0
   -1.0144  -12.1915   15.0408 C   0  0  0  0  0  0  0  0  0  0  0  0
    0.2678  -12.5361   14.2743 C   0  0  0  0  0  0  0  0  0  0  0  0
   -2.5467  -10.4583   15.8820 O   0  0  0  0  0  0  0  0  0  0  0  0
  1  2  1  1  0  0  0
  1  3  1  0  0  0  0
  1  8  1  0  0  0  0
  3  4  1  0  0  0  0
  3 32  1  1  0  0  0
  4  5  1  0  0  0  0
  4 33  1  1  0  0  0
  5  6  1  1  0  0  0
  5  7  1  0  0  0  0
  7  8  1  0  0  0  0
  7  9  1  6  0  0  0
  9 10  1  0  0  0  0
 11 12  1  6  0  0  0
 11 13  1  0  0  0  0
 11 19  1  0  0  0  0
 12 35  1  0  0  0  0
 13 14  1  0  0  0  0
 14 15  1  6  0  0  0
 14 16  1  0  0  0  0
 16  2  1  1  0  0  0
 16 17  1  0  0  0  0
 17 18  1  1  0  0  0
 17 19  1  0  0  0  0
 19 20  1  1  0  0  0
 21 20  1  6  0  0  0
 21 22  1  0  0  0  0
 21 29  1  0  0  0  0
 22 23  1  6  0  0  0
 22 24  1  0  0  0  0
 24 25  1  1  0  0  0
 24 26  1  0  0  0  0
 26 27  1  6  0  0  0
 26 28  1  0  0  0  0
 28 29  1  0  0  0  0
 28 30  1  1  0  0  0
 30 31  1  0  0  0  0
 34 39  1  0  0  0  0
 35 36  2  0  0  0  0
 37 35  1  1  0  0  0
 37 38  1  0  0  0  0
 37 40  1  0  0  0  0
 38 39  1  0  0  0  0
M  END
>  <CHROM.1>
-156.82656104,-66.08787929,63.34425499,-59.70511678,-81.32946128,-172.81223720
179.45384875,-156.32574552,-69.51029843,-56.88465508,0.63094767,-8.28849114
19.48089537,-0.74161777,-0.32744980,-2.08439322

>  <Name>
2g5q_lig

>  <RI>
0

>  <Rbt.Current_Directory>
/home/itssahil/PROJECTS/Mol_Feturizer/New_Systems/rnas/2g5q

>  <Rbt.Executable>
rbdock ($Id: //depot/dev/client3/rdock/2013.1/src/exe/rbdock.cxx#4 $)

>  <Rbt.Library>
libRbt.so (2013.1, Build901 2013/11/27)

>  <Rbt.Parameter_File>
/export/apps/rDock/src/rDock_2013.1_src/data/scripts/dock_solv.prm

>  <Rbt.Receptor>
prm/pocket_docking_5.prm

>  <SCORE>
-18.5017

>  <SCORE.INTER>
-15.2841

>  <SCORE.INTER.CONST>
1

>  <SCORE.INTER.POLAR>
-0.627752

>  <SCORE.INTER.ROT>
10

>  <SCORE.INTER.SOLV>
20.824

>  <SCORE.INTER.VDW>
-25.3049

>  <SCORE.INTER.norm>
-0.382104

>  <SCORE.INTRA>
-3.2369

>  <SCORE.INTRA.DIHEDRAL>
-16.0875

>  <SCORE.INTRA.DIHEDRAL.0>
22.5778

>  <SCORE.INTRA.POLAR>
0

>  <SCORE.INTRA.POLAR.0>
0

>  <SCORE.INTRA.REPUL>
0

>  <SCORE.INTRA.REPUL.0>
0

>  <SCORE.INTRA.SOLV>
5.63374

>  <SCORE.INTRA.SOLV.lig_0>
-102.332

>  <SCORE.INTRA.VDW>
1.98997

>  <SCORE.INTRA.VDW.0>
-5.08747

>  <SCORE.INTRA.norm>
-0.0809225

>  <SCORE.RESTR>
0.0193282

>  <SCORE.RESTR.CAVITY>
0.0193282

>  <SCORE.RESTR.norm>
0.000483204

>  <SCORE.SYSTEM>
0

>  <SCORE.SYSTEM.CONST>
0

>  <SCORE.SYSTEM.DIHEDRAL>
0

>  <SCORE.SYSTEM.SOLV>
0

>  <SCORE.SYSTEM.norm>
0

>  <SCORE.heavy>
40

>  <SCORE.norm>
-0.462543

>  <RMSD>
5.125

$$$$
2g5q_lig
 OpenBabel11021811433D
libRbt.so/2013.1/901 2013/11/27
 40 42  0  0  0  0  0  0  0  0999 V2000
    3.7532   -6.8877   18.9627 C   0  0  2  0  0  0  0  0  0  0  0  0
    2.3750   -7.1599   19.0892 O   0  0  0  0  0  0  0  0  0  0  0  0
    4.5192   -7.6415   20.0895 C   0  0  1  0  0  0  0  0  0  0  0  0
    4.1750   -7.0796   21.5035 C   0  0  2  0  0  0  0  0  0  0  0  0
    4.5612   -5.5778   21.5238 C   0  0  2  0  0  0  0  0  0  0  0  0
    4.2799   -5.0276   22.8209 O   0  0  0  0  0  0  0  0  0  0  0  0
    3.7317   -4.8370   20.3980 C   0  0  2  0  0  0  0  0  0  0  0  0
    4.0357   -5.4317   19.0651 O   0  0  0  0  0  0  0  0  0  0  0  0
    4.0447   -3.3466   20.3186 C   0  0  0  0  0  0  0  0  0  0  0  0
    3.6382   -2.6201   21.5630 N   0  0  0  0  0  0  0  0  0  0  0  0
    0.0158   -9.8978   16.6366 C   0  0  2  0  0  0  0  0  0  0  0  0
   -0.5702  -11.1257   16.1123 N   0  0  0  0  0  0  0  0  0  0  0  0
    1.5978   -9.9600   16.5396 C   0  0  0  0  0  0  0  0  0  0  0  0
    2.2366   -8.6286   17.0999 C   0  0  2  0  0  0  0  0  0  0  0  0
    3.7192   -8.6951   16.9931 N   0  0  0  0  0  0  0  0  0  0  0  0
    1.7765   -8.4121   18.5964 C   0  0  2  0  0  0  0  0  0  0  0  0
    0.1982   -8.3599   18.6531 C   0  0  2  0  0  0  0  0  0  0  0  0
   -0.2162   -8.1702   20.0097 O   0  0  0  0  0  0  0  0  0  0  0  0
   -0.4178   -9.7031   18.1042 C   0  0  1  0  0  0  0  0  0  0  0  0
   -1.8716   -9.6476   18.1461 O   0  0  0  0  0  0  0  0  0  0  0  0
   -2.6528   -8.7910   17.3497 C   0  0  2  0  0  0  0  0  0  0  0  0
   -3.7395   -8.1491   18.2771 C   0  0  2  0  0  0  0  0  0  0  0  0
   -3.1176   -7.4346   19.2964 O   0  0  0  0  0  0  0  0  0  0  0  0
   -4.7052   -9.2460   18.8660 C   0  0  1  0  0  0  0  0  0  0  0  0
   -5.7529   -8.6403   19.7524 N   0  0  0  0  0  0  0  0  0  0  0  0
   -5.3710  -10.0204   17.6599 C   0  0  2  0  0  0  0  0  0  0  0  0
   -6.2671  -11.0278   18.1334 O   0  0  0  0  0  0  0  0  0  0  0  0
   -4.2355  -10.6379   16.7756 C   0  0  2  0  0  0  0  0  0  0  0  0
   -3.2989   -9.5718   16.2796 O   0  0  0  0  0  0  0  0  0  0  0  0
   -4.7909  -11.3668   15.5865 C   0  0  0  0  0  0  0  0  0  0  0  0
   -5.5566  -10.4876   14.7465 O   0  0  0  0  0  0  0  0  0  0  0  0
    4.1915   -9.0704   19.9946 O   0  0  0  0  0  0  0  0  0  0  0  0
    4.8881   -7.7716   22.4575 O   0  0  0  0  0  0  0  0  0  0  0  0
    1.7253  -15.1652   14.9855 N   0  0  0  0  0  0  0  0  0  0  0  0
   -0.6641  -11.4579   14.7681 C   0  0  0  0  0  0  0  0  0  0  0  0
   -0.2651  -10.7408   13.8571 O   0  0  0  0  0  0  0  0  0  0  0  0
   -1.3449  -12.8280   14.5450 C   0  0  1  0  0  0  0  0  0  0  0  0
   -0.2816  -13.9041   14.2460 C   0  0  0  0  0  0  0  0  0  0  0  0
    0.6796  -14.2300   15.3951 C   0  0  0  0  0  0  0  0  0  0  0  0
   -2.1115  -13.1725   15.7211 O   0  0  0  0  0  0  0  0  0  0  0  0
  1  2  1  1  0  0  0
  1  3  1  0  0  0  0
  1  8  1  0  0  0  0
  3  4  1  0  0  0  0
  3 32  1  1  0  0  0
  4  5  1  0  0  0  0
  4 33  1  1  0  0  0
  5  6  1  1  0  0  0
  5  7  1  0  0  0  0
  7  8  1  0  0  0  0
  7  9  1  6  0  0  0
  9 10  1  0  0  0  0
 11 12  1  1  0  0  0
 11 13  1  0  0  0  0
 11 19  1  0  0  0  0
 12 35  1  0  0  0  0
 13 14  1  0  0  0  0
 14 15  1  1  0  0  0
 14 16  1  0  0  0  0
 16  2  1  6  0  0  0
 16 17  1  0  0  0  0
 17 18  1  1  0  0  0
 17 19  1  0  0  0  0
 19 20  1  6  0  0  0
 21 20  1  1  0  0  0
 21 22  1  0  0  0  0
 21 29  1  0  0  0  0
 22 23  1  1  0  0  0
 22 24  1  0  0  0  0
 24 25  1  6  0  0  0
 24 26  1  0  0  0  0
 26 27  1  1  0  0  0
 26 28  1  0  0  0  0
 28 29  1  0  0  0  0
 28 30  1  6  0  0  0
 30 31  1  0  0  0  0
 34 39  1  0  0  0  0
 35 36  2  0  0  0  0
 37 35  1  1  0  0  0
 37 38  1  0  0  0  0
 37 40  1  0  0  0  0
 38 39  1  0  0  0  0
M  END
>  <CHROM.1>
-79.88736231,-64.57312491,-74.82171113,-50.62275091,-52.20622367,-134.92383530
60.05027145,-101.78653045,65.92628936,-174.72509305,0.05947643,-9.04371208
18.04114490,-0.78650232,0.01600241,-2.45807968

>  <Name>
2g5q_lig

>  <RI>
0

>  <Rbt.Current_Directory>
/home/itssahil/PROJECTS/Mol_Feturizer/New_Systems/rnas/2g5q

>  <Rbt.Executable>
rbdock ($Id: //depot/dev/client3/rdock/2013.1/src/exe/rbdock.cxx#4 $)

>  <Rbt.Library>
libRbt.so (2013.1, Build901 2013/11/27)

>  <Rbt.Parameter_File>
/export/apps/rDock/src/rDock_2013.1_src/data/scripts/dock_solv.prm

>  <Rbt.Receptor>
prm/pocket_docking_3.prm

>  <SCORE>
-18.2481

>  <SCORE.INTER>
-15.5402

>  <SCORE.INTER.CONST>
1

>  <SCORE.INTER.POLAR>
-0.869439

>  <SCORE.INTER.ROT>
10

>  <SCORE.INTER.SOLV>
15.7876

>  <SCORE.INTER.VDW>
-22.9912

>  <SCORE.INTER.norm>
-0.388504

>  <SCORE.INTRA>
-2.70792

>  <SCORE.INTRA.DIHEDRAL>
-11.3463

>  <SCORE.INTRA.DIHEDRAL.0>
22.5778

>  <SCORE.INTRA.POLAR>
0

>  <SCORE.INTRA.POLAR.0>
0

>  <SCORE.INTRA.REPUL>
0

>  <SCORE.INTRA.REPUL.0>
0

>  <SCORE.INTRA.SOLV>
3.95754

>  <SCORE.INTRA.SOLV.lig_0>
-102.332

>  <SCORE.INTRA.VDW>
0.986479

>  <SCORE.INTRA.VDW.0>
-5.08747

>  <SCORE.INTRA.norm>
-0.067698

>  <SCORE.RESTR>
0

>  <SCORE.RESTR.CAVITY>
0

>  <SCORE.RESTR.norm>
0

>  <SCORE.SYSTEM>
0

>  <SCORE.SYSTEM.CONST>
0

>  <SCORE.SYSTEM.DIHEDRAL>
0

>  <SCORE.SYSTEM.SOLV>
0

>  <SCORE.SYSTEM.norm>
0

>  <SCORE.heavy>
40

>  <SCORE.norm>
-0.456202

>  <RMSD>
5.258

$$$$
2g5q_lig
 OpenBabel11021811433D
libRbt.so/2013.1/901 2013/11/27
 40 42  0  0  0  0  0  0  0  0999 V2000
    4.2368   -6.3820   19.7071 C   0  0  2  0  0  0  0  0  0  0  0  0
    2.9161   -6.8768   19.7259 O   0  0  0  0  0  0  0  0  0  0  0  0
    5.1604   -7.3875   20.4559 C   0  0  1  0  0  0  0  0  0  0  0  0
    4.8298   -7.4582   21.9788 C   0  0  2  0  0  0  0  0  0  0  0  0
    5.0162   -6.0371   22.5709 C   0  0  2  0  0  0  0  0  0  0  0  0
    4.7425   -6.0652   23.9811 O   0  0  0  0  0  0  0  0  0  0  0  0
    4.0317   -5.0530   21.8184 C   0  0  2  0  0  0  0  0  0  0  0  0
    4.3317   -5.0488   20.3580 O   0  0  0  0  0  0  0  0  0  0  0  0
    4.1414   -3.6150   22.3143 C   0  0  0  0  0  0  0  0  0  0  0  0
    3.0639   -2.7423   21.7495 N   0  0  0  0  0  0  0  0  0  0  0  0
    0.8326   -9.0474   16.5597 C   0  0  2  0  0  0  0  0  0  0  0  0
    0.4074  -10.1238   15.6730 N   0  0  0  0  0  0  0  0  0  0  0  0
    2.3926   -8.8003   16.4136 C   0  0  0  0  0  0  0  0  0  0  0  0
    2.8564   -7.6299   17.3674 C   0  0  2  0  0  0  0  0  0  0  0  0
    4.3184   -7.4007   17.2127 N   0  0  0  0  0  0  0  0  0  0  0  0
    2.4848   -7.9883   18.8612 C   0  0  2  0  0  0  0  0  0  0  0  0
    0.9269   -8.2311   18.9659 C   0  0  2  0  0  0  0  0  0  0  0  0
    0.5938   -8.5616   20.3178 O   0  0  0  0  0  0  0  0  0  0  0  0
    0.4883   -9.4123   18.0186 C   0  0  1  0  0  0  0  0  0  0  0  0
   -0.9487   -9.6256   18.1077 O   0  0  0  0  0  0  0  0  0  0  0  0
   -1.9136   -8.6871   17.7001 C   0  0  2  0  0  0  0  0  0  0  0  0
   -2.8231   -8.3811   18.9380 C   0  0  2  0  0  0  0  0  0  0  0  0
   -2.0454   -7.8642   19.9698 O   0  0  0  0  0  0  0  0  0  0  0  0
   -3.5976   -9.6703   19.4078 C   0  0  1  0  0  0  0  0  0  0  0  0
   -4.4753   -9.3862   20.5907 N   0  0  0  0  0  0  0  0  0  0  0  0
   -4.4525  -10.2064   18.1916 C   0  0  2  0  0  0  0  0  0  0  0  0
   -5.1863  -11.3759   18.5605 O   0  0  0  0  0  0  0  0  0  0  0  0
   -3.4880  -10.4940   16.9918 C   0  0  2  0  0  0  0  0  0  0  0  0
   -2.7218   -9.2588   16.6083 O   0  0  0  0  0  0  0  0  0  0  0  0
   -4.2336  -10.9796   15.7827 C   0  0  0  0  0  0  0  0  0  0  0  0
   -3.3345  -11.2948   14.7070 O   0  0  0  0  0  0  0  0  0  0  0  0
    5.0178   -8.7054   19.8226 O   0  0  0  0  0  0  0  0  0  0  0  0
    5.6825   -8.3495   22.5919 O   0  0  0  0  0  0  0  0  0  0  0  0
    3.2223  -12.7427   11.8264 N   0  0  0  0  0  0  0  0  0  0  0  0
    0.6327  -10.1702   14.3043 C   0  0  0  0  0  0  0  0  0  0  0  0
    1.2172   -9.2933   13.6776 O   0  0  0  0  0  0  0  0  0  0  0  0
    0.0484  -11.4449   13.6529 C   0  0  1  0  0  0  0  0  0  0  0  0
    1.1898  -12.3805   13.2057 C   0  0  0  0  0  0  0  0  0  0  0  0
    2.1361  -11.8164   12.1396 C   0  0  0  0  0  0  0  0  0  0  0  0
   -0.8192  -12.1058   14.6014 O   0  0  0  0  0  0  0  0  0  0  0  0
  1  2  1  1  0  0  0
  1  3  1  0  0  0  0
  1  8  1  0  0  0  0
  3  4  1  0  0  0  0
  3 32  1  6  0  0  0
  4  5  1  0  0  0  0
  4 33  1  1  0  0  0
  5  6  1  1  0  0  0
  5  7  1  0  0  0  0
  7  8  1  0  0  0  0
  7  9  1  1  0  0  0
  9 10  1  0  0  0  0
 11 12  1  6  0  0  0
 11 13  1  0  0  0  0
 11 19  1  0  0  0  0
 12 35  1  0  0  0  0
 13 14  1  0  0  0  0
 14 15  1  1  0  0  0
 14 16  1  0  0  0  0
 16  2  1  1  0  0  0
 16 17  1  0  0  0  0
 17 18  1  1  0  0  0
 17 19  1  0  0  0  0
 19 20  1  6  0  0  0
 21 20  1  1  0  0  0
 21 22  1  0  0  0  0
 21 29  1  0  0  0  0
 22 23  1  1  0  0  0
 22 24  1  0  0  0  0
 24 25  1  1  0  0  0
 24 26  1  0  0  0  0
 26 27  1  1  0  0  0
 26 28  1  0  0  0  0
 28 29  1  0  0  0  0
 28 30  1  6  0  0  0
 30 31  1  0  0  0  0
 34 39  1  0  0  0  0
 35 36  2  0  0  0  0
 37 35  1  1  0  0  0
 37 38  1  0  0  0  0
 37 40  1  0  0  0  0
 38 39  1  0  0  0  0
M  END
>  <CHROM.1>
-75.37360211,-171.11320211,-54.51422742,-53.39020442,-54.65535432,-122.54963032
-177.52165227,-109.90254014,-62.32594226,177.15421476,0.91431789,-8.71182530
18.15511436,-0.89422168,-0.19904764,-2.09288189

>  <Name>
2g5q_lig

>  <RI>
0

>  <Rbt.Current_Directory>
/home/itssahil/PROJECTS/Mol_Feturizer/New_Systems/rnas/2g5q

>  <Rbt.Executable>
rbdock ($Id: //depot/dev/client3/rdock/2013.1/src/exe/rbdock.cxx#4 $)

>  <Rbt.Library>
libRbt.so (2013.1, Build901 2013/11/27)

>  <Rbt.Parameter_File>
/export/apps/rDock/src/rDock_2013.1_src/data/scripts/dock_solv.prm

>  <Rbt.Receptor>
prm/pocket_docking_5.prm

>  <SCORE>
-18.854

>  <SCORE.INTER>
-16.4744

>  <SCORE.INTER.CONST>
1

>  <SCORE.INTER.POLAR>
-0.447066

>  <SCORE.INTER.ROT>
10

>  <SCORE.INTER.SOLV>
20.2829

>  <SCORE.INTER.VDW>
-26.5204

>  <SCORE.INTER.norm>
-0.41186

>  <SCORE.INTRA>
-2.37957

>  <SCORE.INTRA.DIHEDRAL>
-11.2288

>  <SCORE.INTRA.DIHEDRAL.0>
22.5778

>  <SCORE.INTRA.POLAR>
0

>  <SCORE.INTRA.POLAR.0>
0

>  <SCORE.INTRA.REPUL>
0

>  <SCORE.INTRA.REPUL.0>
0

>  <SCORE.INTRA.SOLV>
2.6753

>  <SCORE.INTRA.SOLV.lig_0>
-102.332

>  <SCORE.INTRA.VDW>
1.89717

>  <SCORE.INTRA.VDW.0>
-5.08747

>  <SCORE.INTRA.norm>
-0.0594892

>  <SCORE.RESTR>
0

>  <SCORE.RESTR.CAVITY>
0

>  <SCORE.RESTR.norm>
0

>  <SCORE.SYSTEM>
0

>  <SCORE.SYSTEM.CONST>
0

>  <SCORE.SYSTEM.DIHEDRAL>
0

>  <SCORE.SYSTEM.SOLV>
0

>  <SCORE.SYSTEM.norm>
0

>  <SCORE.heavy>
40

>  <SCORE.norm>
-0.471349

>  <RMSD>
5.288

$$$$
2g5q_lig
 OpenBabel11021811433D
libRbt.so/2013.1/901 2013/11/27
 40 42  0  0  0  0  0  0  0  0999 V2000
    2.8222   -8.4320   19.8037 C   0  0  2  0  0  0  0  0  0  0  0  0
    1.9758   -8.9066   20.8273 O   0  0  0  0  0  0  0  0  0  0  0  0
    4.3007   -8.5599   20.2753 C   0  0  1  0  0  0  0  0  0  0  0  0
    4.6158   -7.6044   21.4676 C   0  0  2  0  0  0  0  0  0  0  0  0
    4.3413   -6.1525   20.9970 C   0  0  2  0  0  0  0  0  0  0  0  0
    4.6427   -5.2376   22.0630 O   0  0  0  0  0  0  0  0  0  0  0  0
    2.8214   -6.0487   20.5690 C   0  0  2  0  0  0  0  0  0  0  0  0
    2.5340   -7.0127   19.4685 O   0  0  0  0  0  0  0  0  0  0  0  0
    2.4418   -4.6577   20.0724 C   0  0  0  0  0  0  0  0  0  0  0  0
    2.5734   -3.6226   21.1461 N   0  0  0  0  0  0  0  0  0  0  0  0
   -0.4541  -11.8635   18.7226 C   0  0  2  0  0  0  0  0  0  0  0  0
   -1.4560  -12.8880   18.4537 N   0  0  0  0  0  0  0  0  0  0  0  0
    0.5564  -12.3638   19.8382 C   0  0  0  0  0  0  0  0  0  0  0  0
    1.6480  -11.2595   20.1275 C   0  0  2  0  0  0  0  0  0  0  0  0
    2.5955  -11.7453   21.1669 N   0  0  0  0  0  0  0  0  0  0  0  0
    0.9378   -9.9209   20.5766 C   0  0  2  0  0  0  0  0  0  0  0  0
   -0.0620   -9.4572   19.4442 C   0  0  2  0  0  0  0  0  0  0  0  0
   -0.7084   -8.2486   19.8557 O   0  0  0  0  0  0  0  0  0  0  0  0
   -1.1511  -10.5663   19.1824 C   0  0  1  0  0  0  0  0  0  0  0  0
   -2.0631  -10.1419   18.1305 O   0  0  0  0  0  0  0  0  0  0  0  0
   -3.1808  -10.8833   17.7071 C   0  0  2  0  0  0  0  0  0  0  0  0
   -3.7329  -10.2007   16.4100 C   0  0  2  0  0  0  0  0  0  0  0  0
   -2.7466  -10.2018   15.4283 O   0  0  0  0  0  0  0  0  0  0  0  0
   -4.2316   -8.7357   16.7059 C   0  0  1  0  0  0  0  0  0  0  0  0
   -4.7667   -8.0748   15.4701 N   0  0  0  0  0  0  0  0  0  0  0  0
   -5.3413   -8.8065   17.8288 C   0  0  2  0  0  0  0  0  0  0  0  0
   -5.8395   -7.5028   18.1361 O   0  0  0  0  0  0  0  0  0  0  0  0
   -4.7276   -9.4948   19.0945 C   0  0  2  0  0  0  0  0  0  0  0  0
   -4.2082  -10.8662   18.7636 O   0  0  0  0  0  0  0  0  0  0  0  0
   -5.7353   -9.6272   20.1994 C   0  0  0  0  0  0  0  0  0  0  0  0
   -6.2024   -8.3405   20.6364 O   0  0  0  0  0  0  0  0  0  0  0  0
    4.5495   -9.9608   20.6409 O   0  0  0  0  0  0  0  0  0  0  0  0
    5.9358   -7.7489   21.8339 O   0  0  0  0  0  0  0  0  0  0  0  0
   -7.0402  -15.2945   19.5889 N   0  0  0  0  0  0  0  0  0  0  0  0
   -2.4638  -13.2715   19.3273 C   0  0  0  0  0  0  0  0  0  0  0  0
   -2.6215  -12.7888   20.4433 O   0  0  0  0  0  0  0  0  0  0  0  0
   -3.3575  -14.3898   18.7431 C   0  0  1  0  0  0  0  0  0  0  0  0
   -4.7520  -14.3494   19.4002 C   0  0  0  0  0  0  0  0  0  0  0  0
   -5.7331  -15.4385   18.9511 C   0  0  0  0  0  0  0  0  0  0  0  0
   -3.4562  -14.2170   17.3114 O   0  0  0  0  0  0  0  0  0  0  0  0
  1  2  1  1  0  0  0
  1  3  1  0  0  0  0
  1  8  1  0  0  0  0
  3  4  1  0  0  0  0
  3 32  1  1  0  0  0
  4  5  1  0  0  0  0
  4 33  1  6  0  0  0
  5  6  1  1  0  0  0
  5  7  1  0  0  0  0
  7  8  1  0  0  0  0
  7  9  1  6  0  0  0
  9 10  1  0  0  0  0
 11 12  1  1  0  0  0
 11 13  1  0  0  0  0
 11 19  1  0  0  0  0
 12 35  1  0  0  0  0
 13 14  1  0  0  0  0
 14 15  1  1  0  0  0
 14 16  1  0  0  0  0
 16  2  1  6  0  0  0
 16 17  1  0  0  0  0
 17 18  1  1  0  0  0
 17 19  1  0  0  0  0
 19 20  1  6  0  0  0
 21 20  1  1  0  0  0
 21 22  1  0  0  0  0
 21 29  1  0  0  0  0
 22 23  1  6  0  0  0
 22 24  1  0  0  0  0
 24 25  1  6  0  0  0
 24 26  1  0  0  0  0
 26 27  1  1  0  0  0
 26 28  1  0  0  0  0
 28 29  1  0  0  0  0
 28 30  1  1  0  0  0
 30 31  1  0  0  0  0
 34 39  1  0  0  0  0
 35 36  2  0  0  0  0
 37 35  1  1  0  0  0
 37 38  1  0  0  0  0
 37 40  1  0  0  0  0
 38 39  1  0  0  0  0
M  END
>  <CHROM.1>
-127.92634224,-63.73613744,69.62114025,63.54927623,63.57009490,-170.35978374
-61.74302244,-154.98958859,-177.91099852,-177.99547963,-0.91757094,-9.84497086
19.38041427,-0.48685557,0.31942514,3.07632888

>  <Name>
2g5q_lig

>  <RI>
2.47104e+07

>  <Rbt.Current_Directory>
/home/itssahil/PROJECTS/Mol_Feturizer/New_Systems/rnas/2g5q

>  <Rbt.Executable>
rbdock ($Id: //depot/dev/client3/rdock/2013.1/src/exe/rbdock.cxx#4 $)

>  <Rbt.Library>
libRbt.so (2013.1, Build901 2013/11/27)

>  <Rbt.Parameter_File>
/export/apps/rDock/src/rDock_2013.1_src/data/scripts/dock_solv.prm

>  <Rbt.Receptor>
prm/pocket_docking_7.prm

>  <SCORE>
-13.374

>  <SCORE.INTER>
-9.16238

>  <SCORE.INTER.CONST>
1

>  <SCORE.INTER.POLAR>
-1.59185

>  <SCORE.INTER.ROT>
10

>  <SCORE.INTER.SOLV>
14.0396

>  <SCORE.INTER.VDW>
-15.7486

>  <SCORE.INTER.norm>
-0.229059

>  <SCORE.INTRA>
-4.21166

>  <SCORE.INTRA.DIHEDRAL>
-13.5013

>  <SCORE.INTRA.DIHEDRAL.0>
22.5778

>  <SCORE.INTRA.POLAR>
0

>  <SCORE.INTRA.POLAR.0>
0

>  <SCORE.INTRA.REPUL>
0

>  <SCORE.INTRA.REPUL.0>
0

>  <SCORE.INTRA.SOLV>
3.27669

>  <SCORE.INTRA.SOLV.lig_0>
-102.332

>  <SCORE.INTRA.VDW>
0.900673

>  <SCORE.INTRA.VDW.0>
-5.08747

>  <SCORE.INTRA.norm>
-0.105291

>  <SCORE.RESTR>
0

>  <SCORE.RESTR.CAVITY>
0

>  <SCORE.RESTR.norm>
0

>  <SCORE.SYSTEM>
0

>  <SCORE.SYSTEM.CONST>
0

>  <SCORE.SYSTEM.DIHEDRAL>
0

>  <SCORE.SYSTEM.SOLV>
0

>  <SCORE.SYSTEM.norm>
0

>  <SCORE.heavy>
40

>  <SCORE.norm>
-0.334351

>  <RMSD>
5.292

$$$$
2g5q_lig
 OpenBabel11021811433D
libRbt.so/2013.1/901 2013/11/27
 40 42  0  0  0  0  0  0  0  0999 V2000
    3.9678   -6.8215   18.9385 C   0  0  2  0  0  0  0  0  0  0  0  0
    2.6071   -7.1815   19.0305 O   0  0  0  0  0  0  0  0  0  0  0  0
    4.7879   -7.7011   19.9277 C   0  0  1  0  0  0  0  0  0  0  0  0
    4.4373   -7.3857   21.4147 C   0  0  2  0  0  0  0  0  0  0  0  0
    4.7476   -5.8874   21.6674 C   0  0  2  0  0  0  0  0  0  0  0  0
    4.4587   -5.5621   23.0368 O   0  0  0  0  0  0  0  0  0  0  0  0
    3.8649   -5.0241   20.6777 C   0  0  2  0  0  0  0  0  0  0  0  0
    4.1782   -5.3867   19.2659 O   0  0  0  0  0  0  0  0  0  0  0  0
    4.1012   -3.5254   20.8307 C   0  0  0  0  0  0  0  0  0  0  0  0
    3.0471   -2.7171   20.1400 N   0  0  0  0  0  0  0  0  0  0  0  0
    0.4327   -9.3322   15.9122 C   0  0  2  0  0  0  0  0  0  0  0  0
   -0.1195  -10.4200   15.1138 N   0  0  0  0  0  0  0  0  0  0  0  0
    2.0166   -9.4141   15.9301 C   0  0  0  0  0  0  0  0  0  0  0  0
    2.6194   -8.2330   16.7882 C   0  0  2  0  0  0  0  0  0  0  0  0
    4.1051   -8.3147   16.7878 N   0  0  0  0  0  0  0  0  0  0  0  0
    2.0397   -8.2991   18.2571 C   0  0  2  0  0  0  0  0  0  0  0  0
    0.4627   -8.2192   18.1981 C   0  0  2  0  0  0  0  0  0  0  0  0
   -0.0602   -8.2857   19.5286 O   0  0  0  0  0  0  0  0  0  0  0  0
   -0.1185   -9.4147   17.3507 C   0  0  1  0  0  0  0  0  0  0  0  0
   -1.5702   -9.3318   17.2877 O   0  0  0  0  0  0  0  0  0  0  0  0
   -2.4239  -10.4483   17.2347 C   0  0  2  0  0  0  0  0  0  0  0  0
   -3.8593   -9.9258   16.8886 C   0  0  2  0  0  0  0  0  0  0  0  0
   -3.8327   -9.2735   15.6596 O   0  0  0  0  0  0  0  0  0  0  0  0
   -4.4068   -8.9749   18.0194 C   0  0  1  0  0  0  0  0  0  0  0  0
   -5.7836   -8.4726   17.6991 N   0  0  0  0  0  0  0  0  0  0  0  0
   -4.4048   -9.7733   19.3832 C   0  0  2  0  0  0  0  0  0  0  0  0
   -4.9003   -8.9615   20.4499 O   0  0  0  0  0  0  0  0  0  0  0  0
   -2.9462  -10.2649   19.6717 C   0  0  2  0  0  0  0  0  0  0  0  0
   -2.4333  -11.1199   18.5466 O   0  0  0  0  0  0  0  0  0  0  0  0
   -2.8687  -11.0620   20.9415 C   0  0  0  0  0  0  0  0  0  0  0  0
   -3.8663  -12.0958   20.9702 O   0  0  0  0  0  0  0  0  0  0  0  0
    4.5311   -9.1128   19.6123 O   0  0  0  0  0  0  0  0  0  0  0  0
    5.1987   -8.1801   22.2433 O   0  0  0  0  0  0  0  0  0  0  0  0
    0.6139  -14.6046   16.3578 N   0  0  0  0  0  0  0  0  0  0  0  0
    0.2672  -11.7503   15.1964 C   0  0  0  0  0  0  0  0  0  0  0  0
    1.1355  -12.1639   15.9569 O   0  0  0  0  0  0  0  0  0  0  0  0
   -0.5078  -12.6526   14.2086 C   0  0  1  0  0  0  0  0  0  0  0  0
    0.2599  -13.9710   13.9833 C   0  0  0  0  0  0  0  0  0  0  0  0
    0.0827  -15.0401   15.0678 C   0  0  0  0  0  0  0  0  0  0  0  0
   -1.8284  -12.9082   14.7376 O   0  0  0  0  0  0  0  0  0  0  0  0
  1  2  1  1  0  0  0
  1  3  1  0  0  0  0
  1  8  1  0  0  0  0
  3  4  1  0  0  0  0
  3 32  1  6  0  0  0
  4  5  1  0  0  0  0
  4 33  1  1  0  0  0
  5  6  1  1  0  0  0
  5  7  1  0  0  0  0
  7  8  1  0  0  0  0
  7  9  1  6  0  0  0
  9 10  1  0  0  0  0
 11 12  1  6  0  0  0
 11 13  1  0  0  0  0
 11 19  1  0  0  0  0
 12 35  1  0  0  0  0
 13 14  1  0  0  0  0
 14 15  1  1  0  0  0
 14 16  1  0  0  0  0
 16  2  1  1  0  0  0
 16 17  1  0  0  0  0
 17 18  1  1  0  0  0
 17 19  1  0  0  0  0
 19 20  1  6  0  0  0
 21 20  1  1  0  0  0
 21 22  1  0  0  0  0
 21 29  1  0  0  0  0
 22 23  1  6  0  0  0
 22 24  1  0  0  0  0
 24 25  1  6  0  0  0
 24 26  1  0  0  0  0
 26 27  1  1  0  0  0
 26 28  1  0  0  0  0
 28 29  1  0  0  0  0
 28 30  1  1  0  0  0
 30 31  1  0  0  0  0
 34 39  1  0  0  0  0
 35 36  2  0  0  0  0
 37 35  1  1  0  0  0
 37 38  1  0  0  0  0
 37 40  1  0  0  0  0
 38 39  1  0  0  0  0
M  END
>  <CHROM.1>
-85.46659501,-166.36035295,46.44153696,-42.55255831,93.53142491,-168.82624541
50.40307320,160.53203335,80.73409042,-64.01058281,0.44106751,-9.18714436
18.26117208,-0.78508315,-0.16147385,-2.37742680

>  <Name>
2g5q_lig

>  <RI>
9.52566e+06

>  <Rbt.Current_Directory>
/home/itssahil/PROJECTS/Mol_Feturizer/New_Systems/rnas/2g5q

>  <Rbt.Executable>
rbdock ($Id: //depot/dev/client3/rdock/2013.1/src/exe/rbdock.cxx#4 $)

>  <Rbt.Library>
libRbt.so (2013.1, Build901 2013/11/27)

>  <Rbt.Parameter_File>
/export/apps/rDock/src/rDock_2013.1_src/data/scripts/dock_solv.prm

>  <Rbt.Receptor>
prm/pocket_docking_4.prm

>  <SCORE>
-15.7179

>  <SCORE.INTER>
-16.5747

>  <SCORE.INTER.CONST>
1

>  <SCORE.INTER.POLAR>
-1.61982

>  <SCORE.INTER.ROT>
10

>  <SCORE.INTER.SOLV>
16.0669

>  <SCORE.INTER.VDW>
-21.2727

>  <SCORE.INTER.norm>
-0.414367

>  <SCORE.INTRA>
0.856845

>  <SCORE.INTRA.DIHEDRAL>
-9.82775

>  <SCORE.INTRA.DIHEDRAL.0>
22.5778

>  <SCORE.INTRA.POLAR>
0

>  <SCORE.INTRA.POLAR.0>
0

>  <SCORE.INTRA.REPUL>
0

>  <SCORE.INTRA.REPUL.0>
0

>  <SCORE.INTRA.SOLV>
5.86153

>  <SCORE.INTRA.SOLV.lig_0>
-102.332

>  <SCORE.INTRA.VDW>
2.83995

>  <SCORE.INTRA.VDW.0>
-5.08747

>  <SCORE.INTRA.norm>
0.0214211

>  <SCORE.RESTR>
0

>  <SCORE.RESTR.CAVITY>
0

>  <SCORE.RESTR.norm>
0

>  <SCORE.SYSTEM>
0

>  <SCORE.SYSTEM.CONST>
0

>  <SCORE.SYSTEM.DIHEDRAL>
0

>  <SCORE.SYSTEM.SOLV>
0

>  <SCORE.SYSTEM.norm>
0

>  <SCORE.heavy>
40

>  <SCORE.norm>
-0.392946

>  <RMSD>
5.318

$$$$
2g5q_lig
 OpenBabel11021811433D
libRbt.so/2013.1/901 2013/11/27
 40 42  0  0  0  0  0  0  0  0999 V2000
    2.6237   -6.8226   19.7865 C   0  0  2  0  0  0  0  0  0  0  0  0
    3.2476   -6.6317   18.5360 O   0  0  0  0  0  0  0  0  0  0  0  0
    3.2044   -5.7926   20.7997 C   0  0  1  0  0  0  0  0  0  0  0  0
    4.7090   -6.0653   21.1087 C   0  0  2  0  0  0  0  0  0  0  0  0
    4.8207   -7.4960   21.6964 C   0  0  2  0  0  0  0  0  0  0  0  0
    6.1928   -7.7774   22.0166 O   0  0  0  0  0  0  0  0  0  0  0  0
    4.2642   -8.5177   20.6237 C   0  0  2  0  0  0  0  0  0  0  0  0
    2.8434   -8.1988   20.3040 O   0  0  0  0  0  0  0  0  0  0  0  0
    4.3136   -9.9639   21.1050 C   0  0  0  0  0  0  0  0  0  0  0  0
    3.4668  -10.1807   22.3206 N   0  0  0  0  0  0  0  0  0  0  0  0
    2.4160  -10.1648   16.1065 C   0  0  2  0  0  0  0  0  0  0  0  0
    2.0681  -11.0069   14.9682 N   0  0  0  0  0  0  0  0  0  0  0  0
    1.2243   -9.1722   16.4390 C   0  0  0  0  0  0  0  0  0  0  0  0
    1.5942   -8.2628   17.6763 C   0  0  2  0  0  0  0  0  0  0  0  0
    0.4646   -7.3447   17.9846 N   0  0  0  0  0  0  0  0  0  0  0  0
    2.9193   -7.4602   17.3634 C   0  0  2  0  0  0  0  0  0  0  0  0
    4.0799   -8.4805   17.0335 C   0  0  2  0  0  0  0  0  0  0  0  0
    5.2769   -7.7515   16.7444 O   0  0  0  0  0  0  0  0  0  0  0  0
    3.6970   -9.3667   15.7872 C   0  0  1  0  0  0  0  0  0  0  0  0
    4.7623  -10.3138   15.4932 O   0  0  0  0  0  0  0  0  0  0  0  0
    5.4472  -11.0605   16.4686 C   0  0  2  0  0  0  0  0  0  0  0  0
    6.6800  -11.7273   15.7694 C   0  0  2  0  0  0  0  0  0  0  0  0
    7.5062  -10.7392   15.2425 O   0  0  0  0  0  0  0  0  0  0  0  0
    6.2220  -12.7355   14.6485 C   0  0  1  0  0  0  0  0  0  0  0  0
    7.3961  -13.3830   13.9757 N   0  0  0  0  0  0  0  0  0  0  0  0
    5.2862  -13.8228   15.3112 C   0  0  2  0  0  0  0  0  0  0  0  0
    4.8430  -14.7738   14.3409 O   0  0  0  0  0  0  0  0  0  0  0  0
    4.0766  -13.0944   15.9887 C   0  0  2  0  0  0  0  0  0  0  0  0
    4.5509  -12.0979   17.0095 O   0  0  0  0  0  0  0  0  0  0  0  0
    3.1545  -14.0633   16.6701 C   0  0  0  0  0  0  0  0  0  0  0  0
    2.5938  -14.9971   15.7328 O   0  0  0  0  0  0  0  0  0  0  0  0
    3.0142   -4.4444   20.2481 O   0  0  0  0  0  0  0  0  0  0  0  0
    5.1658   -5.1361   22.0172 O   0  0  0  0  0  0  0  0  0  0  0  0
    1.9524  -12.4634   10.6793 N   0  0  0  0  0  0  0  0  0  0  0  0
    1.1685  -12.0633   14.9988 C   0  0  0  0  0  0  0  0  0  0  0  0
    0.5623  -12.4161   16.0044 O   0  0  0  0  0  0  0  0  0  0  0  0
    1.0280  -12.7587   13.6251 C   0  0  1  0  0  0  0  0  0  0  0  0
    2.4226  -13.0639   13.0421 C   0  0  0  0  0  0  0  0  0  0  0  0
    2.4503  -13.5059   11.5744 C   0  0  0  0  0  0  0  0  0  0  0  0
    0.2587  -13.9719   13.7854 O   0  0  0  0  0  0  0  0  0  0  0  0
  1  2  1  6  0  0  0
  1  3  1  0  0  0  0
  1  8  1  0  0  0  0
  3  4  1  0  0  0  0
  3 32  1  6  0  0  0
  4  5  1  0  0  0  0
  4 33  1  1  0  0  0
  5  6  1  6  0  0  0
  5  7  1  0  0  0  0
  7  8  1  0  0  0  0
  7  9  1  1  0  0  0
  9 10  1  0  0  0  0
 11 12  1  6  0  0  0
 11 13  1  0  0  0  0
 11 19  1  0  0  0  0
 12 35  1  0  0  0  0
 13 14  1  0  0  0  0
 14 15  1  6  0  0  0
 14 16  1  0  0  0  0
 16  2  1  1  0  0  0
 16 17  1  0  0  0  0
 17 18  1  6  0  0  0
 17 19  1  0  0  0  0
 19 20  1  1  0  0  0
 21 20  1  6  0  0  0
 21 22  1  0  0  0  0
 21 29  1  0  0  0  0
 22 23  1  6  0  0  0
 22 24  1  0  0  0  0
 24 25  1  1  0  0  0
 24 26  1  0  0  0  0
 26 27  1  6  0  0  0
 26 28  1  0  0  0  0
 28 29  1  0  0  0  0
 28 30  1  1  0  0  0
 30 31  1  0  0  0  0
 34 39  1  0  0  0  0
 35 36  2  0  0  0  0
 37 35  1  1  0  0  0
 37 38  1  0  0  0  0
 37 40  1  0  0  0  0
 38 39  1  0  0  0  0
M  END
>  <CHROM.1>
179.65394371,61.85354524,-73.72003453,13.37724774,-76.03627582,-169.06934332
-61.14698825,48.55644255,-168.73825856,62.86255316,3.61217932,-10.22549412
17.04124653,1.48725853,-0.33370839,0.77400553

>  <Name>
2g5q_lig

>  <RI>
2.90231e+07

>  <Rbt.Current_Directory>
/home/itssahil/PROJECTS/Mol_Feturizer/New_Systems/rnas/2g5q

>  <Rbt.Executable>
rbdock ($Id: //depot/dev/client3/rdock/2013.1/src/exe/rbdock.cxx#4 $)

>  <Rbt.Library>
libRbt.so (2013.1, Build901 2013/11/27)

>  <Rbt.Parameter_File>
/export/apps/rDock/src/rDock_2013.1_src/data/scripts/dock_solv.prm

>  <Rbt.Receptor>
prm/pocket_docking_6.prm

>  <SCORE>
-11.1223

>  <SCORE.INTER>
-6.8748

>  <SCORE.INTER.CONST>
1

>  <SCORE.INTER.POLAR>
-0.312996

>  <SCORE.INTER.ROT>
10

>  <SCORE.INTER.SOLV>
20.1907

>  <SCORE.INTER.VDW>
-20.5368

>  <SCORE.INTER.norm>
-0.17187

>  <SCORE.INTRA>
-4.24747

>  <SCORE.INTRA.DIHEDRAL>
-12.8735

>  <SCORE.INTRA.DIHEDRAL.0>
22.5778

>  <SCORE.INTRA.POLAR>
0

>  <SCORE.INTRA.POLAR.0>
0

>  <SCORE.INTRA.REPUL>
0

>  <SCORE.INTRA.REPUL.0>
0

>  <SCORE.INTRA.SOLV>
4.92631

>  <SCORE.INTRA.SOLV.lig_0>
-102.332

>  <SCORE.INTRA.VDW>
-0.27387

>  <SCORE.INTRA.VDW.0>
-5.08747

>  <SCORE.INTRA.norm>
-0.106187

>  <SCORE.RESTR>
0

>  <SCORE.RESTR.CAVITY>
0

>  <SCORE.RESTR.norm>
0

>  <SCORE.SYSTEM>
0

>  <SCORE.SYSTEM.CONST>
0

>  <SCORE.SYSTEM.DIHEDRAL>
0

>  <SCORE.SYSTEM.SOLV>
0

>  <SCORE.SYSTEM.norm>
0

>  <SCORE.heavy>
40

>  <SCORE.norm>
-0.278057

>  <RMSD>
5.321

$$$$
2g5q_lig
 OpenBabel11021811433D
libRbt.so/2013.1/901 2013/11/27
 40 42  0  0  0  0  0  0  0  0999 V2000
    4.1333   -5.6880   19.8099 C   0  0  2  0  0  0  0  0  0  0  0  0
    2.7921   -6.1246   19.8067 O   0  0  0  0  0  0  0  0  0  0  0  0
    4.9851   -6.6889   20.6450 C   0  0  1  0  0  0  0  0  0  0  0  0
    4.5994   -6.6612   22.1564 C   0  0  2  0  0  0  0  0  0  0  0  0
    4.8282   -5.2187   22.6778 C   0  0  2  0  0  0  0  0  0  0  0  0
    4.5052   -5.1573   24.0764 O   0  0  0  0  0  0  0  0  0  0  0  0
    3.9148   -4.2368   21.8378 C   0  0  2  0  0  0  0  0  0  0  0  0
    4.2647   -4.3261   20.3913 O   0  0  0  0  0  0  0  0  0  0  0  0
    4.0710   -2.7797   22.2595 C   0  0  0  0  0  0  0  0  0  0  0  0
    3.1237   -1.8789   21.5295 N   0  0  0  0  0  0  0  0  0  0  0  0
    0.8580   -8.6964   16.8533 C   0  0  2  0  0  0  0  0  0  0  0  0
    0.4442   -9.8855   16.1181 N   0  0  0  0  0  0  0  0  0  0  0  0
    2.4372   -8.5521   16.8190 C   0  0  0  0  0  0  0  0  0  0  0  0
    2.8894   -7.2610   17.6083 C   0  0  2  0  0  0  0  0  0  0  0  0
    4.3709   -7.1312   17.5591 N   0  0  0  0  0  0  0  0  0  0  0  0
    2.3681   -7.3441   19.0981 C   0  0  2  0  0  0  0  0  0  0  0  0
    0.7949   -7.4913   19.0913 C   0  0  2  0  0  0  0  0  0  0  0  0
    0.3258   -7.5728   20.4409 O   0  0  0  0  0  0  0  0  0  0  0  0
    0.3664   -8.7931   18.3124 C   0  0  1  0  0  0  0  0  0  0  0  0
   -1.0834   -8.9197   18.2971 O   0  0  0  0  0  0  0  0  0  0  0  0
   -1.9151   -8.3601   17.3105 C   0  0  2  0  0  0  0  0  0  0  0  0
   -3.1822   -7.7894   18.0331 C   0  0  2  0  0  0  0  0  0  0  0  0
   -2.7955   -6.8192   18.9526 O   0  0  0  0  0  0  0  0  0  0  0  0
   -4.0017   -8.9370   18.7360 C   0  0  1  0  0  0  0  0  0  0  0  0
   -5.2203   -8.4008   19.4273 N   0  0  0  0  0  0  0  0  0  0  0  0
   -4.4025  -10.0032   17.6405 C   0  0  2  0  0  0  0  0  0  0  0  0
   -5.1575  -11.0696   18.2192 O   0  0  0  0  0  0  0  0  0  0  0  0
   -3.0961  -10.5343   16.9594 C   0  0  2  0  0  0  0  0  0  0  0  0
   -2.3091   -9.4071   16.3511 O   0  0  0  0  0  0  0  0  0  0  0  0
   -3.3980  -11.5334   15.8803 C   0  0  0  0  0  0  0  0  0  0  0  0
   -3.9491  -12.7422   16.4279 O   0  0  0  0  0  0  0  0  0  0  0  0
    4.8060   -8.0325   20.0786 O   0  0  0  0  0  0  0  0  0  0  0  0
    5.3902   -7.5526   22.8474 O   0  0  0  0  0  0  0  0  0  0  0  0
    3.1186  -11.4639   13.2882 N   0  0  0  0  0  0  0  0  0  0  0  0
    0.7932  -10.1784   14.8072 C   0  0  0  0  0  0  0  0  0  0  0  0
    1.4935   -9.4544   14.1080 O   0  0  0  0  0  0  0  0  0  0  0  0
    0.1857  -11.5137   14.3189 C   0  0  1  0  0  0  0  0  0  0  0  0
    0.6950  -11.8387   12.9001 C   0  0  0  0  0  0  0  0  0  0  0  0
    2.1136  -12.4140   12.8159 C   0  0  0  0  0  0  0  0  0  0  0  0
    0.5407  -12.5627   15.2478 O   0  0  0  0  0  0  0  0  0  0  0  0
  1  2  1  1  0  0  0
  1  3  1  0  0  0  0
  1  8  1  0  0  0  0
  3  4  1  0  0  0  0
  3 32  1  6  0  0  0
  4  5  1  0  0  0  0
  4 33  1  1  0  0  0
  5  6  1  1  0  0  0
  5  7  1  0  0  0  0
  7  8  1  0  0  0  0
  7  9  1  1  0  0  0
  9 10  1  0  0  0  0
 11 12  1  6  0  0  0
 11 13  1  0  0  0  0
 11 19  1  0  0  0  0
 12 35  1  0  0  0  0
 13 14  1  0  0  0  0
 14 15  1  1  0  0  0
 14 16  1  0  0  0  0
 16  2  1  1  0  0  0
 16 17  1  0  0  0  0
 17 18  1  1  0  0  0
 17 19  1  0  0  0  0
 19 20  1  6  0  0  0
 21 20  1  1  0  0  0
 21 22  1  0  0  0  0
 21 29  1  0  0  0  0
 22 23  1  1  0  0  0
 22 24  1  0  0  0  0
 24 25  1  6  0  0  0
 24 26  1  0  0  0  0
 26 27  1  1  0  0  0
 26 28  1  0  0  0  0
 28 29  1  0  0  0  0
 28 30  1  6  0  0  0
 30 31  1  0  0  0  0
 34 39  1  0  0  0  0
 35 36  2  0  0  0  0
 37 35  1  1  0  0  0
 37 38  1  0  0  0  0
 37 40  1  0  0  0  0
 38 39  1  0  0  0  0
M  END
>  <CHROM.1>
-68.95542886,-175.55232111,-53.92205723,-52.00584423,-30.67580114,-139.59061603
-67.23577368,-175.62519659,78.31345052,-63.67266810,0.86014260,-8.28895600
18.26748403,-0.91015153,-0.14996348,-2.23791538

>  <Name>
2g5q_lig

>  <RI>
0

>  <Rbt.Current_Directory>
/home/itssahil/PROJECTS/Mol_Feturizer/New_Systems/rnas/2g5q

>  <Rbt.Executable>
rbdock ($Id: //depot/dev/client3/rdock/2013.1/src/exe/rbdock.cxx#4 $)

>  <Rbt.Library>
libRbt.so (2013.1, Build901 2013/11/27)

>  <Rbt.Parameter_File>
/export/apps/rDock/src/rDock_2013.1_src/data/scripts/dock_solv.prm

>  <Rbt.Receptor>
prm/pocket_docking_3.prm

>  <SCORE>
-17.6607

>  <SCORE.INTER>
-18.7856

>  <SCORE.INTER.CONST>
1

>  <SCORE.INTER.POLAR>
-1.11438

>  <SCORE.INTER.ROT>
10

>  <SCORE.INTER.SOLV>
18.4449

>  <SCORE.INTER.VDW>
-25.2241

>  <SCORE.INTER.norm>
-0.469641

>  <SCORE.INTRA>
1.12497

>  <SCORE.INTRA.DIHEDRAL>
-10.6683

>  <SCORE.INTRA.DIHEDRAL.0>
22.5778

>  <SCORE.INTRA.POLAR>
0

>  <SCORE.INTRA.POLAR.0>
0

>  <SCORE.INTRA.REPUL>
0

>  <SCORE.INTRA.REPUL.0>
0

>  <SCORE.INTRA.SOLV>
6.37361

>  <SCORE.INTRA.SOLV.lig_0>
-102.332

>  <SCORE.INTRA.VDW>
3.2723

>  <SCORE.INTRA.VDW.0>
-5.08747

>  <SCORE.INTRA.norm>
0.0281241

>  <SCORE.RESTR>
0

>  <SCORE.RESTR.CAVITY>
0

>  <SCORE.RESTR.norm>
0

>  <SCORE.SYSTEM>
0

>  <SCORE.SYSTEM.CONST>
0

>  <SCORE.SYSTEM.DIHEDRAL>
0

>  <SCORE.SYSTEM.SOLV>
0

>  <SCORE.SYSTEM.norm>
0

>  <SCORE.heavy>
40

>  <SCORE.norm>
-0.441517

>  <RMSD>
5.340

$$$$
2g5q_lig
 OpenBabel11021811433D
libRbt.so/2013.1/901 2013/11/27
 40 42  0  0  0  0  0  0  0  0999 V2000
    4.1240   -6.3991   19.3251 C   0  0  2  0  0  0  0  0  0  0  0  0
    2.9380   -7.1590   19.2521 O   0  0  0  0  0  0  0  0  0  0  0  0
    5.2060   -7.2283   20.0778 C   0  0  1  0  0  0  0  0  0  0  0  0
    4.8326   -7.4478   21.5764 C   0  0  2  0  0  0  0  0  0  0  0  0
    4.6892   -6.0528   22.2386 C   0  0  2  0  0  0  0  0  0  0  0  0
    4.3672   -6.2129   23.6297 O   0  0  0  0  0  0  0  0  0  0  0  0
    3.5523   -5.2571   21.4780 C   0  0  2  0  0  0  0  0  0  0  0  0
    3.9072   -5.1122   20.0372 O   0  0  0  0  0  0  0  0  0  0  0  0
    3.3346   -3.8566   22.0408 C   0  0  0  0  0  0  0  0  0  0  0  0
    4.0127   -2.8077   21.2152 N   0  0  0  0  0  0  0  0  0  0  0  0
    1.7584   -9.4352   15.7158 C   0  0  2  0  0  0  0  0  0  0  0  0
    1.6169  -10.5283   14.7614 N   0  0  0  0  0  0  0  0  0  0  0  0
    3.2900   -9.0724   15.9114 C   0  0  0  0  0  0  0  0  0  0  0  0
    3.4475   -7.8837   16.9393 C   0  0  2  0  0  0  0  0  0  0  0  0
    4.8870   -7.5459   17.1052 N   0  0  0  0  0  0  0  0  0  0  0  0
    2.7885   -8.2878   18.3179 C   0  0  2  0  0  0  0  0  0  0  0  0
    1.2675   -8.6456   18.0824 C   0  0  2  0  0  0  0  0  0  0  0  0
    0.6746   -9.0172   19.3307 O   0  0  0  0  0  0  0  0  0  0  0  0
    1.1340   -9.8433   17.0662 C   0  0  1  0  0  0  0  0  0  0  0  0
   -0.2681  -10.1627   16.8417 O   0  0  0  0  0  0  0  0  0  0  0  0
   -1.1554  -10.5778   17.8510 C   0  0  2  0  0  0  0  0  0  0  0  0
   -2.2604  -11.4563   17.1724 C   0  0  2  0  0  0  0  0  0  0  0  0
   -1.6685  -12.5571   16.5606 O   0  0  0  0  0  0  0  0  0  0  0  0
   -3.0969  -10.6168   16.1341 C   0  0  1  0  0  0  0  0  0  0  0  0
   -4.1613  -11.4486   15.4819 N   0  0  0  0  0  0  0  0  0  0  0  0
   -3.7341   -9.3843   16.8907 C   0  0  2  0  0  0  0  0  0  0  0  0
   -4.5142   -8.5860   15.9984 O   0  0  0  0  0  0  0  0  0  0  0  0
   -2.5813   -8.5487   17.5428 C   0  0  2  0  0  0  0  0  0  0  0  0
   -1.7672   -9.3946   18.4817 O   0  0  0  0  0  0  0  0  0  0  0  0
   -3.1121   -7.3723   18.3096 C   0  0  0  0  0  0  0  0  0  0  0  0
   -2.0674   -6.7142   19.0447 O   0  0  0  0  0  0  0  0  0  0  0  0
    5.3722   -8.5110   19.3813 O   0  0  0  0  0  0  0  0  0  0  0  0
    5.8272   -8.1729   22.1949 O   0  0  0  0  0  0  0  0  0  0  0  0
    4.5655  -11.8151   12.1901 N   0  0  0  0  0  0  0  0  0  0  0  0
    1.9702  -10.4715   13.4205 C   0  0  0  0  0  0  0  0  0  0  0  0
    2.4411   -9.4773   12.8791 O   0  0  0  0  0  0  0  0  0  0  0  0
    1.6874  -11.7984   12.6790 C   0  0  1  0  0  0  0  0  0  0  0  0
    2.5972  -12.9154   13.2291 C   0  0  0  0  0  0  0  0  0  0  0  0
    4.0852  -12.5662   13.3481 C   0  0  0  0  0  0  0  0  0  0  0  0
    0.2928  -12.1424   12.8397 O   0  0  0  0  0  0  0  0  0  0  0  0
  1  2  1  1  0  0  0
  1  3  1  0  0  0  0
  1  8  1  0  0  0  0
  3  4  1  0  0  0  0
  3 32  1  6  0  0  0
  4  5  1  0  0  0  0
  4 33  1  1  0  0  0
  5  6  1  1  0  0  0
  5  7  1  0  0  0  0
  7  8  1  0  0  0  0
  7  9  1  1  0  0  0
  9 10  1  0  0  0  0
 11 12  1  6  0  0  0
 11 13  1  0  0  0  0
 11 19  1  0  0  0  0
 12 35  1  0  0  0  0
 13 14  1  0  0  0  0
 14 15  1  1  0  0  0
 14 16  1  0  0  0  0
 16  2  1  1  0  0  0
 16 17  1  0  0  0  0
 17 18  1  1  0  0  0
 17 19  1  0  0  0  0
 19 20  1  6  0  0  0
 21 20  1  6  0  0  0
 21 22  1  0  0  0  0
 21 29  1  0  0  0  0
 22 23  1  6  0  0  0
 22 24  1  0  0  0  0
 24 25  1  1  0  0  0
 24 26  1  0  0  0  0
 26 27  1  6  0  0  0
 26 28  1  0  0  0  0
 28 29  1  0  0  0  0
 28 30  1  1  0  0  0
 30 31  1  0  0  0  0
 34 39  1  0  0  0  0
 35 36  2  0  0  0  0
 37 35  1  1  0  0  0
 37 38  1  0  0  0  0
 37 40  1  0  0  0  0
 38 39  1  0  0  0  0
M  END
>  <CHROM.1>
-75.39919628,99.88514444,-64.02259186,-40.61230016,179.91029359,-152.67170429
172.50219537,-65.86803388,-48.59649488,-41.60628512,1.49551078,-8.80530744
17.59320235,-1.03866638,-0.06805674,-2.20088541

>  <Name>
2g5q_lig

>  <RI>
0

>  <Rbt.Current_Directory>
/home/itssahil/PROJECTS/Mol_Feturizer/New_Systems/rnas/2g5q

>  <Rbt.Executable>
rbdock ($Id: //depot/dev/client3/rdock/2013.1/src/exe/rbdock.cxx#4 $)

>  <Rbt.Library>
libRbt.so (2013.1, Build901 2013/11/27)

>  <Rbt.Parameter_File>
/export/apps/rDock/src/rDock_2013.1_src/data/scripts/dock_solv.prm

>  <Rbt.Receptor>
prm/pocket_docking_2.prm

>  <SCORE>
-9.09609

>  <SCORE.INTER>
-15.3489

>  <SCORE.INTER.CONST>
1

>  <SCORE.INTER.POLAR>
-1.7364

>  <SCORE.INTER.ROT>
10

>  <SCORE.INTER.SOLV>
24.7562

>  <SCORE.INTER.VDW>
-22.9633

>  <SCORE.INTER.norm>
-0.383722

>  <SCORE.INTRA>
1.77011

>  <SCORE.INTRA.DIHEDRAL>
-10.0379

>  <SCORE.INTRA.DIHEDRAL.0>
22.5778

>  <SCORE.INTRA.POLAR>
0

>  <SCORE.INTRA.POLAR.0>
0

>  <SCORE.INTRA.REPUL>
0.000481762

>  <SCORE.INTRA.REPUL.0>
0

>  <SCORE.INTRA.SOLV>
5.92565

>  <SCORE.INTRA.SOLV.lig_0>
-102.332

>  <SCORE.INTRA.VDW>
3.82385

>  <SCORE.INTRA.VDW.0>
-5.08747

>  <SCORE.INTRA.norm>
0.0442527

>  <SCORE.RESTR>
4.48269

>  <SCORE.RESTR.CAVITY>
4.48269

>  <SCORE.RESTR.norm>
0.112067

>  <SCORE.SYSTEM>
0

>  <SCORE.SYSTEM.CONST>
0

>  <SCORE.SYSTEM.DIHEDRAL>
0

>  <SCORE.SYSTEM.SOLV>
0

>  <SCORE.SYSTEM.norm>
0

>  <SCORE.heavy>
40

>  <SCORE.norm>
-0.227402

>  <RMSD>
5.381

$$$$
2g5q_lig
 OpenBabel11021811433D
libRbt.so/2013.1/901 2013/11/27
 40 42  0  0  0  0  0  0  0  0999 V2000
    2.0611   -6.7505   20.5339 C   0  0  2  0  0  0  0  0  0  0  0  0
    2.4008   -6.8056   19.1660 O   0  0  0  0  0  0  0  0  0  0  0  0
    2.8423   -5.5787   21.1983 C   0  0  1  0  0  0  0  0  0  0  0  0
    4.3791   -5.8451   21.2249 C   0  0  2  0  0  0  0  0  0  0  0  0
    4.6200   -7.1525   22.0234 C   0  0  2  0  0  0  0  0  0  0  0  0
    6.0299   -7.4208   22.0904 O   0  0  0  0  0  0  0  0  0  0  0  0
    3.8498   -8.3275   21.2952 C   0  0  2  0  0  0  0  0  0  0  0  0
    2.3922   -8.0205   21.2322 O   0  0  0  0  0  0  0  0  0  0  0  0
    4.0071   -9.6667   22.0076 C   0  0  0  0  0  0  0  0  0  0  0  0
    5.3652  -10.2600   21.7950 N   0  0  0  0  0  0  0  0  0  0  0  0
    0.5823   -8.9246   15.8073 C   0  0  2  0  0  0  0  0  0  0  0  0
    0.1663  -10.0011   14.9164 N   0  0  0  0  0  0  0  0  0  0  0  0
    2.1643   -8.8794   15.9120 C   0  0  0  0  0  0  0  0  0  0  0  0
    2.6196   -7.7098   16.8707 C   0  0  2  0  0  0  0  0  0  0  0  0
    4.1048   -7.6711   16.9514 N   0  0  0  0  0  0  0  0  0  0  0  0
    1.9708   -7.9146   18.2973 C   0  0  2  0  0  0  0  0  0  0  0  0
    0.3980   -7.9587   18.1521 C   0  0  2  0  0  0  0  0  0  0  0  0
   -0.1869   -8.1505   19.4441 O   0  0  0  0  0  0  0  0  0  0  0  0
   -0.0351   -9.1416   17.2044 C   0  0  1  0  0  0  0  0  0  0  0  0
   -1.4833   -9.1722   17.0626 O   0  0  0  0  0  0  0  0  0  0  0  0
   -2.3693   -9.5595   18.0840 C   0  0  2  0  0  0  0  0  0  0  0  0
   -2.3991  -11.1252   18.1110 C   0  0  2  0  0  0  0  0  0  0  0  0
   -1.1198  -11.6102   18.3653 O   0  0  0  0  0  0  0  0  0  0  0  0
   -2.9640  -11.7070   16.7601 C   0  0  1  0  0  0  0  0  0  0  0  0
   -3.0009  -13.2065   16.7779 N   0  0  0  0  0  0  0  0  0  0  0  0
   -4.4106  -11.1136   16.5306 C   0  0  2  0  0  0  0  0  0  0  0  0
   -4.9801  -11.6130   15.3188 O   0  0  0  0  0  0  0  0  0  0  0  0
   -4.3119   -9.5508   16.5120 C   0  0  2  0  0  0  0  0  0  0  0  0
   -3.7143   -9.0333   17.7907 O   0  0  0  0  0  0  0  0  0  0  0  0
   -5.6573   -8.9105   16.3284 C   0  0  0  0  0  0  0  0  0  0  0  0
   -5.5622   -7.4772   16.3641 O   0  0  0  0  0  0  0  0  0  0  0  0
    2.5327   -4.3434   20.4659 O   0  0  0  0  0  0  0  0  0  0  0  0
    5.0171   -4.7865   21.8331 O   0  0  0  0  0  0  0  0  0  0  0  0
    2.9618  -12.4298   13.7476 N   0  0  0  0  0  0  0  0  0  0  0  0
    0.4603  -11.3459   15.0934 C   0  0  0  0  0  0  0  0  0  0  0  0
    1.1195  -11.7841   16.0298 O   0  0  0  0  0  0  0  0  0  0  0  0
   -0.1221  -12.2305   13.9671 C   0  0  1  0  0  0  0  0  0  0  0  0
    0.7380  -12.0995   12.6939 C   0  0  0  0  0  0  0  0  0  0  0  0
    2.0554  -12.8837   12.6949 C   0  0  0  0  0  0  0  0  0  0  0  0
   -0.1690  -13.6026   14.4195 O   0  0  0  0  0  0  0  0  0  0  0  0
  1  2  1  6  0  0  0
  1  3  1  0  0  0  0
  1  8  1  0  0  0  0
  3  4  1  0  0  0  0
  3 32  1  6  0  0  0
  4  5  1  0  0  0  0
  4 33  1  1  0  0  0
  5  6  1  6  0  0  0
  5  7  1  0  0  0  0
  7  8  1  0  0  0  0
  7  9  1  1  0  0  0
  9 10  1  0  0  0  0
 11 12  1  6  0  0  0
 11 13  1  0  0  0  0
 11 19  1  0  0  0  0
 12 35  1  0  0  0  0
 13 14  1  0  0  0  0
 14 15  1  1  0  0  0
 14 16  1  0  0  0  0
 16  2  1  1  0  0  0
 16 17  1  0  0  0  0
 17 18  1  1  0  0  0
 17 19  1  0  0  0  0
 19 20  1  6  0  0  0
 21 20  1  6  0  0  0
 21 22  1  0  0  0  0
 21 29  1  0  0  0  0
 22 23  1  6  0  0  0
 22 24  1  0  0  0  0
 24 25  1  1  0  0  0
 24 26  1  0  0  0  0
 26 27  1  6  0  0  0
 26 28  1  0  0  0  0
 28 29  1  0  0  0  0
 28 30  1  1  0  0  0
 30 31  1  0  0  0  0
 34 39  1  0  0  0  0
 35 36  2  0  0  0  0
 37 35  1  1  0  0  0
 37 38  1  0  0  0  0
 37 40  1  0  0  0  0
 38 39  1  0  0  0  0
M  END
>  <CHROM.1>
171.61067502,-74.59070029,59.25890662,-175.63412289,169.54166351,-80.51722331
177.78172329,76.66361086,77.66550858,-62.50292828,0.54556081,-9.27665888
17.80151182,0.82150628,-0.08450336,0.83467529

>  <Name>
2g5q_lig

>  <RI>
0

>  <Rbt.Current_Directory>
/home/itssahil/PROJECTS/Mol_Feturizer/New_Systems/rnas/2g5q

>  <Rbt.Executable>
rbdock ($Id: //depot/dev/client3/rdock/2013.1/src/exe/rbdock.cxx#4 $)

>  <Rbt.Library>
libRbt.so (2013.1, Build901 2013/11/27)

>  <Rbt.Parameter_File>
/export/apps/rDock/src/rDock_2013.1_src/data/scripts/dock_solv.prm

>  <Rbt.Receptor>
prm/pocket_docking_3.prm

>  <SCORE>
-16.2303

>  <SCORE.INTER>
-10.3475

>  <SCORE.INTER.CONST>
1

>  <SCORE.INTER.POLAR>
-0.633454

>  <SCORE.INTER.ROT>
10

>  <SCORE.INTER.SOLV>
18.5133

>  <SCORE.INTER.VDW>
-21.2246

>  <SCORE.INTER.norm>
-0.258688

>  <SCORE.INTRA>
-5.89959

>  <SCORE.INTRA.DIHEDRAL>
-16.8135

>  <SCORE.INTRA.DIHEDRAL.0>
22.5778

>  <SCORE.INTRA.POLAR>
0

>  <SCORE.INTRA.POLAR.0>
0

>  <SCORE.INTRA.REPUL>
0

>  <SCORE.INTRA.REPUL.0>
0

>  <SCORE.INTRA.SOLV>
5.37242

>  <SCORE.INTRA.SOLV.lig_0>
-102.332

>  <SCORE.INTRA.VDW>
-0.17907

>  <SCORE.INTRA.VDW.0>
-5.08747

>  <SCORE.INTRA.norm>
-0.14749

>  <SCORE.RESTR>
0.0168548

>  <SCORE.RESTR.CAVITY>
0.0168548

>  <SCORE.RESTR.norm>
0.000421369

>  <SCORE.SYSTEM>
0

>  <SCORE.SYSTEM.CONST>
0

>  <SCORE.SYSTEM.DIHEDRAL>
0

>  <SCORE.SYSTEM.SOLV>
0

>  <SCORE.SYSTEM.norm>
0

>  <SCORE.heavy>
40

>  <SCORE.norm>
-0.405757

>  <RMSD>
5.395

$$$$
2g5q_lig
 OpenBabel11021811433D
libRbt.so/2013.1/901 2013/11/27
 40 42  0  0  0  0  0  0  0  0999 V2000
    4.3785   -6.9821   19.3175 C   0  0  2  0  0  0  0  0  0  0  0  0
    3.1051   -7.5816   19.4100 O   0  0  0  0  0  0  0  0  0  0  0  0
    5.4219   -7.9113   20.0052 C   0  0  1  0  0  0  0  0  0  0  0  0
    5.1875   -8.0106   21.5442 C   0  0  2  0  0  0  0  0  0  0  0  0
    5.2937   -6.5799   22.1333 C   0  0  2  0  0  0  0  0  0  0  0  0
    5.1060   -6.6321   23.5568 O   0  0  0  0  0  0  0  0  0  0  0  0
    4.1912   -5.6770   21.4453 C   0  0  2  0  0  0  0  0  0  0  0  0
    4.4040   -5.6466   19.9700 O   0  0  0  0  0  0  0  0  0  0  0  0
    4.2141   -4.2357   21.9429 C   0  0  0  0  0  0  0  0  0  0  0  0
    3.0575   -3.4421   21.4190 N   0  0  0  0  0  0  0  0  0  0  0  0
    0.7835  -10.0407   16.6459 C   0  0  2  0  0  0  0  0  0  0  0  0
    0.3851  -11.1456   15.7820 N   0  0  0  0  0  0  0  0  0  0  0  0
    2.1537   -9.4187   16.1443 C   0  0  0  0  0  0  0  0  0  0  0  0
    2.5855   -8.2166   17.0733 C   0  0  2  0  0  0  0  0  0  0  0  0
    3.8655   -7.6352   16.5858 N   0  0  0  0  0  0  0  0  0  0  0  0
    2.7145   -8.7228   18.5650 C   0  0  2  0  0  0  0  0  0  0  0  0
    1.3343   -9.3382   19.0266 C   0  0  2  0  0  0  0  0  0  0  0  0
    1.4553   -9.8016   20.3752 O   0  0  0  0  0  0  0  0  0  0  0  0
    0.9301  -10.5450   18.0965 C   0  0  1  0  0  0  0  0  0  0  0  0
   -0.3473  -11.1020   18.5163 O   0  0  0  0  0  0  0  0  0  0  0  0
   -0.5565  -11.7658   19.7385 C   0  0  2  0  0  0  0  0  0  0  0  0
   -1.8442  -12.6435   19.5817 C   0  0  2  0  0  0  0  0  0  0  0  0
   -1.6581  -13.5624   18.5534 O   0  0  0  0  0  0  0  0  0  0  0  0
   -3.1136  -11.7489   19.3151 C   0  0  1  0  0  0  0  0  0  0  0  0
   -4.3535  -12.5805   19.1679 N   0  0  0  0  0  0  0  0  0  0  0  0
   -3.2621  -10.7285   20.5126 C   0  0  2  0  0  0  0  0  0  0  0  0
   -4.4056   -9.8911   20.3300 O   0  0  0  0  0  0  0  0  0  0  0  0
   -1.9475   -9.8835   20.6143 C   0  0  2  0  0  0  0  0  0  0  0  0
   -0.7500  -10.7712   20.8087 O   0  0  0  0  0  0  0  0  0  0  0  0
   -2.0001   -8.9079   21.7541 C   0  0  0  0  0  0  0  0  0  0  0  0
   -2.0506   -9.5865   23.0197 O   0  0  0  0  0  0  0  0  0  0  0  0
    5.3486   -9.2354   19.3731 O   0  0  0  0  0  0  0  0  0  0  0  0
    6.1433   -8.8313   22.1012 O   0  0  0  0  0  0  0  0  0  0  0  0
    3.0905  -13.2843   12.7210 N   0  0  0  0  0  0  0  0  0  0  0  0
   -0.1931  -11.0129   14.5273 C   0  0  0  0  0  0  0  0  0  0  0  0
   -0.4439   -9.9344   14.0007 O   0  0  0  0  0  0  0  0  0  0  0  0
   -0.5026  -12.3789   13.8727 C   0  0  1  0  0  0  0  0  0  0  0  0
    0.8014  -13.1786   13.6768 C   0  0  0  0  0  0  0  0  0  0  0  0
    1.8118  -12.5770   12.6932 C   0  0  0  0  0  0  0  0  0  0  0  0
   -1.4325  -13.1043   14.7084 O   0  0  0  0  0  0  0  0  0  0  0  0
  1  2  1  1  0  0  0
  1  3  1  0  0  0  0
  1  8  1  0  0  0  0
  3  4  1  0  0  0  0
  3 32  1  6  0  0  0
  4  5  1  0  0  0  0
  4 33  1  1  0  0  0
  5  6  1  1  0  0  0
  5  7  1  0  0  0  0
  7  8  1  0  0  0  0
  7  9  1  1  0  0  0
  9 10  1  0  0  0  0
 11 12  1  6  0  0  0
 11 13  1  0  0  0  0
 11 19  1  0  0  0  0
 12 35  1  0  0  0  0
 13 14  1  0  0  0  0
 14 15  1  6  0  0  0
 14 16  1  0  0  0  0
 16  2  1  1  0  0  0
 16 17  1  0  0  0  0
 17 18  1  1  0  0  0
 17 19  1  0  0  0  0
 19 20  1  1  0  0  0
 21 20  1  6  0  0  0
 21 22  1  0  0  0  0
 21 29  1  0  0  0  0
 22 23  1  6  0  0  0
 22 24  1  0  0  0  0
 24 25  1  1  0  0  0
 24 26  1  0  0  0  0
 26 27  1  6  0  0  0
 26 28  1  0  0  0  0
 28 29  1  0  0  0  0
 28 30  1  1  0  0  0
 30 31  1  0  0  0  0
 34 39  1  0  0  0  0
 35 36  2  0  0  0  0
 37 35  1  1  0  0  0
 37 38  1  0  0  0  0
 37 40  1  0  0  0  0
 38 39  1  0  0  0  0
M  END
>  <CHROM.1>
-75.37217629,-172.55489513,-77.71128601,-68.73783564,174.01146684,-159.40599671
65.29948578,-61.23620669,-65.09495179,171.35734639,1.21902574,-9.60906263
18.75615270,-0.84707621,-0.46186317,-2.03460748

>  <Name>
2g5q_lig

>  <RI>
2.47104e+07

>  <Rbt.Current_Directory>
/home/itssahil/PROJECTS/Mol_Feturizer/New_Systems/rnas/2g5q

>  <Rbt.Executable>
rbdock ($Id: //depot/dev/client3/rdock/2013.1/src/exe/rbdock.cxx#4 $)

>  <Rbt.Library>
libRbt.so (2013.1, Build901 2013/11/27)

>  <Rbt.Parameter_File>
/export/apps/rDock/src/rDock_2013.1_src/data/scripts/dock_solv.prm

>  <Rbt.Receptor>
prm/pocket_docking_7.prm

>  <SCORE>
-16.4772

>  <SCORE.INTER>
-10.4011

>  <SCORE.INTER.CONST>
1

>  <SCORE.INTER.POLAR>
0

>  <SCORE.INTER.ROT>
10

>  <SCORE.INTER.SOLV>
15.9433

>  <SCORE.INTER.VDW>
-22.5151

>  <SCORE.INTER.norm>
-0.260026

>  <SCORE.INTRA>
-6.07616

>  <SCORE.INTRA.DIHEDRAL>
-17.2999

>  <SCORE.INTRA.DIHEDRAL.0>
22.5778

>  <SCORE.INTRA.POLAR>
0

>  <SCORE.INTRA.POLAR.0>
0

>  <SCORE.INTRA.REPUL>
0.0942613

>  <SCORE.INTRA.REPUL.0>
0

>  <SCORE.INTRA.SOLV>
1.04542

>  <SCORE.INTRA.SOLV.lig_0>
-102.332

>  <SCORE.INTRA.VDW>
1.57976

>  <SCORE.INTRA.VDW.0>
-5.08747

>  <SCORE.INTRA.norm>
-0.151904

>  <SCORE.RESTR>
0

>  <SCORE.RESTR.CAVITY>
0

>  <SCORE.RESTR.norm>
0

>  <SCORE.SYSTEM>
0

>  <SCORE.SYSTEM.CONST>
0

>  <SCORE.SYSTEM.DIHEDRAL>
0

>  <SCORE.SYSTEM.SOLV>
0

>  <SCORE.SYSTEM.norm>
0

>  <SCORE.heavy>
40

>  <SCORE.norm>
-0.41193

>  <RMSD>
5.411

$$$$
2g5q_lig
 OpenBabel11021811433D
libRbt.so/2013.1/901 2013/11/27
 40 42  0  0  0  0  0  0  0  0999 V2000
    4.1816   -6.3209   19.4624 C   0  0  2  0  0  0  0  0  0  0  0  0
    2.8275   -6.7126   19.4122 O   0  0  0  0  0  0  0  0  0  0  0  0
    4.9892   -7.4043   20.2363 C   0  0  1  0  0  0  0  0  0  0  0  0
    4.5826   -7.4688   21.7410 C   0  0  2  0  0  0  0  0  0  0  0  0
    4.8491   -6.0740   22.3643 C   0  0  2  0  0  0  0  0  0  0  0  0
    4.5078   -6.0991   23.7598 O   0  0  0  0  0  0  0  0  0  0  0  0
    3.9793   -5.0073   21.5835 C   0  0  2  0  0  0  0  0  0  0  0  0
    4.3473   -5.0075   20.1388 O   0  0  0  0  0  0  0  0  0  0  0  0
    4.1751   -3.5886   22.1076 C   0  0  0  0  0  0  0  0  0  0  0  0
    3.7716   -3.4595   23.5436 N   0  0  0  0  0  0  0  0  0  0  0  0
    0.8963   -8.8832   16.1509 C   0  0  2  0  0  0  0  0  0  0  0  0
    0.4503   -9.9734   15.2917 N   0  0  0  0  0  0  0  0  0  0  0  0
    2.4810   -8.8376   16.2014 C   0  0  0  0  0  0  0  0  0  0  0  0
    2.9685   -7.6532   17.1255 C   0  0  2  0  0  0  0  0  0  0  0  0
    4.4557   -7.6144   17.1555 N   0  0  0  0  0  0  0  0  0  0  0  0
    2.3682   -7.8348   18.5763 C   0  0  2  0  0  0  0  0  0  0  0  0
    0.7914   -7.8801   18.4849 C   0  0  2  0  0  0  0  0  0  0  0  0
    0.2503   -8.0509   19.7987 O   0  0  0  0  0  0  0  0  0  0  0  0
    0.3263   -9.0775   17.5712 C   0  0  1  0  0  0  0  0  0  0  0  0
   -1.1259   -9.1093   17.4788 O   0  0  0  0  0  0  0  0  0  0  0  0
   -1.8862  -10.2891   17.3890 C   0  0  2  0  0  0  0  0  0  0  0  0
   -3.3343   -9.8822   16.9522 C   0  0  2  0  0  0  0  0  0  0  0  0
   -3.2845   -9.2392   15.7192 O   0  0  0  0  0  0  0  0  0  0  0  0
   -4.0203   -8.9683   18.0370 C   0  0  1  0  0  0  0  0  0  0  0  0
   -5.4100   -8.5768   17.6298 N   0  0  0  0  0  0  0  0  0  0  0  0
   -4.0385   -9.7538   19.4082 C   0  0  2  0  0  0  0  0  0  0  0  0
   -4.6580   -8.9750   20.4337 O   0  0  0  0  0  0  0  0  0  0  0  0
   -2.5662  -10.1285   19.7884 C   0  0  2  0  0  0  0  0  0  0  0  0
   -1.9224  -10.9495   18.7061 O   0  0  0  0  0  0  0  0  0  0  0  0
   -2.5037  -10.9076   21.0701 C   0  0  0  0  0  0  0  0  0  0  0  0
   -1.1467  -11.0803   21.5101 O   0  0  0  0  0  0  0  0  0  0  0  0
    4.7762   -8.6989   19.5755 O   0  0  0  0  0  0  0  0  0  0  0  0
    5.3349   -8.4310   22.3779 O   0  0  0  0  0  0  0  0  0  0  0  0
    1.9397  -12.1785   10.9007 N   0  0  0  0  0  0  0  0  0  0  0  0
    0.9115  -10.2200   14.0061 C   0  0  0  0  0  0  0  0  0  0  0  0
    1.7533   -9.5328   13.4382 O   0  0  0  0  0  0  0  0  0  0  0  0
    0.2320  -11.4500   13.3611 C   0  0  1  0  0  0  0  0  0  0  0  0
    1.2411  -12.6102   13.2439 C   0  0  0  0  0  0  0  0  0  0  0  0
    2.4044  -12.3871   12.2706 C   0  0  0  0  0  0  0  0  0  0  0  0
   -0.9073  -11.8357   14.1627 O   0  0  0  0  0  0  0  0  0  0  0  0
  1  2  1  1  0  0  0
  1  3  1  0  0  0  0
  1  8  1  0  0  0  0
  3  4  1  0  0  0  0
  3 32  1  6  0  0  0
  4  5  1  0  0  0  0
  4 33  1  1  0  0  0
  5  6  1  1  0  0  0
  5  7  1  0  0  0  0
  7  8  1  0  0  0  0
  7  9  1  1  0  0  0
  9 10  1  0  0  0  0
 11 12  1  6  0  0  0
 11 13  1  0  0  0  0
 11 19  1  0  0  0  0
 12 35  1  0  0  0  0
 13 14  1  0  0  0  0
 14 15  1  1  0  0  0
 14 16  1  0  0  0  0
 16  2  1  1  0  0  0
 16 17  1  0  0  0  0
 17 18  1  1  0  0  0
 17 19  1  0  0  0  0
 19 20  1  6  0  0  0
 21 20  1  1  0  0  0
 21 22  1  0  0  0  0
 21 29  1  0  0  0  0
 22 23  1  6  0  0  0
 22 24  1  0  0  0  0
 24 25  1  6  0  0  0
 24 26  1  0  0  0  0
 26 27  1  1  0  0  0
 26 28  1  0  0  0  0
 28 29  1  0  0  0  0
 28 30  1  1  0  0  0
 30 31  1  0  0  0  0
 34 39  1  0  0  0  0
 35 36  2  0  0  0  0
 37 35  1  1  0  0  0
 37 38  1  0  0  0  0
 37 40  1  0  0  0  0
 38 39  1  0  0  0  0
M  END
>  <CHROM.1>
-71.26842027,-61.16851454,-49.56562445,-48.65830706,95.16850628,-166.08694198
-171.69638541,-109.56282327,-66.77071098,-60.80241401,0.97051901,-8.70964897
18.24109581,-0.95486430,-0.26604520,-2.02328497

>  <Name>
2g5q_lig

>  <RI>
9.52566e+06

>  <Rbt.Current_Directory>
/home/itssahil/PROJECTS/Mol_Feturizer/New_Systems/rnas/2g5q

>  <Rbt.Executable>
rbdock ($Id: //depot/dev/client3/rdock/2013.1/src/exe/rbdock.cxx#4 $)

>  <Rbt.Library>
libRbt.so (2013.1, Build901 2013/11/27)

>  <Rbt.Parameter_File>
/export/apps/rDock/src/rDock_2013.1_src/data/scripts/dock_solv.prm

>  <Rbt.Receptor>
prm/pocket_docking_4.prm

>  <SCORE>
-18.9987

>  <SCORE.INTER>
-17.3077

>  <SCORE.INTER.CONST>
1

>  <SCORE.INTER.POLAR>
-1.18644

>  <SCORE.INTER.ROT>
10

>  <SCORE.INTER.SOLV>
22.1632

>  <SCORE.INTER.VDW>
-25.2381

>  <SCORE.INTER.norm>
-0.432693

>  <SCORE.INTRA>
-1.69101

>  <SCORE.INTRA.DIHEDRAL>
-13.0403

>  <SCORE.INTRA.DIHEDRAL.0>
22.5778

>  <SCORE.INTRA.POLAR>
0

>  <SCORE.INTRA.POLAR.0>
0

>  <SCORE.INTRA.REPUL>
0

>  <SCORE.INTRA.REPUL.0>
0

>  <SCORE.INTRA.SOLV>
4.85905

>  <SCORE.INTRA.SOLV.lig_0>
-102.332

>  <SCORE.INTRA.VDW>
2.39961

>  <SCORE.INTRA.VDW.0>
-5.08747

>  <SCORE.INTRA.norm>
-0.0422753

>  <SCORE.RESTR>
0

>  <SCORE.RESTR.CAVITY>
0

>  <SCORE.RESTR.norm>
0

>  <SCORE.SYSTEM>
0

>  <SCORE.SYSTEM.CONST>
0

>  <SCORE.SYSTEM.DIHEDRAL>
0

>  <SCORE.SYSTEM.SOLV>
0

>  <SCORE.SYSTEM.norm>
0

>  <SCORE.heavy>
40

>  <SCORE.norm>
-0.474968

>  <RMSD>
5.468

$$$$
2g5q_lig
 OpenBabel11021811433D
libRbt.so/2013.1/901 2013/11/27
 40 42  0  0  0  0  0  0  0  0999 V2000
    1.8700   -6.1191   20.3644 C   0  0  2  0  0  0  0  0  0  0  0  0
    2.3671   -6.4563   19.0882 O   0  0  0  0  0  0  0  0  0  0  0  0
    2.2699   -4.6490   20.6865 C   0  0  1  0  0  0  0  0  0  0  0  0
    3.8127   -4.4889   20.8531 C   0  0  2  0  0  0  0  0  0  0  0  0
    4.2637   -5.4183   22.0097 C   0  0  2  0  0  0  0  0  0  0  0  0
    5.6799   -5.2819   22.2103 O   0  0  0  0  0  0  0  0  0  0  0  0
    3.8825   -6.9060   21.6280 C   0  0  2  0  0  0  0  0  0  0  0  0
    2.4107   -7.0179   21.4179 O   0  0  0  0  0  0  0  0  0  0  0  0
    4.2703   -7.9102   22.7082 C   0  0  0  0  0  0  0  0  0  0  0  0
    4.4953   -9.2799   22.1470 N   0  0  0  0  0  0  0  0  0  0  0  0
    0.7714   -9.3615   16.2438 C   0  0  2  0  0  0  0  0  0  0  0  0
    0.4828  -10.6255   15.5767 N   0  0  0  0  0  0  0  0  0  0  0  0
    2.3352   -9.0969   16.2648 C   0  0  0  0  0  0  0  0  0  0  0  0
    2.6519   -7.7249   16.9803 C   0  0  2  0  0  0  0  0  0  0  0  0
    4.1201   -7.4833   16.9835 N   0  0  0  0  0  0  0  0  0  0  0  0
    2.0695   -7.7495   18.4494 C   0  0  2  0  0  0  0  0  0  0  0  0
    0.5138   -8.0193   18.3878 C   0  0  2  0  0  0  0  0  0  0  0  0
   -0.0102   -8.0475   19.7192 O   0  0  0  0  0  0  0  0  0  0  0  0
    0.2211   -9.3994   17.6845 C   0  0  1  0  0  0  0  0  0  0  0  0
   -1.2129   -9.6396   17.6181 O   0  0  0  0  0  0  0  0  0  0  0  0
   -2.1291   -8.7823   16.9825 C   0  0  2  0  0  0  0  0  0  0  0  0
   -3.0891   -8.2206   18.0853 C   0  0  2  0  0  0  0  0  0  0  0  0
   -2.3485   -7.5245   19.0357 O   0  0  0  0  0  0  0  0  0  0  0  0
   -3.9228   -9.3768   18.7568 C   0  0  1  0  0  0  0  0  0  0  0  0
   -4.8490   -8.8481   19.8116 N   0  0  0  0  0  0  0  0  0  0  0  0
   -4.7319  -10.1269   17.6254 C   0  0  2  0  0  0  0  0  0  0  0  0
   -5.5165  -11.1863   18.1768 O   0  0  0  0  0  0  0  0  0  0  0  0
   -3.7182  -10.6640   16.5593 C   0  0  2  0  0  0  0  0  0  0  0  0
   -2.8987   -9.5435   15.9824 O   0  0  0  0  0  0  0  0  0  0  0  0
   -4.4172  -11.3652   15.4308 C   0  0  0  0  0  0  0  0  0  0  0  0
   -5.3704  -12.3219   15.9216 O   0  0  0  0  0  0  0  0  0  0  0  0
    1.7621   -3.7860   19.6115 O   0  0  0  0  0  0  0  0  0  0  0  0
    4.1077   -3.1763   21.1491 O   0  0  0  0  0  0  0  0  0  0  0  0
    0.3495  -15.1646   14.6027 N   0  0  0  0  0  0  0  0  0  0  0  0
   -0.2324  -10.7625   14.3953 C   0  0  0  0  0  0  0  0  0  0  0  0
   -0.7152   -9.8213   13.7753 O   0  0  0  0  0  0  0  0  0  0  0  0
   -0.3682  -12.2385   13.9554 C   0  0  1  0  0  0  0  0  0  0  0  0
    1.0252  -12.8928   13.8632 C   0  0  0  0  0  0  0  0  0  0  0  0
    1.0378  -14.3969   13.5670 C   0  0  0  0  0  0  0  0  0  0  0  0
   -1.2060  -12.9392   14.9022 O   0  0  0  0  0  0  0  0  0  0  0  0
  1  2  1  6  0  0  0
  1  3  1  0  0  0  0
  1  8  1  0  0  0  0
  3  4  1  0  0  0  0
  3 32  1  6  0  0  0
  4  5  1  0  0  0  0
  4 33  1  1  0  0  0
  5  6  1  6  0  0  0
  5  7  1  0  0  0  0
  7  8  1  0  0  0  0
  7  9  1  1  0  0  0
  9 10  1  0  0  0  0
 11 12  1  1  0  0  0
 11 13  1  0  0  0  0
 11 19  1  0  0  0  0
 12 35  1  0  0  0  0
 13 14  1  0  0  0  0
 14 15  1  1  0  0  0
 14 16  1  0  0  0  0
 16  2  1  6  0  0  0
 16 17  1  0  0  0  0
 17 18  1  1  0  0  0
 17 19  1  0  0  0  0
 19 20  1  6  0  0  0
 21 20  1  1  0  0  0
 21 22  1  0  0  0  0
 21 29  1  0  0  0  0
 22 23  1  1  0  0  0
 22 24  1  0  0  0  0
 24 25  1  1  0  0  0
 24 26  1  0  0  0  0
 26 27  1  1  0  0  0
 26 28  1  0  0  0  0
 28 29  1  0  0  0  0
 28 30  1  6  0  0  0
 30 31  1  0  0  0  0
 34 39  1  0  0  0  0
 35 36  2  0  0  0  0
 37 35  1  1  0  0  0
 37 38  1  0  0  0  0
 37 40  1  0  0  0  0
 38 39  1  0  0  0  0
M  END
>  <CHROM.1>
-175.31521985,-154.12461674,-116.02669694,174.06021938,-61.04615061,-115.85692695
-48.97731830,-54.54561847,174.37227922,-60.73464612,0.23026115,-8.83143003
17.99649101,0.92569064,0.06625407,0.78857893

>  <Name>
2g5q_lig

>  <RI>
0

>  <Rbt.Current_Directory>
/home/itssahil/PROJECTS/Mol_Feturizer/New_Systems/rnas/2g5q

>  <Rbt.Executable>
rbdock ($Id: //depot/dev/client3/rdock/2013.1/src/exe/rbdock.cxx#4 $)

>  <Rbt.Library>
libRbt.so (2013.1, Build901 2013/11/27)

>  <Rbt.Parameter_File>
/export/apps/rDock/src/rDock_2013.1_src/data/scripts/dock_solv.prm

>  <Rbt.Receptor>
prm/pocket_docking_2.prm

>  <SCORE>
-8.69433

>  <SCORE.INTER>
-8.30993

>  <SCORE.INTER.CONST>
1

>  <SCORE.INTER.POLAR>
-0.118195

>  <SCORE.INTER.ROT>
10

>  <SCORE.INTER.SOLV>
24.4342

>  <SCORE.INTER.VDW>
-23.5574

>  <SCORE.INTER.norm>
-0.207748

>  <SCORE.INTRA>
-2.94794

>  <SCORE.INTRA.DIHEDRAL>
-10.5125

>  <SCORE.INTRA.DIHEDRAL.0>
22.5778

>  <SCORE.INTRA.POLAR>
0

>  <SCORE.INTRA.POLAR.0>
0

>  <SCORE.INTRA.REPUL>
0

>  <SCORE.INTRA.REPUL.0>
0

>  <SCORE.INTRA.SOLV>
1.86646

>  <SCORE.INTRA.SOLV.lig_0>
-102.332

>  <SCORE.INTRA.VDW>
1.37506

>  <SCORE.INTRA.VDW.0>
-5.08747

>  <SCORE.INTRA.norm>
-0.0736986

>  <SCORE.RESTR>
2.56354

>  <SCORE.RESTR.CAVITY>
2.56354

>  <SCORE.RESTR.norm>
0.0640885

>  <SCORE.SYSTEM>
0

>  <SCORE.SYSTEM.CONST>
0

>  <SCORE.SYSTEM.DIHEDRAL>
0

>  <SCORE.SYSTEM.SOLV>
0

>  <SCORE.SYSTEM.norm>
0

>  <SCORE.heavy>
40

>  <SCORE.norm>
-0.217358

>  <RMSD>
5.508

$$$$
2g5q_lig
 OpenBabel11021811433D
libRbt.so/2013.1/901 2013/11/27
 40 42  0  0  0  0  0  0  0  0999 V2000
    1.9792   -6.4954   20.5849 C   0  0  2  0  0  0  0  0  0  0  0  0
    2.4269   -6.6167   19.2529 O   0  0  0  0  0  0  0  0  0  0  0  0
    2.4594   -5.1275   21.1533 C   0  0  1  0  0  0  0  0  0  0  0  0
    4.0119   -5.0688   21.2943 C   0  0  2  0  0  0  0  0  0  0  0  0
    4.4450   -6.2121   22.2484 C   0  0  2  0  0  0  0  0  0  0  0  0
    5.8708   -6.1772   22.4228 O   0  0  0  0  0  0  0  0  0  0  0  0
    3.9810   -7.5872   21.6178 C   0  0  2  0  0  0  0  0  0  0  0  0
    2.5006   -7.5937   21.4404 O   0  0  0  0  0  0  0  0  0  0  0  0
    4.3452   -8.7872   22.4855 C   0  0  0  0  0  0  0  0  0  0  0  0
    3.9989  -10.0848   21.8237 N   0  0  0  0  0  0  0  0  0  0  0  0
    0.7829   -8.8769   15.8964 C   0  0  2  0  0  0  0  0  0  0  0  0
    0.4244   -9.9890   15.0243 N   0  0  0  0  0  0  0  0  0  0  0  0
    2.3585   -8.7921   16.0579 C   0  0  0  0  0  0  0  0  0  0  0  0
    2.7516   -7.5841   16.9963 C   0  0  2  0  0  0  0  0  0  0  0  0
    4.2316   -7.5088   17.1305 N   0  0  0  0  0  0  0  0  0  0  0  0
    2.0544   -7.7609   18.4036 C   0  0  2  0  0  0  0  0  0  0  0  0
    0.4894   -7.8455   18.2018 C   0  0  2  0  0  0  0  0  0  0  0  0
   -0.1393   -8.0119   19.4766 O   0  0  0  0  0  0  0  0  0  0  0  0
    0.1183   -9.0660   17.2757 C   0  0  1  0  0  0  0  0  0  0  0  0
   -1.3225   -9.1343   17.0816 O   0  0  0  0  0  0  0  0  0  0  0  0
   -2.2373   -9.5138   18.0802 C   0  0  2  0  0  0  0  0  0  0  0  0
   -2.3204  -11.0778   18.0709 C   0  0  2  0  0  0  0  0  0  0  0  0
   -1.0625  -11.6118   18.3336 O   0  0  0  0  0  0  0  0  0  0  0  0
   -2.8828  -11.6097   16.6986 C   0  0  1  0  0  0  0  0  0  0  0  0
   -2.9706  -13.1072   16.6815 N   0  0  0  0  0  0  0  0  0  0  0  0
   -4.3047  -10.9624   16.4606 C   0  0  2  0  0  0  0  0  0  0  0  0
   -4.8712  -11.4149   15.2291 O   0  0  0  0  0  0  0  0  0  0  0  0
   -4.1530   -9.4038   16.4792 C   0  0  2  0  0  0  0  0  0  0  0  0
   -3.5590   -8.9357   17.7784 O   0  0  0  0  0  0  0  0  0  0  0  0
   -5.4729   -8.7142   16.2898 C   0  0  0  0  0  0  0  0  0  0  0  0
   -5.3426   -7.2901   16.4313 O   0  0  0  0  0  0  0  0  0  0  0  0
    1.9685   -4.0619   20.2692 O   0  0  0  0  0  0  0  0  0  0  0  0
    4.3790   -3.8463   21.8121 O   0  0  0  0  0  0  0  0  0  0  0  0
    3.6592  -13.4859   12.4121 N   0  0  0  0  0  0  0  0  0  0  0  0
    1.0009  -10.2574   13.7907 C   0  0  0  0  0  0  0  0  0  0  0  0
    1.8846   -9.5737   13.2857 O   0  0  0  0  0  0  0  0  0  0  0  0
    0.3918  -11.5071   13.1141 C   0  0  1  0  0  0  0  0  0  0  0  0
    1.4871  -12.2844   12.3562 C   0  0  0  0  0  0  0  0  0  0  0  0
    2.6086  -12.8713   13.2211 C   0  0  0  0  0  0  0  0  0  0  0  0
   -0.2263  -12.3375   14.1229 O   0  0  0  0  0  0  0  0  0  0  0  0
  1  2  1  6  0  0  0
  1  3  1  0  0  0  0
  1  8  1  0  0  0  0
  3  4  1  0  0  0  0
  3 32  1  6  0  0  0
  4  5  1  0  0  0  0
  4 33  1  1  0  0  0
  5  6  1  6  0  0  0
  5  7  1  0  0  0  0
  7  8  1  0  0  0  0
  7  9  1  1  0  0  0
  9 10  1  0  0  0  0
 11 12  1  6  0  0  0
 11 13  1  0  0  0  0
 11 19  1  0  0  0  0
 12 35  1  0  0  0  0
 13 14  1  0  0  0  0
 14 15  1  1  0  0  0
 14 16  1  0  0  0  0
 16  2  1  1  0  0  0
 16 17  1  0  0  0  0
 17 18  1  1  0  0  0
 17 19  1  0  0  0  0
 19 20  1  6  0  0  0
 21 20  1  6  0  0  0
 21 22  1  0  0  0  0
 21 29  1  0  0  0  0
 22 23  1  6  0  0  0
 22 24  1  0  0  0  0
 24 25  1  1  0  0  0
 24 26  1  0  0  0  0
 26 27  1  6  0  0  0
 26 28  1  0  0  0  0
 28 29  1  0  0  0  0
 28 30  1  1  0  0  0
 30 31  1  0  0  0  0
 34 39  1  0  0  0  0
 35 36  2  0  0  0  0
 37 35  1  1  0  0  0
 37 38  1  0  0  0  0
 37 40  1  0  0  0  0
 38 39  1  0  0  0  0
M  END
>  <CHROM.1>
-175.58560879,-175.37475641,-48.14160175,-178.88740683,169.39718392,-85.04109938
174.66736992,-143.55451158,63.69801813,-174.94220937,0.62664148,-8.92912996
17.69119906,0.95271987,0.02466668,0.92394993

>  <Name>
2g5q_lig

>  <RI>
0

>  <Rbt.Current_Directory>
/home/itssahil/PROJECTS/Mol_Feturizer/New_Systems/rnas/2g5q

>  <Rbt.Executable>
rbdock ($Id: //depot/dev/client3/rdock/2013.1/src/exe/rbdock.cxx#4 $)

>  <Rbt.Library>
libRbt.so (2013.1, Build901 2013/11/27)

>  <Rbt.Parameter_File>
/export/apps/rDock/src/rDock_2013.1_src/data/scripts/dock_solv.prm

>  <Rbt.Receptor>
prm/pocket_docking_3.prm

>  <SCORE>
-21.6933

>  <SCORE.INTER>
-14.7897

>  <SCORE.INTER.CONST>
1

>  <SCORE.INTER.POLAR>
-1.2307

>  <SCORE.INTER.ROT>
10

>  <SCORE.INTER.SOLV>
22.3071

>  <SCORE.INTER.VDW>
-23.4598

>  <SCORE.INTER.norm>
-0.369742

>  <SCORE.INTRA>
-7.03419

>  <SCORE.INTRA.DIHEDRAL>
-16.8935

>  <SCORE.INTRA.DIHEDRAL.0>
22.5778

>  <SCORE.INTRA.POLAR>
0

>  <SCORE.INTRA.POLAR.0>
0

>  <SCORE.INTRA.REPUL>
0

>  <SCORE.INTRA.REPUL.0>
0

>  <SCORE.INTRA.SOLV>
-0.887229

>  <SCORE.INTRA.SOLV.lig_0>
-102.332

>  <SCORE.INTRA.VDW>
1.85617

>  <SCORE.INTRA.VDW.0>
-5.08747

>  <SCORE.INTRA.norm>
-0.175855

>  <SCORE.RESTR>
0.130553

>  <SCORE.RESTR.CAVITY>
0.130553

>  <SCORE.RESTR.norm>
0.00326384

>  <SCORE.SYSTEM>
0

>  <SCORE.SYSTEM.CONST>
0

>  <SCORE.SYSTEM.DIHEDRAL>
0

>  <SCORE.SYSTEM.SOLV>
0

>  <SCORE.SYSTEM.norm>
0

>  <SCORE.heavy>
40

>  <SCORE.norm>
-0.542333

>  <RMSD>
5.521

$$$$
2g5q_lig
 OpenBabel11021811433D
libRbt.so/2013.1/901 2013/11/27
 40 42  0  0  0  0  0  0  0  0999 V2000
    2.0239   -6.2732   20.5700 C   0  0  2  0  0  0  0  0  0  0  0  0
    2.4814   -6.4645   19.2495 O   0  0  0  0  0  0  0  0  0  0  0  0
    2.5342   -4.8945   21.0833 C   0  0  1  0  0  0  0  0  0  0  0  0
    4.0863   -4.8697   21.2386 C   0  0  2  0  0  0  0  0  0  0  0  0
    4.4799   -5.9806   22.2465 C   0  0  2  0  0  0  0  0  0  0  0  0
    5.9043   -5.9749   22.4347 O   0  0  0  0  0  0  0  0  0  0  0  0
    3.9862   -7.3697   21.6714 C   0  0  2  0  0  0  0  0  0  0  0  0
    2.5080   -7.3460   21.4783 O   0  0  0  0  0  0  0  0  0  0  0  0
    4.3104   -8.5394   22.5947 C   0  0  0  0  0  0  0  0  0  0  0  0
    3.7939   -9.8384   22.0582 N   0  0  0  0  0  0  0  0  0  0  0  0
    0.7757   -8.8030   15.9785 C   0  0  2  0  0  0  0  0  0  0  0  0
    0.3875   -9.9367   15.1480 N   0  0  0  0  0  0  0  0  0  0  0  0
    2.3532   -8.7536   16.1369 C   0  0  0  0  0  0  0  0  0  0  0  0
    2.7787   -7.5225   17.0301 C   0  0  2  0  0  0  0  0  0  0  0  0
    4.2602   -7.4811   17.1615 N   0  0  0  0  0  0  0  0  0  0  0  0
    2.0783   -7.6290   18.4430 C   0  0  2  0  0  0  0  0  0  0  0  0
    0.5115   -7.6801   18.2444 C   0  0  2  0  0  0  0  0  0  0  0  0
   -0.1202   -7.7828   19.5244 O   0  0  0  0  0  0  0  0  0  0  0  0
    0.1077   -8.9237   17.3639 C   0  0  1  0  0  0  0  0  0  0  0  0
   -1.3346   -8.9614   17.1723 O   0  0  0  0  0  0  0  0  0  0  0  0
   -2.2645   -9.1581   18.2090 C   0  0  2  0  0  0  0  0  0  0  0  0
   -2.1100  -10.6360   18.7041 C   0  0  2  0  0  0  0  0  0  0  0  0
   -0.8134  -10.8379   19.1673 O   0  0  0  0  0  0  0  0  0  0  0  0
   -2.4654  -11.6595   17.5601 C   0  0  1  0  0  0  0  0  0  0  0  0
   -2.3248  -13.0785   18.0261 N   0  0  0  0  0  0  0  0  0  0  0  0
   -3.9426  -11.3719   17.0780 C   0  0  2  0  0  0  0  0  0  0  0  0
   -4.3261  -12.2777   16.0413 O   0  0  0  0  0  0  0  0  0  0  0  0
   -4.0296   -9.8844   16.5957 C   0  0  2  0  0  0  0  0  0  0  0  0
   -3.6272   -8.9381   17.6923 O   0  0  0  0  0  0  0  0  0  0  0  0
   -5.4169   -9.5246   16.1492 C   0  0  0  0  0  0  0  0  0  0  0  0
   -6.3609   -9.6525   17.2251 O   0  0  0  0  0  0  0  0  0  0  0  0
    2.0801   -3.8566   20.1482 O   0  0  0  0  0  0  0  0  0  0  0  0
    4.4802   -3.6354   21.7065 O   0  0  0  0  0  0  0  0  0  0  0  0
    3.5714  -13.4187   12.4578 N   0  0  0  0  0  0  0  0  0  0  0  0
    0.9323  -10.2460   13.9096 C   0  0  0  0  0  0  0  0  0  0  0  0
    1.8094   -9.5853   13.3643 O   0  0  0  0  0  0  0  0  0  0  0  0
    0.2971  -11.5094   13.2844 C   0  0  1  0  0  0  0  0  0  0  0  0
    1.3578  -12.2947   12.4866 C   0  0  0  0  0  0  0  0  0  0  0  0
    2.5108  -12.8825   13.3083 C   0  0  0  0  0  0  0  0  0  0  0  0
   -0.2668  -12.3253   14.3358 O   0  0  0  0  0  0  0  0  0  0  0  0
  1  2  1  6  0  0  0
  1  3  1  0  0  0  0
  1  8  1  0  0  0  0
  3  4  1  0  0  0  0
  3 32  1  6  0  0  0
  4  5  1  0  0  0  0
  4 33  1  1  0  0  0
  5  6  1  6  0  0  0
  5  7  1  0  0  0  0
  7  8  1  0  0  0  0
  7  9  1  1  0  0  0
  9 10  1  0  0  0  0
 11 12  1  6  0  0  0
 11 13  1  0  0  0  0
 11 19  1  0  0  0  0
 12 35  1  0  0  0  0
 13 14  1  0  0  0  0
 14 15  1  1  0  0  0
 14 16  1  0  0  0  0
 16  2  1  1  0  0  0
 16 17  1  0  0  0  0
 17 18  1  1  0  0  0
 17 19  1  0  0  0  0
 19 20  1  6  0  0  0
 21 20  1  6  0  0  0
 21 22  1  0  0  0  0
 21 29  1  0  0  0  0
 22 23  1  6  0  0  0
 22 24  1  0  0  0  0
 24 25  1  1  0  0  0
 24 26  1  0  0  0  0
 26 27  1  6  0  0  0
 26 28  1  0  0  0  0
 28 29  1  0  0  0  0
 28 30  1  1  0  0  0
 30 31  1  0  0  0  0
 34 39  1  0  0  0  0
 35 36  2  0  0  0  0
 37 35  1  1  0  0  0
 37 38  1  0  0  0  0
 37 40  1  0  0  0  0
 38 39  1  0  0  0  0
M  END
>  <CHROM.1>
-175.05541199,177.98679648,-49.86407970,-179.75353770,175.52109039,-68.96111578
61.48392390,-145.34658630,64.68564379,-170.80337957,0.65519501,-8.92588500
17.87977298,0.93567351,0.17095116,0.96143159

>  <Name>
2g5q_lig

>  <RI>
0

>  <Rbt.Current_Directory>
/home/itssahil/PROJECTS/Mol_Feturizer/New_Systems/rnas/2g5q

>  <Rbt.Executable>
rbdock ($Id: //depot/dev/client3/rdock/2013.1/src/exe/rbdock.cxx#4 $)

>  <Rbt.Library>
libRbt.so (2013.1, Build901 2013/11/27)

>  <Rbt.Parameter_File>
/export/apps/rDock/src/rDock_2013.1_src/data/scripts/dock_solv.prm

>  <Rbt.Receptor>
prm/pocket_docking_3.prm

>  <SCORE>
-20.4952

>  <SCORE.INTER>
-12.7061

>  <SCORE.INTER.CONST>
1

>  <SCORE.INTER.POLAR>
-0.844672

>  <SCORE.INTER.ROT>
10

>  <SCORE.INTER.SOLV>
19.2026

>  <SCORE.INTER.VDW>
-22.3227

>  <SCORE.INTER.norm>
-0.317652

>  <SCORE.INTRA>
-7.95444

>  <SCORE.INTRA.DIHEDRAL>
-19.6128

>  <SCORE.INTRA.DIHEDRAL.0>
22.5778

>  <SCORE.INTRA.POLAR>
0

>  <SCORE.INTRA.POLAR.0>
0

>  <SCORE.INTRA.REPUL>
0

>  <SCORE.INTRA.REPUL.0>
0

>  <SCORE.INTRA.SOLV>
-0.629724

>  <SCORE.INTRA.SOLV.lig_0>
-102.332

>  <SCORE.INTRA.VDW>
2.16681

>  <SCORE.INTRA.VDW.0>
-5.08747

>  <SCORE.INTRA.norm>
-0.198861

>  <SCORE.RESTR>
0.165298

>  <SCORE.RESTR.CAVITY>
0.165298

>  <SCORE.RESTR.norm>
0.00413245

>  <SCORE.SYSTEM>
0

>  <SCORE.SYSTEM.CONST>
0

>  <SCORE.SYSTEM.DIHEDRAL>
0

>  <SCORE.SYSTEM.SOLV>
0

>  <SCORE.SYSTEM.norm>
0

>  <SCORE.heavy>
40

>  <SCORE.norm>
-0.512381

>  <RMSD>
5.546

$$$$
2g5q_lig
 OpenBabel11021811433D
libRbt.so/2013.1/901 2013/11/27
 40 42  0  0  0  0  0  0  0  0999 V2000
    1.9899   -7.3102   19.9293 C   0  0  2  0  0  0  0  0  0  0  0  0
    2.5236   -7.3999   18.6268 O   0  0  0  0  0  0  0  0  0  0  0  0
    2.5093   -6.0022   20.5957 C   0  0  1  0  0  0  0  0  0  0  0  0
    4.0485   -6.0479   20.8454 C   0  0  2  0  0  0  0  0  0  0  0  0
    4.3432   -7.2577   21.7698 C   0  0  2  0  0  0  0  0  0  0  0  0
    5.7524   -7.3207   22.0429 O   0  0  0  0  0  0  0  0  0  0  0  0
    3.8440   -8.5712   21.0421 C   0  0  2  0  0  0  0  0  0  0  0  0
    2.3824   -8.4764   20.7636 O   0  0  0  0  0  0  0  0  0  0  0  0
    4.0729   -9.8294   21.8729 C   0  0  0  0  0  0  0  0  0  0  0  0
    3.1997   -9.8664   23.0886 N   0  0  0  0  0  0  0  0  0  0  0  0
    1.2145   -9.7681   15.1982 C   0  0  2  0  0  0  0  0  0  0  0  0
    0.9845  -10.9012   14.3099 N   0  0  0  0  0  0  0  0  0  0  0  0
    2.7697   -9.5594   15.4298 C   0  0  0  0  0  0  0  0  0  0  0  0
    3.0238   -8.3283   16.3859 C   0  0  2  0  0  0  0  0  0  0  0  0
    4.4857   -8.1366   16.5860 N   0  0  0  0  0  0  0  0  0  0  0  0
    2.2810   -8.5661   17.7606 C   0  0  2  0  0  0  0  0  0  0  0  0
    0.7382   -8.7736   17.4892 C   0  0  2  0  0  0  0  0  0  0  0  0
    0.0688   -8.9950   18.7346 O   0  0  0  0  0  0  0  0  0  0  0  0
    0.5065  -10.0155   16.5464 C   0  0  1  0  0  0  0  0  0  0  0  0
   -0.9143  -10.1969   16.2881 O   0  0  0  0  0  0  0  0  0  0  0  0
   -1.4468  -11.2197   15.4829 C   0  0  2  0  0  0  0  0  0  0  0  0
   -3.0007  -11.2103   15.6786 C   0  0  2  0  0  0  0  0  0  0  0  0
   -3.5100   -9.9732   15.2957 O   0  0  0  0  0  0  0  0  0  0  0  0
   -3.3886  -11.5424   17.1692 C   0  0  1  0  0  0  0  0  0  0  0  0
   -4.8758  -11.5403   17.3658 N   0  0  0  0  0  0  0  0  0  0  0  0
   -2.7764  -12.9515   17.5392 C   0  0  2  0  0  0  0  0  0  0  0  0
   -3.1024  -13.3120   18.8831 O   0  0  0  0  0  0  0  0  0  0  0  0
   -1.2262  -12.8941   17.3249 C   0  0  2  0  0  0  0  0  0  0  0  0
   -0.8916  -12.5168   15.9087 O   0  0  0  0  0  0  0  0  0  0  0  0
   -0.5736  -14.2118   17.6275 C   0  0  0  0  0  0  0  0  0  0  0  0
   -0.7440  -14.5736   19.0077 O   0  0  0  0  0  0  0  0  0  0  0  0
    2.1473   -4.8693   19.7333 O   0  0  0  0  0  0  0  0  0  0  0  0
    4.4501   -4.8753   21.4464 O   0  0  0  0  0  0  0  0  0  0  0  0
    4.1835  -12.9051   13.3135 N   0  0  0  0  0  0  0  0  0  0  0  0
    1.4880  -12.1808   14.4973 C   0  0  0  0  0  0  0  0  0  0  0  0
    2.1998  -12.5039   15.4419 O   0  0  0  0  0  0  0  0  0  0  0  0
    1.0651  -13.1522   13.3712 C   0  0  1  0  0  0  0  0  0  0  0  0
    1.9913  -12.9809   12.1502 C   0  0  0  0  0  0  0  0  0  0  0  0
    3.3944  -13.5833   12.2872 C   0  0  0  0  0  0  0  0  0  0  0  0
    1.1156  -14.5073   13.8715 O   0  0  0  0  0  0  0  0  0  0  0  0
  1  2  1  6  0  0  0
  1  3  1  0  0  0  0
  1  8  1  0  0  0  0
  3  4  1  0  0  0  0
  3 32  1  6  0  0  0
  4  5  1  0  0  0  0
  4 33  1  1  0  0  0
  5  6  1  6  0  0  0
  5  7  1  0  0  0  0
  7  8  1  0  0  0  0
  7  9  1  1  0  0  0
  9 10  1  0  0  0  0
 11 12  1  6  0  0  0
 11 13  1  0  0  0  0
 11 19  1  0  0  0  0
 12 35  1  0  0  0  0
 13 14  1  0  0  0  0
 14 15  1  1  0  0  0
 14 16  1  0  0  0  0
 16  2  1  1  0  0  0
 16 17  1  0  0  0  0
 17 18  1  1  0  0  0
 17 19  1  0  0  0  0
 19 20  1  6  0  0  0
 21 20  1  1  0  0  0
 21 22  1  0  0  0  0
 21 29  1  0  0  0  0
 22 23  1  1  0  0  0
 22 24  1  0  0  0  0
 24 25  1  6  0  0  0
 24 26  1  0  0  0  0
 26 27  1  1  0  0  0
 26 28  1  0  0  0  0
 28 29  1  0  0  0  0
 28 30  1  6  0  0  0
 30 31  1  0  0  0  0
 34 39  1  0  0  0  0
 35 36  2  0  0  0  0
 37 35  1  1  0  0  0
 37 38  1  0  0  0  0
 37 40  1  0  0  0  0
 38 39  1  0  0  0  0
M  END
>  <CHROM.1>
176.46700916,68.44426820,53.69257740,-179.99832539,60.59433336,169.99736548
-63.02089639,81.90927566,75.08185679,-65.71778439,1.15293895,-10.21959148
17.50104335,1.04287390,0.37794859,0.99300387

>  <Name>
2g5q_lig

>  <RI>
0

>  <Rbt.Current_Directory>
/home/itssahil/PROJECTS/Mol_Feturizer/New_Systems/rnas/2g5q

>  <Rbt.Executable>
rbdock ($Id: //depot/dev/client3/rdock/2013.1/src/exe/rbdock.cxx#4 $)

>  <Rbt.Library>
libRbt.so (2013.1, Build901 2013/11/27)

>  <Rbt.Parameter_File>
/export/apps/rDock/src/rDock_2013.1_src/data/scripts/dock_solv.prm

>  <Rbt.Receptor>
prm/pocket_docking_5.prm

>  <SCORE>
-16.5929

>  <SCORE.INTER>
-10.138

>  <SCORE.INTER.CONST>
1

>  <SCORE.INTER.POLAR>
-0.229105

>  <SCORE.INTER.ROT>
10

>  <SCORE.INTER.SOLV>
15.0244

>  <SCORE.INTER.VDW>
-21.2698

>  <SCORE.INTER.norm>
-0.253451

>  <SCORE.INTRA>
-6.45485

>  <SCORE.INTRA.DIHEDRAL>
-19.5056

>  <SCORE.INTRA.DIHEDRAL.0>
22.5778

>  <SCORE.INTRA.POLAR>
0

>  <SCORE.INTRA.POLAR.0>
0

>  <SCORE.INTRA.REPUL>
0

>  <SCORE.INTRA.REPUL.0>
0

>  <SCORE.INTRA.SOLV>
5.21536

>  <SCORE.INTRA.SOLV.lig_0>
-102.332

>  <SCORE.INTRA.VDW>
0.690259

>  <SCORE.INTRA.VDW.0>
-5.08747

>  <SCORE.INTRA.norm>
-0.161371

>  <SCORE.RESTR>
0

>  <SCORE.RESTR.CAVITY>
0

>  <SCORE.RESTR.norm>
0

>  <SCORE.SYSTEM>
0

>  <SCORE.SYSTEM.CONST>
0

>  <SCORE.SYSTEM.DIHEDRAL>
0

>  <SCORE.SYSTEM.SOLV>
0

>  <SCORE.SYSTEM.norm>
0

>  <SCORE.heavy>
40

>  <SCORE.norm>
-0.414822

>  <RMSD>
5.546

$$$$
2g5q_lig
 OpenBabel11021811433D
libRbt.so/2013.1/901 2013/11/27
 40 42  0  0  0  0  0  0  0  0999 V2000
    2.2352   -6.7004   20.4323 C   0  0  2  0  0  0  0  0  0  0  0  0
    2.8274   -6.7589   19.1534 O   0  0  0  0  0  0  0  0  0  0  0  0
    2.5204   -5.3015   21.0539 C   0  0  1  0  0  0  0  0  0  0  0  0
    4.0372   -5.0971   21.3557 C   0  0  2  0  0  0  0  0  0  0  0  0
    4.4778   -6.2078   22.3444 C   0  0  2  0  0  0  0  0  0  0  0  0
    5.8680   -6.0398   22.6661 O   0  0  0  0  0  0  0  0  0  0  0  0
    4.2158   -7.6114   21.6624 C   0  0  2  0  0  0  0  0  0  0  0  0
    2.7692   -7.7564   21.3321 O   0  0  0  0  0  0  0  0  0  0  0  0
    4.6026   -8.7838   22.5576 C   0  0  0  0  0  0  0  0  0  0  0  0
    3.5068   -9.1486   23.5104 N   0  0  0  0  0  0  0  0  0  0  0  0
    1.8242   -9.2656   15.7201 C   0  0  2  0  0  0  0  0  0  0  0  0
    1.7219  -10.4218   14.8379 N   0  0  0  0  0  0  0  0  0  0  0  0
    3.3472   -8.9089   15.9828 C   0  0  0  0  0  0  0  0  0  0  0  0
    3.4625   -7.6522   16.9326 C   0  0  2  0  0  0  0  0  0  0  0  0
    4.8950   -7.3214   17.1619 N   0  0  0  0  0  0  0  0  0  0  0  0
    2.7153   -7.9492   18.2933 C   0  0  2  0  0  0  0  0  0  0  0  0
    1.2055   -8.3039   17.9911 C   0  0  2  0  0  0  0  0  0  0  0  0
    0.5326   -8.5786   19.2239 O   0  0  0  0  0  0  0  0  0  0  0  0
    1.1131   -9.5690   17.0552 C   0  0  1  0  0  0  0  0  0  0  0  0
   -0.2781   -9.8860   16.7684 O   0  0  0  0  0  0  0  0  0  0  0  0
   -1.1827  -10.3999   17.7149 C   0  0  2  0  0  0  0  0  0  0  0  0
   -2.1629  -11.3572   16.9559 C   0  0  2  0  0  0  0  0  0  0  0  0
   -1.4401  -12.3877   16.3627 O   0  0  0  0  0  0  0  0  0  0  0  0
   -3.0085  -10.5719   15.8831 C   0  0  1  0  0  0  0  0  0  0  0  0
   -3.9541  -11.4797   15.1536 N   0  0  0  0  0  0  0  0  0  0  0  0
   -3.7966   -9.4174   16.6203 C   0  0  2  0  0  0  0  0  0  0  0  0
   -4.5909   -8.6714   15.6958 O   0  0  0  0  0  0  0  0  0  0  0  0
   -2.7634   -8.4980   17.3550 C   0  0  2  0  0  0  0  0  0  0  0  0
   -1.9338   -9.2895   18.3272 O   0  0  0  0  0  0  0  0  0  0  0  0
   -3.4414   -7.3902   18.1079 C   0  0  0  0  0  0  0  0  0  0  0  0
   -2.5030   -6.6525   18.9078 O   0  0  0  0  0  0  0  0  0  0  0  0
    2.0228   -4.2747   20.1286 O   0  0  0  0  0  0  0  0  0  0  0  0
    4.2295   -3.8529   21.9146 O   0  0  0  0  0  0  0  0  0  0  0  0
    3.0694  -14.2782   15.6315 N   0  0  0  0  0  0  0  0  0  0  0  0
    2.1387  -10.4588   13.5146 C   0  0  0  0  0  0  0  0  0  0  0  0
    2.6403   -9.5056   12.9288 O   0  0  0  0  0  0  0  0  0  0  0  0
    1.8840  -11.8333   12.8538 C   0  0  1  0  0  0  0  0  0  0  0  0
    2.6896  -12.9276   13.5830 C   0  0  0  0  0  0  0  0  0  0  0  0
    2.2665  -13.2166   15.0280 C   0  0  0  0  0  0  0  0  0  0  0  0
    0.4682  -12.1220   12.8929 O   0  0  0  0  0  0  0  0  0  0  0  0
  1  2  1  6  0  0  0
  1  3  1  0  0  0  0
  1  8  1  0  0  0  0
  3  4  1  0  0  0  0
  3 32  1  6  0  0  0
  4  5  1  0  0  0  0
  4 33  1  1  0  0  0
  5  6  1  6  0  0  0
  5  7  1  0  0  0  0
  7  8  1  0  0  0  0
  7  9  1  1  0  0  0
  9 10  1  0  0  0  0
 11 12  1  6  0  0  0
 11 13  1  0  0  0  0
 11 19  1  0  0  0  0
 12 35  1  0  0  0  0
 13 14  1  0  0  0  0
 14 15  1  1  0  0  0
 14 16  1  0  0  0  0
 16  2  1  1  0  0  0
 16 17  1  0  0  0  0
 17 18  1  1  0  0  0
 17 19  1  0  0  0  0
 19 20  1  6  0  0  0
 21 20  1  6  0  0  0
 21 22  1  0  0  0  0
 21 29  1  0  0  0  0
 22 23  1  6  0  0  0
 22 24  1  0  0  0  0
 24 25  1  1  0  0  0
 24 26  1  0  0  0  0
 26 27  1  6  0  0  0
 26 28  1  0  0  0  0
 28 29  1  0  0  0  0
 28 30  1  1  0  0  0
 30 31  1  0  0  0  0
 34 39  1  0  0  0  0
 35 36  2  0  0  0  0
 37 35  1  1  0  0  0
 37 38  1  0  0  0  0
 37 40  1  0  0  0  0
 38 39  1  0  0  0  0
M  END
>  <CHROM.1>
-178.87373227,84.48137477,-64.98917366,178.65117138,170.45417278,-146.53997078
172.95690698,-62.13207603,66.37938948,179.14973859,1.18924762,-8.86779051
17.81270881,1.06825374,-0.06394570,0.88900970

>  <Name>
2g5q_lig

>  <RI>
0

>  <Rbt.Current_Directory>
/home/itssahil/PROJECTS/Mol_Feturizer/New_Systems/rnas/2g5q

>  <Rbt.Executable>
rbdock ($Id: //depot/dev/client3/rdock/2013.1/src/exe/rbdock.cxx#4 $)

>  <Rbt.Library>
libRbt.so (2013.1, Build901 2013/11/27)

>  <Rbt.Parameter_File>
/export/apps/rDock/src/rDock_2013.1_src/data/scripts/dock_solv.prm

>  <Rbt.Receptor>
prm/pocket_docking_3.prm

>  <SCORE>
-20.4323

>  <SCORE.INTER>
-14.5485

>  <SCORE.INTER.CONST>
1

>  <SCORE.INTER.POLAR>
-1.82328

>  <SCORE.INTER.ROT>
10

>  <SCORE.INTER.SOLV>
29.2923

>  <SCORE.INTER.VDW>
-23.6522

>  <SCORE.INTER.norm>
-0.363713

>  <SCORE.INTRA>
-6.28602

>  <SCORE.INTRA.DIHEDRAL>
-14.8242

>  <SCORE.INTRA.DIHEDRAL.0>
22.5778

>  <SCORE.INTRA.POLAR>
0

>  <SCORE.INTRA.POLAR.0>
0

>  <SCORE.INTRA.REPUL>
0.00146739

>  <SCORE.INTRA.REPUL.0>
0

>  <SCORE.INTRA.SOLV>
-0.010099

>  <SCORE.INTRA.SOLV.lig_0>
-102.332

>  <SCORE.INTRA.VDW>
1.12381

>  <SCORE.INTRA.VDW.0>
-5.08747

>  <SCORE.INTRA.norm>
-0.157151

>  <SCORE.RESTR>
0.402288

>  <SCORE.RESTR.CAVITY>
0.402288

>  <SCORE.RESTR.norm>
0.0100572

>  <SCORE.SYSTEM>
0

>  <SCORE.SYSTEM.CONST>
0

>  <SCORE.SYSTEM.DIHEDRAL>
0

>  <SCORE.SYSTEM.SOLV>
0

>  <SCORE.SYSTEM.norm>
0

>  <SCORE.heavy>
40

>  <SCORE.norm>
-0.510807

>  <RMSD>
5.548

$$$$
2g5q_lig
 OpenBabel11021811433D
libRbt.so/2013.1/901 2013/11/27
 40 42  0  0  0  0  0  0  0  0999 V2000
    2.0609   -6.7364   20.1643 C   0  0  2  0  0  0  0  0  0  0  0  0
    2.6219   -6.8523   18.8753 O   0  0  0  0  0  0  0  0  0  0  0  0
    2.4039   -5.3293   20.7364 C   0  0  1  0  0  0  0  0  0  0  0  0
    3.9328   -5.1648   20.9990 C   0  0  2  0  0  0  0  0  0  0  0  0
    4.3604   -6.2589   22.0115 C   0  0  2  0  0  0  0  0  0  0  0  0
    5.7621   -6.1260   22.2978 O   0  0  0  0  0  0  0  0  0  0  0  0
    4.0391   -7.6732   21.3787 C   0  0  2  0  0  0  0  0  0  0  0  0
    2.5816   -7.7815   21.0844 O   0  0  0  0  0  0  0  0  0  0  0  0
    4.4090   -8.8301   22.3010 C   0  0  0  0  0  0  0  0  0  0  0  0
    5.8893   -9.0448   22.3669 N   0  0  0  0  0  0  0  0  0  0  0  0
    1.7500   -9.6192   15.6102 C   0  0  2  0  0  0  0  0  0  0  0  0
    1.6904  -10.8380   14.8122 N   0  0  0  0  0  0  0  0  0  0  0  0
    3.2595   -9.2154   15.8830 C   0  0  0  0  0  0  0  0  0  0  0  0
    3.3288   -7.8914   16.7413 C   0  0  2  0  0  0  0  0  0  0  0  0
    4.7490   -7.5176   16.9806 N   0  0  0  0  0  0  0  0  0  0  0  0
    2.5525   -8.1035   18.1016 C   0  0  2  0  0  0  0  0  0  0  0  0
    1.0572   -8.5079   17.7896 C   0  0  2  0  0  0  0  0  0  0  0  0
    0.3580   -8.7056   19.0225 O   0  0  0  0  0  0  0  0  0  0  0  0
    1.0106   -9.8389   16.9462 C   0  0  1  0  0  0  0  0  0  0  0  0
   -0.3672  -10.2023   16.6498 O   0  0  0  0  0  0  0  0  0  0  0  0
   -1.2663  -10.7290   17.5946 C   0  0  2  0  0  0  0  0  0  0  0  0
   -2.4932  -11.3012   16.8069 C   0  0  2  0  0  0  0  0  0  0  0  0
   -2.0628  -12.2971   15.9355 O   0  0  0  0  0  0  0  0  0  0  0  0
   -3.2519  -10.1606   16.0284 C   0  0  1  0  0  0  0  0  0  0  0  0
   -4.4319  -10.6981   15.2742 N   0  0  0  0  0  0  0  0  0  0  0  0
   -3.7060   -9.0645   17.0723 C   0  0  2  0  0  0  0  0  0  0  0  0
   -4.4091   -8.0029   16.4236 O   0  0  0  0  0  0  0  0  0  0  0  0
   -2.4378   -8.5333   17.8220 C   0  0  2  0  0  0  0  0  0  0  0  0
   -1.7054   -9.6553   18.5036 O   0  0  0  0  0  0  0  0  0  0  0  0
   -2.7933   -7.5059   18.8572 C   0  0  0  0  0  0  0  0  0  0  0  0
   -1.6185   -6.9851   19.5003 O   0  0  0  0  0  0  0  0  0  0  0  0
    1.9181   -4.3153   19.7909 O   0  0  0  0  0  0  0  0  0  0  0  0
    4.1767   -3.9112   21.5151 O   0  0  0  0  0  0  0  0  0  0  0  0
    0.8728  -14.7785   14.7620 N   0  0  0  0  0  0  0  0  0  0  0  0
    2.2439  -10.9963   13.5494 C   0  0  0  0  0  0  0  0  0  0  0  0
    2.8479  -10.1122   12.9519 O   0  0  0  0  0  0  0  0  0  0  0  0
    1.9993  -12.4090   12.9707 C   0  0  1  0  0  0  0  0  0  0  0  0
    2.7505  -13.4616   13.8108 C   0  0  0  0  0  0  0  0  0  0  0  0
    2.0306  -13.9436   15.0756 C   0  0  0  0  0  0  0  0  0  0  0  0
    0.5787  -12.6760   12.9588 O   0  0  0  0  0  0  0  0  0  0  0  0
  1  2  1  6  0  0  0
  1  3  1  0  0  0  0
  1  8  1  0  0  0  0
  3  4  1  0  0  0  0
  3 32  1  6  0  0  0
  4  5  1  0  0  0  0
  4 33  1  1  0  0  0
  5  6  1  6  0  0  0
  5  7  1  0  0  0  0
  7  8  1  0  0  0  0
  7  9  1  1  0  0  0
  9 10  1  0  0  0  0
 11 12  1  6  0  0  0
 11 13  1  0  0  0  0
 11 19  1  0  0  0  0
 12 35  1  0  0  0  0
 13 14  1  0  0  0  0
 14 15  1  1  0  0  0
 14 16  1  0  0  0  0
 16  2  1  1  0  0  0
 16 17  1  0  0  0  0
 17 18  1  1  0  0  0
 17 19  1  0  0  0  0
 19 20  1  6  0  0  0
 21 20  1  6  0  0  0
 21 22  1  0  0  0  0
 21 29  1  0  0  0  0
 22 23  1  6  0  0  0
 22 24  1  0  0  0  0
 24 25  1  1  0  0  0
 24 26  1  0  0  0  0
 26 27  1  6  0  0  0
 26 28  1  0  0  0  0
 28 29  1  0  0  0  0
 28 30  1  1  0  0  0
 30 31  1  0  0  0  0
 34 39  1  0  0  0  0
 35 36  2  0  0  0  0
 37 35  1  1  0  0  0
 37 38  1  0  0  0  0
 37 40  1  0  0  0  0
 38 39  1  0  0  0  0
M  END
>  <CHROM.1>
175.76011820,-74.01764342,-59.09171952,-177.70897558,167.01164217,-166.31634288
-177.60901669,-65.91790484,83.45180675,70.70030467,1.15369942,-9.01570513
17.72267445,1.08029858,-0.06646389,0.82472694

>  <Name>
2g5q_lig

>  <RI>
0

>  <Rbt.Current_Directory>
/home/itssahil/PROJECTS/Mol_Feturizer/New_Systems/rnas/2g5q

>  <Rbt.Executable>
rbdock ($Id: //depot/dev/client3/rdock/2013.1/src/exe/rbdock.cxx#4 $)

>  <Rbt.Library>
libRbt.so (2013.1, Build901 2013/11/27)

>  <Rbt.Parameter_File>
/export/apps/rDock/src/rDock_2013.1_src/data/scripts/dock_solv.prm

>  <Rbt.Receptor>
prm/pocket_docking_2.prm

>  <SCORE>
-9.24667

>  <SCORE.INTER>
-6.72452

>  <SCORE.INTER.CONST>
1

>  <SCORE.INTER.POLAR>
-0.169815

>  <SCORE.INTER.ROT>
10

>  <SCORE.INTER.SOLV>
27.1856

>  <SCORE.INTER.VDW>
-23.2455

>  <SCORE.INTER.norm>
-0.168113

>  <SCORE.INTRA>
-4.68186

>  <SCORE.INTRA.DIHEDRAL>
-17.1026

>  <SCORE.INTRA.DIHEDRAL.0>
22.5778

>  <SCORE.INTRA.POLAR>
0

>  <SCORE.INTRA.POLAR.0>
0

>  <SCORE.INTRA.REPUL>
0.0808406

>  <SCORE.INTRA.REPUL.0>
0

>  <SCORE.INTRA.SOLV>
2.79483

>  <SCORE.INTRA.SOLV.lig_0>
-102.332

>  <SCORE.INTRA.VDW>
2.06783

>  <SCORE.INTRA.VDW.0>
-5.08747

>  <SCORE.INTRA.norm>
-0.117046

>  <SCORE.RESTR>
2.1597

>  <SCORE.RESTR.CAVITY>
2.1597

>  <SCORE.RESTR.norm>
0.0539925

>  <SCORE.SYSTEM>
0

>  <SCORE.SYSTEM.CONST>
0

>  <SCORE.SYSTEM.DIHEDRAL>
0

>  <SCORE.SYSTEM.SOLV>
0

>  <SCORE.SYSTEM.norm>
0

>  <SCORE.heavy>
40

>  <SCORE.norm>
-0.231167

>  <RMSD>
5.562

$$$$
2g5q_lig
 OpenBabel11021811433D
libRbt.so/2013.1/901 2013/11/27
 40 42  0  0  0  0  0  0  0  0999 V2000
    2.1664   -6.6431   20.3086 C   0  0  2  0  0  0  0  0  0  0  0  0
    2.7758   -6.7678   19.0427 O   0  0  0  0  0  0  0  0  0  0  0  0
    2.4732   -5.2258   20.8760 C   0  0  1  0  0  0  0  0  0  0  0  0
    3.9896   -5.0416   21.1926 C   0  0  2  0  0  0  0  0  0  0  0  0
    4.3911   -6.1190   22.2332 C   0  0  2  0  0  0  0  0  0  0  0  0
    5.7798   -5.9675   22.5692 O   0  0  0  0  0  0  0  0  0  0  0  0
    4.1083   -7.5441   21.6061 C   0  0  2  0  0  0  0  0  0  0  0  0
    2.6638   -7.6718   21.2597 O   0  0  0  0  0  0  0  0  0  0  0  0
    4.4560   -8.6860   22.5552 C   0  0  0  0  0  0  0  0  0  0  0  0
    4.1441  -10.0246   21.9615 N   0  0  0  0  0  0  0  0  0  0  0  0
    1.8458   -9.4589   15.7304 C   0  0  2  0  0  0  0  0  0  0  0  0
    1.7611  -10.6619   14.9111 N   0  0  0  0  0  0  0  0  0  0  0  0
    3.3633   -9.0900   16.0083 C   0  0  0  0  0  0  0  0  0  0  0  0
    3.4597   -7.7830   16.8897 C   0  0  2  0  0  0  0  0  0  0  0  0
    4.8873   -7.4418   17.1336 N   0  0  0  0  0  0  0  0  0  0  0  0
    2.6807   -8.0036   18.2471 C   0  0  2  0  0  0  0  0  0  0  0  0
    1.1773   -8.3727   17.9300 C   0  0  2  0  0  0  0  0  0  0  0  0
    0.4756   -8.5781   19.1602 O   0  0  0  0  0  0  0  0  0  0  0  0
    1.1035   -9.6874   17.0634 C   0  0  1  0  0  0  0  0  0  0  0  0
   -0.2816  -10.0181   16.7624 O   0  0  0  0  0  0  0  0  0  0  0  0
   -1.1968  -10.5201   17.7050 C   0  0  2  0  0  0  0  0  0  0  0  0
   -2.1994  -11.4474   16.9381 C   0  0  2  0  0  0  0  0  0  0  0  0
   -1.5008  -12.4886   16.3344 O   0  0  0  0  0  0  0  0  0  0  0  0
   -3.0277  -10.6329   15.8737 C   0  0  1  0  0  0  0  0  0  0  0  0
   -3.9945  -11.5119   15.1367 N   0  0  0  0  0  0  0  0  0  0  0  0
   -3.7885   -9.4677   16.6226 C   0  0  2  0  0  0  0  0  0  0  0  0
   -4.5664   -8.6950   15.7061 O   0  0  0  0  0  0  0  0  0  0  0  0
   -2.7339   -8.5792   17.3649 C   0  0  2  0  0  0  0  0  0  0  0  0
   -1.9217   -9.3986   18.3287 O   0  0  0  0  0  0  0  0  0  0  0  0
   -3.3857   -7.4634   18.1290 C   0  0  0  0  0  0  0  0  0  0  0  0
   -4.2864   -7.9709   19.1270 O   0  0  0  0  0  0  0  0  0  0  0  0
    2.0119   -4.2283   19.9012 O   0  0  0  0  0  0  0  0  0  0  0  0
    4.2011   -3.7794   21.7022 O   0  0  0  0  0  0  0  0  0  0  0  0
    3.4430  -14.1062   12.5613 N   0  0  0  0  0  0  0  0  0  0  0  0
    0.7109  -10.9799   14.0615 C   0  0  0  0  0  0  0  0  0  0  0  0
   -0.2819  -10.2768   13.9087 O   0  0  0  0  0  0  0  0  0  0  0  0
    0.9237  -12.3308   13.3401 C   0  0  1  0  0  0  0  0  0  0  0  0
    1.9416  -12.1631   12.1938 C   0  0  0  0  0  0  0  0  0  0  0  0
    2.5252  -13.4614   11.6244 C   0  0  0  0  0  0  0  0  0  0  0  0
    1.3817  -13.3117   14.2979 O   0  0  0  0  0  0  0  0  0  0  0  0
  1  2  1  6  0  0  0
  1  3  1  0  0  0  0
  1  8  1  0  0  0  0
  3  4  1  0  0  0  0
  3 32  1  6  0  0  0
  4  5  1  0  0  0  0
  4 33  1  1  0  0  0
  5  6  1  6  0  0  0
  5  7  1  0  0  0  0
  7  8  1  0  0  0  0
  7  9  1  1  0  0  0
  9 10  1  0  0  0  0
 11 12  1  6  0  0  0
 11 13  1  0  0  0  0
 11 19  1  0  0  0  0
 12 35  1  0  0  0  0
 13 14  1  0  0  0  0
 14 15  1  1  0  0  0
 14 16  1  0  0  0  0
 16  2  1  1  0  0  0
 16 17  1  0  0  0  0
 17 18  1  1  0  0  0
 17 19  1  0  0  0  0
 19 20  1  6  0  0  0
 21 20  1  6  0  0  0
 21 22  1  0  0  0  0
 21 29  1  0  0  0  0
 22 23  1  6  0  0  0
 22 24  1  0  0  0  0
 24 25  1  1  0  0  0
 24 26  1  0  0  0  0
 26 27  1  6  0  0  0
 26 28  1  0  0  0  0
 28 29  1  0  0  0  0
 28 30  1  1  0  0  0
 30 31  1  0  0  0  0
 34 39  1  0  0  0  0
 35 36  2  0  0  0  0
 37 35  1  1  0  0  0
 37 38  1  0  0  0  0
 37 40  1  0  0  0  0
 38 39  1  0  0  0  0
M  END
>  <CHROM.1>
179.43019535,178.29622750,-153.35439919,179.34399812,168.24127539,-149.00318648
60.37302953,-76.67384042,164.85790437,-70.91349934,1.02058039,-9.01758162
17.63764837,1.09662802,-0.03056652,0.88273477

>  <Name>
2g5q_lig

>  <RI>
0

>  <Rbt.Current_Directory>
/home/itssahil/PROJECTS/Mol_Feturizer/New_Systems/rnas/2g5q

>  <Rbt.Executable>
rbdock ($Id: //depot/dev/client3/rdock/2013.1/src/exe/rbdock.cxx#4 $)

>  <Rbt.Library>
libRbt.so (2013.1, Build901 2013/11/27)

>  <Rbt.Parameter_File>
/export/apps/rDock/src/rDock_2013.1_src/data/scripts/dock_solv.prm

>  <Rbt.Receptor>
prm/pocket_docking_3.prm

>  <SCORE>
-23.1417

>  <SCORE.INTER>
-16.6059

>  <SCORE.INTER.CONST>
1

>  <SCORE.INTER.POLAR>
-1.02435

>  <SCORE.INTER.ROT>
10

>  <SCORE.INTER.SOLV>
24.8882

>  <SCORE.INTER.VDW>
-26.2188

>  <SCORE.INTER.norm>
-0.415148

>  <SCORE.INTRA>
-6.85458

>  <SCORE.INTRA.DIHEDRAL>
-15.3251

>  <SCORE.INTRA.DIHEDRAL.0>
22.5778

>  <SCORE.INTRA.POLAR>
0

>  <SCORE.INTRA.POLAR.0>
0

>  <SCORE.INTRA.REPUL>
0

>  <SCORE.INTRA.REPUL.0>
0

>  <SCORE.INTRA.SOLV>
1.99272

>  <SCORE.INTRA.SOLV.lig_0>
-102.332

>  <SCORE.INTRA.VDW>
-0.18837

>  <SCORE.INTRA.VDW.0>
-5.08747

>  <SCORE.INTRA.norm>
-0.171364

>  <SCORE.RESTR>
0.318746

>  <SCORE.RESTR.CAVITY>
0.318746

>  <SCORE.RESTR.norm>
0.00796865

>  <SCORE.SYSTEM>
0

>  <SCORE.SYSTEM.CONST>
0

>  <SCORE.SYSTEM.DIHEDRAL>
0

>  <SCORE.SYSTEM.SOLV>
0

>  <SCORE.SYSTEM.norm>
0

>  <SCORE.heavy>
40

>  <SCORE.norm>
-0.578543

>  <RMSD>
5.563

$$$$
2g5q_lig
 OpenBabel11021811433D
libRbt.so/2013.1/901 2013/11/27
 40 42  0  0  0  0  0  0  0  0999 V2000
    1.8231   -6.2364   20.2506 C   0  0  2  0  0  0  0  0  0  0  0  0
    2.2691   -6.5175   18.9423 O   0  0  0  0  0  0  0  0  0  0  0  0
    2.3795   -4.8478   20.6832 C   0  0  1  0  0  0  0  0  0  0  0  0
    3.9321   -4.8644   20.8337 C   0  0  2  0  0  0  0  0  0  0  0  0
    4.2936   -5.9281   21.9027 C   0  0  2  0  0  0  0  0  0  0  0  0
    5.7182   -5.9577   22.0875 O   0  0  0  0  0  0  0  0  0  0  0  0
    3.7532   -7.3311   21.4091 C   0  0  2  0  0  0  0  0  0  0  0  0
    2.2759   -7.2706   21.2179 O   0  0  0  0  0  0  0  0  0  0  0  0
    4.0431   -8.4560   22.3971 C   0  0  0  0  0  0  0  0  0  0  0  0
    3.6795   -9.7984   21.8425 N   0  0  0  0  0  0  0  0  0  0  0  0
    0.6568   -9.1712   15.8706 C   0  0  2  0  0  0  0  0  0  0  0  0
    0.3004  -10.3819   15.1406 N   0  0  0  0  0  0  0  0  0  0  0  0
    2.2303   -9.0815   16.0494 C   0  0  0  0  0  0  0  0  0  0  0  0
    2.6213   -7.7676   16.8336 C   0  0  2  0  0  0  0  0  0  0  0  0
    4.0996   -7.6899   16.9847 N   0  0  0  0  0  0  0  0  0  0  0  0
    1.8978   -7.7569   18.2387 C   0  0  2  0  0  0  0  0  0  0  0  0
    0.3357   -7.8517   18.0202 C   0  0  2  0  0  0  0  0  0  0  0  0
   -0.3169   -7.8483   19.2938 O   0  0  0  0  0  0  0  0  0  0  0  0
   -0.0338   -9.1767   17.2502 C   0  0  1  0  0  0  0  0  0  0  0  0
   -1.4717   -9.2555   17.0394 O   0  0  0  0  0  0  0  0  0  0  0  0
   -2.4154   -9.3943   18.0731 C   0  0  2  0  0  0  0  0  0  0  0  0
   -2.8019  -10.9099   18.1554 C   0  0  2  0  0  0  0  0  0  0  0  0
   -1.6655  -11.6653   18.4280 O   0  0  0  0  0  0  0  0  0  0  0  0
   -3.4944  -11.3937   16.8254 C   0  0  1  0  0  0  0  0  0  0  0  0
   -3.8727  -12.8436   16.8962 N   0  0  0  0  0  0  0  0  0  0  0  0
   -4.7688  -10.4938   16.5735 C   0  0  2  0  0  0  0  0  0  0  0  0
   -5.4459  -10.8915   15.3796 O   0  0  0  0  0  0  0  0  0  0  0  0
   -4.3158   -8.9964   16.4997 C   0  0  2  0  0  0  0  0  0  0  0  0
   -3.6068   -8.5852   17.7599 O   0  0  0  0  0  0  0  0  0  0  0  0
   -5.4807   -8.0725   16.2922 C   0  0  0  0  0  0  0  0  0  0  0  0
   -6.3727   -8.0966   17.4185 O   0  0  0  0  0  0  0  0  0  0  0  0
    1.9554   -3.8508   19.6911 O   0  0  0  0  0  0  0  0  0  0  0  0
    4.3674   -3.6188   21.2294 O   0  0  0  0  0  0  0  0  0  0  0  0
    2.4563  -13.1990   11.6430 N   0  0  0  0  0  0  0  0  0  0  0  0
    0.7503  -10.7128   13.8701 C   0  0  0  0  0  0  0  0  0  0  0  0
    1.5037  -10.0087   13.2068 O   0  0  0  0  0  0  0  0  0  0  0  0
    0.1813  -12.0626   13.3754 C   0  0  1  0  0  0  0  0  0  0  0  0
    1.1417  -13.2098   13.7493 C   0  0  0  0  0  0  0  0  0  0  0  0
    2.5304  -13.1553   13.1019 C   0  0  0  0  0  0  0  0  0  0  0  0
   -1.1233  -12.2696   13.9622 O   0  0  0  0  0  0  0  0  0  0  0  0
  1  2  1  6  0  0  0
  1  3  1  0  0  0  0
  1  8  1  0  0  0  0
  3  4  1  0  0  0  0
  3 32  1  6  0  0  0
  4  5  1  0  0  0  0
  4 33  1  1  0  0  0
  5  6  1  6  0  0  0
  5  7  1  0  0  0  0
  7  8  1  0  0  0  0
  7  9  1  1  0  0  0
  9 10  1  0  0  0  0
 11 12  1  1  0  0  0
 11 13  1  0  0  0  0
 11 19  1  0  0  0  0
 12 35  1  0  0  0  0
 13 14  1  0  0  0  0
 14 15  1  1  0  0  0
 14 16  1  0  0  0  0
 16  2  1  6  0  0  0
 16 17  1  0  0  0  0
 17 18  1  1  0  0  0
 17 19  1  0  0  0  0
 19 20  1  6  0  0  0
 21 20  1  6  0  0  0
 21 22  1  0  0  0  0
 21 29  1  0  0  0  0
 22 23  1  6  0  0  0
 22 24  1  0  0  0  0
 24 25  1  1  0  0  0
 24 26  1  0  0  0  0
 26 27  1  6  0  0  0
 26 28  1  0  0  0  0
 28 29  1  0  0  0  0
 28 30  1  1  0  0  0
 30 31  1  0  0  0  0
 34 39  1  0  0  0  0
 35 36  2  0  0  0  0
 37 35  1  1  0  0  0
 37 38  1  0  0  0  0
 37 40  1  0  0  0  0
 38 39  1  0  0  0  0
M  END
>  <CHROM.1>
-179.25361889,-172.90620704,-58.13307602,-177.49738585,174.44901921,-98.75889170
64.90272120,-91.75187538,-63.41749638,-60.24258187,0.32896913,-8.88885160
17.63124135,0.90653328,0.04624405,0.87443293

>  <Name>
2g5q_lig

>  <RI>
0

>  <Rbt.Current_Directory>
/home/itssahil/PROJECTS/Mol_Feturizer/New_Systems/rnas/2g5q

>  <Rbt.Executable>
rbdock ($Id: //depot/dev/client3/rdock/2013.1/src/exe/rbdock.cxx#4 $)

>  <Rbt.Library>
libRbt.so (2013.1, Build901 2013/11/27)

>  <Rbt.Parameter_File>
/export/apps/rDock/src/rDock_2013.1_src/data/scripts/dock_solv.prm

>  <Rbt.Receptor>
prm/pocket_docking_3.prm

>  <SCORE>
-19.2151

>  <SCORE.INTER>
-12.9043

>  <SCORE.INTER.CONST>
1

>  <SCORE.INTER.POLAR>
-0.671687

>  <SCORE.INTER.ROT>
10

>  <SCORE.INTER.SOLV>
23.3104

>  <SCORE.INTER.VDW>
-24.4007

>  <SCORE.INTER.norm>
-0.322607

>  <SCORE.INTRA>
-6.3117

>  <SCORE.INTRA.DIHEDRAL>
-15.1872

>  <SCORE.INTRA.DIHEDRAL.0>
22.5778

>  <SCORE.INTRA.POLAR>
0

>  <SCORE.INTRA.POLAR.0>
0

>  <SCORE.INTRA.REPUL>
0

>  <SCORE.INTRA.REPUL.0>
0

>  <SCORE.INTRA.SOLV>
0.644015

>  <SCORE.INTRA.SOLV.lig_0>
-102.332

>  <SCORE.INTRA.VDW>
0.959903

>  <SCORE.INTRA.VDW.0>
-5.08747

>  <SCORE.INTRA.norm>
-0.157792

>  <SCORE.RESTR>
0.000896795

>  <SCORE.RESTR.CAVITY>
0.000896795

>  <SCORE.RESTR.norm>
2.24199e-05

>  <SCORE.SYSTEM>
0

>  <SCORE.SYSTEM.CONST>
0

>  <SCORE.SYSTEM.DIHEDRAL>
0

>  <SCORE.SYSTEM.SOLV>
0

>  <SCORE.SYSTEM.norm>
0

>  <SCORE.heavy>
40

>  <SCORE.norm>
-0.480377

>  <RMSD>
5.571

$$$$
2g5q_lig
 OpenBabel11021811433D
libRbt.so/2013.1/901 2013/11/27
 40 42  0  0  0  0  0  0  0  0999 V2000
    2.1282   -7.0266   20.4536 C   0  0  2  0  0  0  0  0  0  0  0  0
    2.5938   -6.9701   19.1234 O   0  0  0  0  0  0  0  0  0  0  0  0
    2.4015   -5.6557   21.1398 C   0  0  1  0  0  0  0  0  0  0  0  0
    3.9283   -5.3843   21.3097 C   0  0  2  0  0  0  0  0  0  0  0  0
    4.5200   -6.5281   22.1737 C   0  0  2  0  0  0  0  0  0  0  0  0
    5.9247   -6.3014   22.3729 O   0  0  0  0  0  0  0  0  0  0  0  0
    4.2640   -7.8986   21.4251 C   0  0  2  0  0  0  0  0  0  0  0  0
    2.8011   -8.1051   21.2243 O   0  0  0  0  0  0  0  0  0  0  0  0
    4.7962   -9.1012   22.1972 C   0  0  0  0  0  0  0  0  0  0  0  0
    4.9083  -10.3187   21.3331 N   0  0  0  0  0  0  0  0  0  0  0  0
    1.6990   -9.4049   15.6093 C   0  0  2  0  0  0  0  0  0  0  0  0
    1.6485  -10.5346   14.6890 N   0  0  0  0  0  0  0  0  0  0  0  0
    3.2045   -8.9862   15.8818 C   0  0  0  0  0  0  0  0  0  0  0  0
    3.2636   -7.7579   16.8730 C   0  0  2  0  0  0  0  0  0  0  0  0
    4.6797   -7.3682   17.1114 N   0  0  0  0  0  0  0  0  0  0  0  0
    2.5351   -8.1349   18.2240 C   0  0  2  0  0  0  0  0  0  0  0  0
    1.0427   -8.5497   17.9121 C   0  0  2  0  0  0  0  0  0  0  0  0
    0.3870   -8.8967   19.1359 O   0  0  0  0  0  0  0  0  0  0  0  0
    1.0069   -9.7858   16.9344 C   0  0  1  0  0  0  0  0  0  0  0  0
   -0.3688  -10.1580   16.6391 O   0  0  0  0  0  0  0  0  0  0  0  0
   -1.2694  -10.6727   17.5890 C   0  0  2  0  0  0  0  0  0  0  0  0
   -2.4898  -11.2649   16.8060 C   0  0  2  0  0  0  0  0  0  0  0  0
   -2.0504  -12.2736   15.9541 O   0  0  0  0  0  0  0  0  0  0  0  0
   -3.2508  -10.1421   16.0042 C   0  0  1  0  0  0  0  0  0  0  0  0
   -4.4246  -10.6989   15.2543 N   0  0  0  0  0  0  0  0  0  0  0  0
   -3.7153   -9.0303   17.0267 C   0  0  2  0  0  0  0  0  0  0  0  0
   -4.4209   -7.9839   16.3564 O   0  0  0  0  0  0  0  0  0  0  0  0
   -2.4532   -8.4794   17.7727 C   0  0  2  0  0  0  0  0  0  0  0  0
   -1.7182   -9.5855   18.4771 O   0  0  0  0  0  0  0  0  0  0  0  0
   -2.8186   -7.4359   18.7882 C   0  0  0  0  0  0  0  0  0  0  0  0
   -1.6597   -6.9724   19.5001 O   0  0  0  0  0  0  0  0  0  0  0  0
    1.7637   -4.6027   20.3383 O   0  0  0  0  0  0  0  0  0  0  0  0
    4.1111   -4.1689   21.9317 O   0  0  0  0  0  0  0  0  0  0  0  0
    1.5865  -14.5446   14.3661 N   0  0  0  0  0  0  0  0  0  0  0  0
    2.0276  -10.4978   13.3544 C   0  0  0  0  0  0  0  0  0  0  0  0
    2.4468   -9.4932   12.7901 O   0  0  0  0  0  0  0  0  0  0  0  0
    1.8461  -11.8630   12.6516 C   0  0  1  0  0  0  0  0  0  0  0  0
    2.9244  -12.8538   13.1350 C   0  0  0  0  0  0  0  0  0  0  0  0
    2.6447  -13.5426   14.4758 C   0  0  0  0  0  0  0  0  0  0  0  0
    0.5202  -12.3663   12.9306 O   0  0  0  0  0  0  0  0  0  0  0  0
  1  2  1  6  0  0  0
  1  3  1  0  0  0  0
  1  8  1  0  0  0  0
  3  4  1  0  0  0  0
  3 32  1  6  0  0  0
  4  5  1  0  0  0  0
  4 33  1  1  0  0  0
  5  6  1  6  0  0  0
  5  7  1  0  0  0  0
  7  8  1  0  0  0  0
  7  9  1  1  0  0  0
  9 10  1  0  0  0  0
 11 12  1  6  0  0  0
 11 13  1  0  0  0  0
 11 19  1  0  0  0  0
 12 35  1  0  0  0  0
 13 14  1  0  0  0  0
 14 15  1  1  0  0  0
 14 16  1  0  0  0  0
 16  2  1  1  0  0  0
 16 17  1  0  0  0  0
 17 18  1  1  0  0  0
 17 19  1  0  0  0  0
 19 20  1  6  0  0  0
 21 20  1  6  0  0  0
 21 22  1  0  0  0  0
 21 29  1  0  0  0  0
 22 23  1  6  0  0  0
 22 24  1  0  0  0  0
 24 25  1  1  0  0  0
 24 26  1  0  0  0  0
 26 27  1  6  0  0  0
 26 28  1  0  0  0  0
 28 29  1  0  0  0  0
 28 30  1  1  0  0  0
 30 31  1  0  0  0  0
 34 39  1  0  0  0  0
 35 36  2  0  0  0  0
 37 35  1  1  0  0  0
 37 38  1  0  0  0  0
 37 40  1  0  0  0  0
 38 39  1  0  0  0  0
M  END
>  <CHROM.1>
177.21237621,-163.60719428,-66.90075630,-174.56670012,174.33567949,-166.13355995
177.91219494,-72.69495685,81.25542635,72.40605078,1.15978353,-9.00715765
17.70875153,1.08526580,-0.06813501,0.89757630

>  <Name>
2g5q_lig

>  <RI>
0

>  <Rbt.Current_Directory>
/home/itssahil/PROJECTS/Mol_Feturizer/New_Systems/rnas/2g5q

>  <Rbt.Executable>
rbdock ($Id: //depot/dev/client3/rdock/2013.1/src/exe/rbdock.cxx#4 $)

>  <Rbt.Library>
libRbt.so (2013.1, Build901 2013/11/27)

>  <Rbt.Parameter_File>
/export/apps/rDock/src/rDock_2013.1_src/data/scripts/dock_solv.prm

>  <Rbt.Receptor>
prm/pocket_docking_2.prm

>  <SCORE>
-13.1514

>  <SCORE.INTER>
-10.4023

>  <SCORE.INTER.CONST>
1

>  <SCORE.INTER.POLAR>
-0.857782

>  <SCORE.INTER.ROT>
10

>  <SCORE.INTER.SOLV>
22.1644

>  <SCORE.INTER.VDW>
-21.7304

>  <SCORE.INTER.norm>
-0.260056

>  <SCORE.INTRA>
-5.09108

>  <SCORE.INTRA.DIHEDRAL>
-17.3796

>  <SCORE.INTRA.DIHEDRAL.0>
22.5778

>  <SCORE.INTRA.POLAR>
0

>  <SCORE.INTRA.POLAR.0>
0

>  <SCORE.INTRA.REPUL>
0.129645

>  <SCORE.INTRA.REPUL.0>
0

>  <SCORE.INTRA.SOLV>
1.5616

>  <SCORE.INTRA.SOLV.lig_0>
-102.332

>  <SCORE.INTRA.VDW>
2.16969

>  <SCORE.INTRA.VDW.0>
-5.08747

>  <SCORE.INTRA.norm>
-0.127277

>  <SCORE.RESTR>
2.34197

>  <SCORE.RESTR.CAVITY>
2.34197

>  <SCORE.RESTR.norm>
0.0585491

>  <SCORE.SYSTEM>
0

>  <SCORE.SYSTEM.CONST>
0

>  <SCORE.SYSTEM.DIHEDRAL>
0

>  <SCORE.SYSTEM.SOLV>
0

>  <SCORE.SYSTEM.norm>
0

>  <SCORE.heavy>
40

>  <SCORE.norm>
-0.328784

>  <RMSD>
5.607

$$$$
2g5q_lig
 OpenBabel11021811433D
libRbt.so/2013.1/901 2013/11/27
 40 42  0  0  0  0  0  0  0  0999 V2000
    2.1115   -6.8167   20.7053 C   0  0  2  0  0  0  0  0  0  0  0  0
    2.5885   -6.9044   19.3808 O   0  0  0  0  0  0  0  0  0  0  0  0
    2.2594   -5.3463   21.1959 C   0  0  1  0  0  0  0  0  0  0  0  0
    3.7556   -4.9251   21.3291 C   0  0  2  0  0  0  0  0  0  0  0  0
    4.4298   -5.8846   22.3438 C   0  0  2  0  0  0  0  0  0  0  0  0
    5.8077   -5.5139   22.5120 O   0  0  0  0  0  0  0  0  0  0  0  0
    4.2999   -7.3618   21.7914 C   0  0  2  0  0  0  0  0  0  0  0  0
    2.8624   -7.7177   21.6188 O   0  0  0  0  0  0  0  0  0  0  0  0
    4.9210   -8.3970   22.7232 C   0  0  0  0  0  0  0  0  0  0  0  0
    5.5067   -9.5510   21.9701 N   0  0  0  0  0  0  0  0  0  0  0  0
    0.9671   -9.2455   16.0690 C   0  0  2  0  0  0  0  0  0  0  0  0
    0.6769  -10.3660   15.1825 N   0  0  0  0  0  0  0  0  0  0  0  0
    2.5290   -8.9729   16.1154 C   0  0  0  0  0  0  0  0  0  0  0  0
    2.8473   -7.7550   17.0693 C   0  0  2  0  0  0  0  0  0  0  0  0
    4.3135   -7.5028   17.0953 N   0  0  0  0  0  0  0  0  0  0  0  0
    2.2899   -8.0591   18.5167 C   0  0  2  0  0  0  0  0  0  0  0  0
    0.7354   -8.3290   18.4294 C   0  0  2  0  0  0  0  0  0  0  0  0
    0.2342   -8.6103   19.7400 O   0  0  0  0  0  0  0  0  0  0  0  0
    0.4413   -9.5569   17.4856 C   0  0  1  0  0  0  0  0  0  0  0  0
   -0.9917   -9.7956   17.3972 O   0  0  0  0  0  0  0  0  0  0  0  0
   -1.9077   -8.8997   16.8173 C   0  0  2  0  0  0  0  0  0  0  0  0
   -2.7736   -8.2982   17.9756 C   0  0  2  0  0  0  0  0  0  0  0  0
   -1.9471   -7.6349   18.8775 O   0  0  0  0  0  0  0  0  0  0  0  0
   -3.6130   -9.4182   18.6992 C   0  0  1  0  0  0  0  0  0  0  0  0
   -4.4495   -8.8510   19.8078 N   0  0  0  0  0  0  0  0  0  0  0  0
   -4.5212  -10.1324   17.6210 C   0  0  2  0  0  0  0  0  0  0  0  0
   -5.3150  -11.1577   18.2216 O   0  0  0  0  0  0  0  0  0  0  0  0
   -3.5986  -10.7116   16.4959 C   0  0  2  0  0  0  0  0  0  0  0  0
   -2.7689   -9.6268   15.8677 O   0  0  0  0  0  0  0  0  0  0  0  0
   -4.3946  -11.3816   15.4138 C   0  0  0  0  0  0  0  0  0  0  0  0
   -5.3591  -12.2936   15.9642 O   0  0  0  0  0  0  0  0  0  0  0  0
    1.5460   -4.4717   20.2555 O   0  0  0  0  0  0  0  0  0  0  0  0
    3.8272   -3.6246   21.7774 O   0  0  0  0  0  0  0  0  0  0  0  0
    0.8763  -14.2533   15.1751 N   0  0  0  0  0  0  0  0  0  0  0  0
    1.0434  -10.4458   13.8463 C   0  0  0  0  0  0  0  0  0  0  0  0
    1.6554   -9.5655   13.2514 O   0  0  0  0  0  0  0  0  0  0  0  0
    0.5785  -11.7635   13.1845 C   0  0  1  0  0  0  0  0  0  0  0  0
    1.6825  -12.8335   13.3046 C   0  0  0  0  0  0  0  0  0  0  0  0
    1.9443  -13.3665   14.7180 C   0  0  0  0  0  0  0  0  0  0  0  0
   -0.6417  -12.2072   13.8197 O   0  0  0  0  0  0  0  0  0  0  0  0
  1  2  1  6  0  0  0
  1  3  1  0  0  0  0
  1  8  1  0  0  0  0
  3  4  1  0  0  0  0
  3 32  1  6  0  0  0
  4  5  1  0  0  0  0
  4 33  1  1  0  0  0
  5  6  1  6  0  0  0
  5  7  1  0  0  0  0
  7  8  1  0  0  0  0
  7  9  1  1  0  0  0
  9 10  1  0  0  0  0
 11 12  1  6  0  0  0
 11 13  1  0  0  0  0
 11 19  1  0  0  0  0
 12 35  1  0  0  0  0
 13 14  1  0  0  0  0
 14 15  1  1  0  0  0
 14 16  1  0  0  0  0
 16  2  1  1  0  0  0
 16 17  1  0  0  0  0
 17 18  1  1  0  0  0
 17 19  1  0  0  0  0
 19 20  1  6  0  0  0
 21 20  1  1  0  0  0
 21 22  1  0  0  0  0
 21 29  1  0  0  0  0
 22 23  1  1  0  0  0
 22 24  1  0  0  0  0
 24 25  1  1  0  0  0
 24 26  1  0  0  0  0
 26 27  1  1  0  0  0
 26 28  1  0  0  0  0
 28 29  1  0  0  0  0
 28 30  1  6  0  0  0
 30 31  1  0  0  0  0
 34 39  1  0  0  0  0
 35 36  2  0  0  0  0
 37 35  1  1  0  0  0
 37 38  1  0  0  0  0
 37 40  1  0  0  0  0
 38 39  1  0  0  0  0
M  END
>  <CHROM.1>
-164.58683255,-147.11356310,-56.61758516,174.12386209,-54.06922353,-109.85373638
-48.76886847,-91.52855033,69.31159502,73.22930306,0.58979513,-8.92724926
18.01150479,0.90492534,0.08829591,0.92518537

>  <Name>
2g5q_lig

>  <RI>
0

>  <Rbt.Current_Directory>
/home/itssahil/PROJECTS/Mol_Feturizer/New_Systems/rnas/2g5q

>  <Rbt.Executable>
rbdock ($Id: //depot/dev/client3/rdock/2013.1/src/exe/rbdock.cxx#4 $)

>  <Rbt.Library>
libRbt.so (2013.1, Build901 2013/11/27)

>  <Rbt.Parameter_File>
/export/apps/rDock/src/rDock_2013.1_src/data/scripts/dock_solv.prm

>  <Rbt.Receptor>
prm/pocket_docking_2.prm

>  <SCORE>
-5.27958

>  <SCORE.INTER>
-6.31892

>  <SCORE.INTER.CONST>
1

>  <SCORE.INTER.POLAR>
-0.542595

>  <SCORE.INTER.ROT>
10

>  <SCORE.INTER.SOLV>
21

>  <SCORE.INTER.VDW>
-19.6706

>  <SCORE.INTER.norm>
-0.157973

>  <SCORE.INTRA>
-0.891474

>  <SCORE.INTRA.DIHEDRAL>
-8.30036

>  <SCORE.INTRA.DIHEDRAL.0>
22.5778

>  <SCORE.INTRA.POLAR>
0

>  <SCORE.INTRA.POLAR.0>
0

>  <SCORE.INTRA.REPUL>
0

>  <SCORE.INTRA.REPUL.0>
0

>  <SCORE.INTRA.SOLV>
1.81979

>  <SCORE.INTRA.SOLV.lig_0>
-102.332

>  <SCORE.INTRA.VDW>
2.34881

>  <SCORE.INTRA.VDW.0>
-5.08747

>  <SCORE.INTRA.norm>
-0.0222868

>  <SCORE.RESTR>
1.93082

>  <SCORE.RESTR.CAVITY>
1.93082

>  <SCORE.RESTR.norm>
0.0482704

>  <SCORE.SYSTEM>
0

>  <SCORE.SYSTEM.CONST>
0

>  <SCORE.SYSTEM.DIHEDRAL>
0

>  <SCORE.SYSTEM.SOLV>
0

>  <SCORE.SYSTEM.norm>
0

>  <SCORE.heavy>
40

>  <SCORE.norm>
-0.131989

>  <RMSD>
5.630

$$$$
2g5q_lig
 OpenBabel11021811433D
libRbt.so/2013.1/901 2013/11/27
 40 42  0  0  0  0  0  0  0  0999 V2000
    3.4306   -8.1171   17.0506 C   0  0  2  0  0  0  0  0  0  0  0  0
    2.8188   -9.3557   16.7658 O   0  0  0  0  0  0  0  0  0  0  0  0
    4.6518   -7.9307   16.1026 C   0  0  1  0  0  0  0  0  0  0  0  0
    5.7833   -8.9622   16.4016 C   0  0  2  0  0  0  0  0  0  0  0  0
    6.2294   -8.7633   17.8734 C   0  0  2  0  0  0  0  0  0  0  0  0
    7.2898   -9.6825   18.1816 O   0  0  0  0  0  0  0  0  0  0  0  0
    4.9759   -9.0044   18.8086 C   0  0  2  0  0  0  0  0  0  0  0  0
    3.8889   -8.0443   18.4629 O   0  0  0  0  0  0  0  0  0  0  0  0
    5.2988   -8.8200   20.2876 C   0  0  0  0  0  0  0  0  0  0  0  0
    5.4213   -7.3750   20.6599 N   0  0  0  0  0  0  0  0  0  0  0  0
   -1.0013  -11.0451   18.0425 C   0  0  2  0  0  0  0  0  0  0  0  0
   -2.0362  -11.6434   18.8772 N   0  0  0  0  0  0  0  0  0  0  0  0
    0.2666  -11.9957   17.9747 C   0  0  0  0  0  0  0  0  0  0  0  0
    1.3876  -11.3545   17.0654 C   0  0  2  0  0  0  0  0  0  0  0  0
    2.5661  -12.2605   17.0011 N   0  0  0  0  0  0  0  0  0  0  0  0
    1.7831   -9.9354   17.6378 C   0  0  2  0  0  0  0  0  0  0  0  0
    0.4963   -9.0201   17.6942 C   0  0  2  0  0  0  0  0  0  0  0  0
    0.8557   -7.7379   18.2187 O   0  0  0  0  0  0  0  0  0  0  0  0
   -0.6027   -9.6705   18.6184 C   0  0  1  0  0  0  0  0  0  0  0  0
   -1.7913   -8.8315   18.6587 O   0  0  0  0  0  0  0  0  0  0  0  0
   -2.3697   -8.2259   17.5288 C   0  0  2  0  0  0  0  0  0  0  0  0
   -3.6801   -7.5086   17.9996 C   0  0  2  0  0  0  0  0  0  0  0  0
   -3.3667   -6.5510   18.9594 O   0  0  0  0  0  0  0  0  0  0  0  0
   -4.7268   -8.5452   18.5587 C   0  0  1  0  0  0  0  0  0  0  0  0
   -5.9877   -7.8681   19.0082 N   0  0  0  0  0  0  0  0  0  0  0  0
   -5.0323   -9.6027   17.4248 C   0  0  2  0  0  0  0  0  0  0  0  0
   -5.9851  -10.5691   17.8724 O   0  0  0  0  0  0  0  0  0  0  0  0
   -3.6868  -10.2831   17.0012 C   0  0  2  0  0  0  0  0  0  0  0  0
   -2.6910   -9.2605   16.5296 O   0  0  0  0  0  0  0  0  0  0  0  0
   -3.8916  -11.2832   15.9005 C   0  0  0  0  0  0  0  0  0  0  0  0
   -4.4482  -12.5080   16.4053 O   0  0  0  0  0  0  0  0  0  0  0  0
    4.1822   -8.0487   14.7156 O   0  0  0  0  0  0  0  0  0  0  0  0
    6.8403   -8.7436   15.5458 O   0  0  0  0  0  0  0  0  0  0  0  0
   -5.8127  -12.0148   22.5753 N   0  0  0  0  0  0  0  0  0  0  0  0
   -1.9528  -11.8228   20.2509 C   0  0  0  0  0  0  0  0  0  0  0  0
   -0.9809  -11.4996   20.9249 O   0  0  0  0  0  0  0  0  0  0  0  0
   -3.2173  -12.4927   20.8364 C   0  0  1  0  0  0  0  0  0  0  0  0
   -4.4610  -11.6348   20.5276 C   0  0  0  0  0  0  0  0  0  0  0  0
   -5.7826  -12.1382   21.1194 C   0  0  0  0  0  0  0  0  0  0  0  0
   -3.3526  -13.8185   20.2767 O   0  0  0  0  0  0  0  0  0  0  0  0
  1  2  1  1  0  0  0
  1  3  1  0  0  0  0
  1  8  1  0  0  0  0
  3  4  1  0  0  0  0
  3 32  1  6  0  0  0
  4  5  1  0  0  0  0
  4 33  1  6  0  0  0
  5  6  1  1  0  0  0
  5  7  1  0  0  0  0
  7  8  1  0  0  0  0
  7  9  1  1  0  0  0
  9 10  1  0  0  0  0
 11 12  1  1  0  0  0
 11 13  1  0  0  0  0
 11 19  1  0  0  0  0
 12 35  1  0  0  0  0
 13 14  1  0  0  0  0
 14 15  1  1  0  0  0
 14 16  1  0  0  0  0
 16  2  1  6  0  0  0
 16 17  1  0  0  0  0
 17 18  1  1  0  0  0
 17 19  1  0  0  0  0
 19 20  1  6  0  0  0
 21 20  1  1  0  0  0
 21 22  1  0  0  0  0
 21 29  1  0  0  0  0
 22 23  1  1  0  0  0
 22 24  1  0  0  0  0
 24 25  1  6  0  0  0
 24 26  1  0  0  0  0
 26 27  1  1  0  0  0
 26 28  1  0  0  0  0
 28 29  1  0  0  0  0
 28 30  1  6  0  0  0
 30 31  1  0  0  0  0
 34 39  1  0  0  0  0
 35 36  2  0  0  0  0
 37 35  1  6  0  0  0
 37 38  1  0  0  0  0
 37 40  1  0  0  0  0
 38 39  1  0  0  0  0
M  END
>  <CHROM.1>
169.19636622,75.77441878,68.34660176,-176.70280904,-75.38259364,175.83741629
-77.18033194,-58.83326999,-176.63460252,69.01179904,-0.20382589,-9.84303192
18.24430279,0.25982135,-0.01531467,-0.75171488

>  <Name>
2g5q_lig

>  <RI>
2.47104e+07

>  <Rbt.Current_Directory>
/home/itssahil/PROJECTS/Mol_Feturizer/New_Systems/rnas/2g5q

>  <Rbt.Executable>
rbdock ($Id: //depot/dev/client3/rdock/2013.1/src/exe/rbdock.cxx#4 $)

>  <Rbt.Library>
libRbt.so (2013.1, Build901 2013/11/27)

>  <Rbt.Parameter_File>
/export/apps/rDock/src/rDock_2013.1_src/data/scripts/dock_solv.prm

>  <Rbt.Receptor>
prm/pocket_docking_7.prm

>  <SCORE>
-10.1647

>  <SCORE.INTER>
-2.07967

>  <SCORE.INTER.CONST>
1

>  <SCORE.INTER.POLAR>
-0.845937

>  <SCORE.INTER.ROT>
10

>  <SCORE.INTER.SOLV>
13.0006

>  <SCORE.INTER.VDW>
-13.1669

>  <SCORE.INTER.norm>
-0.0519917

>  <SCORE.INTRA>
-8.08503

>  <SCORE.INTRA.DIHEDRAL>
-17.719

>  <SCORE.INTRA.DIHEDRAL.0>
22.5778

>  <SCORE.INTRA.POLAR>
0

>  <SCORE.INTRA.POLAR.0>
0

>  <SCORE.INTRA.REPUL>
0

>  <SCORE.INTRA.REPUL.0>
0

>  <SCORE.INTRA.SOLV>
2.51723

>  <SCORE.INTRA.SOLV.lig_0>
-102.332

>  <SCORE.INTRA.VDW>
-0.484162

>  <SCORE.INTRA.VDW.0>
-5.08747

>  <SCORE.INTRA.norm>
-0.202126

>  <SCORE.RESTR>
0

>  <SCORE.RESTR.CAVITY>
0

>  <SCORE.RESTR.norm>
0

>  <SCORE.SYSTEM>
0

>  <SCORE.SYSTEM.CONST>
0

>  <SCORE.SYSTEM.DIHEDRAL>
0

>  <SCORE.SYSTEM.SOLV>
0

>  <SCORE.SYSTEM.norm>
0

>  <SCORE.heavy>
40

>  <SCORE.norm>
-0.254118

>  <RMSD>
5.777

$$$$
2g5q_lig
 OpenBabel11021811433D
libRbt.so/2013.1/901 2013/11/27
 40 42  0  0  0  0  0  0  0  0999 V2000
    2.2274   -6.6169   20.4100 C   0  0  2  0  0  0  0  0  0  0  0  0
    2.8495   -6.7578   19.1520 O   0  0  0  0  0  0  0  0  0  0  0  0
    2.5592   -5.2059   20.9790 C   0  0  1  0  0  0  0  0  0  0  0  0
    4.0753   -5.0555   21.3142 C   0  0  2  0  0  0  0  0  0  0  0  0
    4.4392   -6.1399   22.3615 C   0  0  2  0  0  0  0  0  0  0  0  0
    5.8267   -6.0193   22.7146 O   0  0  0  0  0  0  0  0  0  0  0  0
    4.1318   -7.5593   21.7332 C   0  0  2  0  0  0  0  0  0  0  0  0
    2.6892   -7.6548   21.3689 O   0  0  0  0  0  0  0  0  0  0  0  0
    4.4416   -8.7071   22.6883 C   0  0  0  0  0  0  0  0  0  0  0  0
    4.0865  -10.0379   22.1013 N   0  0  0  0  0  0  0  0  0  0  0  0
    1.5494   -9.2509   15.8096 C   0  0  2  0  0  0  0  0  0  0  0  0
    1.3569  -10.4076   14.9432 N   0  0  0  0  0  0  0  0  0  0  0  0
    3.0957   -8.9341   15.9664 C   0  0  0  0  0  0  0  0  0  0  0  0
    3.3085   -7.6770   16.8986 C   0  0  2  0  0  0  0  0  0  0  0  0
    4.7614   -7.3838   17.0284 N   0  0  0  0  0  0  0  0  0  0  0  0
    2.6478   -7.9482   18.3086 C   0  0  2  0  0  0  0  0  0  0  0  0
    1.1120   -8.2635   18.1115 C   0  0  2  0  0  0  0  0  0  0  0  0
    0.5174   -8.5149   19.3887 O   0  0  0  0  0  0  0  0  0  0  0  0
    0.9229   -9.5296   17.1916 C   0  0  1  0  0  0  0  0  0  0  0  0
   -0.4925   -9.8104   17.0017 O   0  0  0  0  0  0  0  0  0  0  0  0
   -1.3626  -10.2154   18.0298 C   0  0  2  0  0  0  0  0  0  0  0  0
   -2.3767  -11.2365   17.4116 C   0  0  2  0  0  0  0  0  0  0  0  0
   -1.6829  -12.3295   16.9012 O   0  0  0  0  0  0  0  0  0  0  0  0
   -3.2587  -10.5582   16.2961 C   0  0  1  0  0  0  0  0  0  0  0  0
   -4.2367  -11.5274   15.7008 N   0  0  0  0  0  0  0  0  0  0  0  0
   -4.0115   -9.3265   16.9393 C   0  0  2  0  0  0  0  0  0  0  0  0
   -4.8369   -8.6724   15.9733 O   0  0  0  0  0  0  0  0  0  0  0  0
   -2.9457   -8.3459   17.5353 C   0  0  2  0  0  0  0  0  0  0  0  0
   -2.0834   -9.0407   18.5520 O   0  0  0  0  0  0  0  0  0  0  0  0
   -3.5881   -7.1601   18.1947 C   0  0  0  0  0  0  0  0  0  0  0  0
   -2.6142   -6.3478   18.8704 O   0  0  0  0  0  0  0  0  0  0  0  0
    2.1330   -4.1999   19.9969 O   0  0  0  0  0  0  0  0  0  0  0  0
    4.3091   -3.7976   21.8245 O   0  0  0  0  0  0  0  0  0  0  0  0
    4.4406  -11.2111   12.8341 N   0  0  0  0  0  0  0  0  0  0  0  0
    1.7033  -10.4692   13.6007 C   0  0  0  0  0  0  0  0  0  0  0  0
    2.2109   -9.5401   12.9823 O   0  0  0  0  0  0  0  0  0  0  0  0
    1.3616  -11.8366   12.9651 C   0  0  1  0  0  0  0  0  0  0  0  0
    2.3722  -12.1676   11.8484 C   0  0  0  0  0  0  0  0  0  0  0  0
    3.8133  -12.4209   12.3061 C   0  0  0  0  0  0  0  0  0  0  0  0
    1.3764  -12.8529   13.9928 O   0  0  0  0  0  0  0  0  0  0  0  0
  1  2  1  6  0  0  0
  1  3  1  0  0  0  0
  1  8  1  0  0  0  0
  3  4  1  0  0  0  0
  3 32  1  6  0  0  0
  4  5  1  0  0  0  0
  4 33  1  1  0  0  0
  5  6  1  6  0  0  0
  5  7  1  0  0  0  0
  7  8  1  0  0  0  0
  7  9  1  1  0  0  0
  9 10  1  0  0  0  0
 11 12  1  6  0  0  0
 11 13  1  0  0  0  0
 11 19  1  0  0  0  0
 12 35  1  0  0  0  0
 13 14  1  0  0  0  0
 14 15  1  1  0  0  0
 14 16  1  0  0  0  0
 16  2  1  1  0  0  0
 16 17  1  0  0  0  0
 17 18  1  1  0  0  0
 17 19  1  0  0  0  0
 19 20  1  6  0  0  0
 21 20  1  6  0  0  0
 21 22  1  0  0  0  0
 21 29  1  0  0  0  0
 22 23  1  6  0  0  0
 22 24  1  0  0  0  0
 24 25  1  1  0  0  0
 24 26  1  0  0  0  0
 26 27  1  6  0  0  0
 26 28  1  0  0  0  0
 28 29  1  0  0  0  0
 28 30  1  1  0  0  0
 30 31  1  0  0  0  0
 34 39  1  0  0  0  0
 35 36  2  0  0  0  0
 37 35  1  1  0  0  0
 37 38  1  0  0  0  0
 37 40  1  0  0  0  0
 38 39  1  0  0  0  0
M  END
>  <CHROM.1>
-175.50545993,177.39043375,-63.79193069,171.62568997,174.63476341,-143.99908559
173.34317669,-148.80782514,66.77166592,-67.37673490,1.15897985,-8.74246371
17.73411779,1.09540552,0.05074847,0.97811278

>  <Name>
2g5q_lig

>  <RI>
9.52566e+06

>  <Rbt.Current_Directory>
/home/itssahil/PROJECTS/Mol_Feturizer/New_Systems/rnas/2g5q

>  <Rbt.Executable>
rbdock ($Id: //depot/dev/client3/rdock/2013.1/src/exe/rbdock.cxx#4 $)

>  <Rbt.Library>
libRbt.so (2013.1, Build901 2013/11/27)

>  <Rbt.Parameter_File>
/export/apps/rDock/src/rDock_2013.1_src/data/scripts/dock_solv.prm

>  <Rbt.Receptor>
prm/pocket_docking_4.prm

>  <SCORE>
-23.8701

>  <SCORE.INTER>
-19.425

>  <SCORE.INTER.CONST>
1

>  <SCORE.INTER.POLAR>
-1.66973

>  <SCORE.INTER.ROT>
10

>  <SCORE.INTER.SOLV>
21.8007

>  <SCORE.INTER.VDW>
-24.9178

>  <SCORE.INTER.norm>
-0.485624

>  <SCORE.INTRA>
-4.44513

>  <SCORE.INTRA.DIHEDRAL>
-15.0203

>  <SCORE.INTRA.DIHEDRAL.0>
22.5778

>  <SCORE.INTRA.POLAR>
0

>  <SCORE.INTRA.POLAR.0>
0

>  <SCORE.INTRA.REPUL>
0

>  <SCORE.INTRA.REPUL.0>
0

>  <SCORE.INTRA.SOLV>
2.77805

>  <SCORE.INTRA.SOLV.lig_0>
-102.332

>  <SCORE.INTRA.VDW>
1.67599

>  <SCORE.INTRA.VDW.0>
-5.08747

>  <SCORE.INTRA.norm>
-0.111128

>  <SCORE.RESTR>
0

>  <SCORE.RESTR.CAVITY>
0

>  <SCORE.RESTR.norm>
0

>  <SCORE.SYSTEM>
0

>  <SCORE.SYSTEM.CONST>
0

>  <SCORE.SYSTEM.DIHEDRAL>
0

>  <SCORE.SYSTEM.SOLV>
0

>  <SCORE.SYSTEM.norm>
0

>  <SCORE.heavy>
40

>  <SCORE.norm>
-0.596752

>  <RMSD>
5.792

$$$$
2g5q_lig
 OpenBabel11021811433D
libRbt.so/2013.1/901 2013/11/27
 40 42  0  0  0  0  0  0  0  0999 V2000
    2.2980   -8.0856   19.9148 C   0  0  2  0  0  0  0  0  0  0  0  0
    2.7622   -8.1278   18.5836 O   0  0  0  0  0  0  0  0  0  0  0  0
    2.7775   -6.7577   20.5717 C   0  0  1  0  0  0  0  0  0  0  0  0
    4.3283   -6.7164   20.7355 C   0  0  2  0  0  0  0  0  0  0  0  0
    4.7435   -7.9182   21.6233 C   0  0  2  0  0  0  0  0  0  0  0  0
    6.1671   -7.9020   21.8173 O   0  0  0  0  0  0  0  0  0  0  0  0
    4.2810   -9.2496   20.9040 C   0  0  2  0  0  0  0  0  0  0  0  0
    2.8031   -9.2370   20.7080 O   0  0  0  0  0  0  0  0  0  0  0  0
    4.6283  -10.5023   21.7012 C   0  0  0  0  0  0  0  0  0  0  0  0
    6.1051  -10.7424   21.7552 N   0  0  0  0  0  0  0  0  0  0  0  0
    1.3291  -10.4938   15.2033 C   0  0  2  0  0  0  0  0  0  0  0  0
    1.0969  -11.6186   14.3052 N   0  0  0  0  0  0  0  0  0  0  0  0
    2.8828  -10.1966   15.3200 C   0  0  0  0  0  0  0  0  0  0  0  0
    3.1385   -8.9740   16.2866 C   0  0  2  0  0  0  0  0  0  0  0  0
    4.5979   -8.6986   16.3786 N   0  0  0  0  0  0  0  0  0  0  0  0
    2.5212   -9.2870   17.7075 C   0  0  2  0  0  0  0  0  0  0  0  0
    0.9767   -9.5814   17.5503 C   0  0  2  0  0  0  0  0  0  0  0  0
    0.4212   -9.8707   18.8371 O   0  0  0  0  0  0  0  0  0  0  0  0
    0.7449  -10.8136   16.5949 C   0  0  1  0  0  0  0  0  0  0  0  0
   -0.6787  -11.0749   16.4421 O   0  0  0  0  0  0  0  0  0  0  0  0
   -1.5660  -11.2702   17.5158 C   0  0  2  0  0  0  0  0  0  0  0  0
   -2.8648  -11.9277   16.9379 C   0  0  2  0  0  0  0  0  0  0  0  0
   -2.5447  -13.1440   16.3425 O   0  0  0  0  0  0  0  0  0  0  0  0
   -3.5799  -10.9691   15.9120 C   0  0  1  0  0  0  0  0  0  0  0  0
   -4.8280  -11.5884   15.3562 N   0  0  0  0  0  0  0  0  0  0  0  0
   -3.9088   -9.6103   16.6487 C   0  0  2  0  0  0  0  0  0  0  0  0
   -4.5678   -8.6989   15.7671 O   0  0  0  0  0  0  0  0  0  0  0  0
   -2.5734   -9.0051   17.1994 C   0  0  2  0  0  0  0  0  0  0  0  0
   -1.8877   -9.9685   18.1276 O   0  0  0  0  0  0  0  0  0  0  0  0
   -2.8089   -7.7223   17.9427 C   0  0  0  0  0  0  0  0  0  0  0  0
   -3.5741   -7.9451   19.1385 O   0  0  0  0  0  0  0  0  0  0  0  0
    2.3031   -5.6374   19.7483 O   0  0  0  0  0  0  0  0  0  0  0  0
    4.6946   -5.5298   21.3316 O   0  0  0  0  0  0  0  0  0  0  0  0
    2.6798  -11.3367   12.0093 N   0  0  0  0  0  0  0  0  0  0  0  0
    1.6784  -12.8730   14.4257 C   0  0  0  0  0  0  0  0  0  0  0  0
    2.4706  -13.1771   15.3107 O   0  0  0  0  0  0  0  0  0  0  0  0
    1.2290  -13.8416   13.3076 C   0  0  1  0  0  0  0  0  0  0  0  0
    2.2124  -13.7726   12.1217 C   0  0  0  0  0  0  0  0  0  0  0  0
    2.1563  -12.4912   11.2820 C   0  0  0  0  0  0  0  0  0  0  0  0
    1.1592  -15.1825   13.8430 O   0  0  0  0  0  0  0  0  0  0  0  0
  1  2  1  6  0  0  0
  1  3  1  0  0  0  0
  1  8  1  0  0  0  0
  3  4  1  0  0  0  0
  3 32  1  6  0  0  0
  4  5  1  0  0  0  0
  4 33  1  1  0  0  0
  5  6  1  6  0  0  0
  5  7  1  0  0  0  0
  7  8  1  0  0  0  0
  7  9  1  1  0  0  0
  9 10  1  0  0  0  0
 11 12  1  6  0  0  0
 11 13  1  0  0  0  0
 11 19  1  0  0  0  0
 12 35  1  0  0  0  0
 13 14  1  0  0  0  0
 14 15  1  1  0  0  0
 14 16  1  0  0  0  0
 16  2  1  1  0  0  0
 16 17  1  0  0  0  0
 17 18  1  1  0  0  0
 17 19  1  0  0  0  0
 19 20  1  6  0  0  0
 21 20  1  6  0  0  0
 21 22  1  0  0  0  0
 21 29  1  0  0  0  0
 22 23  1  6  0  0  0
 22 24  1  0  0  0  0
 24 25  1  1  0  0  0
 24 26  1  0  0  0  0
 26 27  1  6  0  0  0
 26 28  1  0  0  0  0
 28 29  1  0  0  0  0
 28 30  1  1  0  0  0
 30 31  1  0  0  0  0
 34 39  1  0  0  0  0
 35 36  2  0  0  0  0
 37 35  1  1  0  0  0
 37 38  1  0  0  0  0
 37 40  1  0  0  0  0
 38 39  1  0  0  0  0
M  END
>  <CHROM.1>
177.43318803,-68.37691373,54.30578204,178.32590468,-173.36541541,-163.52027499
65.72102849,91.92816768,-71.66072253,70.25562154,1.08300259,-10.02178035
17.36490611,0.94717158,-0.09805474,0.90645247

>  <Name>
2g5q_lig

>  <RI>
2.90231e+07

>  <Rbt.Current_Directory>
/home/itssahil/PROJECTS/Mol_Feturizer/New_Systems/rnas/2g5q

>  <Rbt.Executable>
rbdock ($Id: //depot/dev/client3/rdock/2013.1/src/exe/rbdock.cxx#4 $)

>  <Rbt.Library>
libRbt.so (2013.1, Build901 2013/11/27)

>  <Rbt.Parameter_File>
/export/apps/rDock/src/rDock_2013.1_src/data/scripts/dock_solv.prm

>  <Rbt.Receptor>
prm/pocket_docking_6.prm

>  <SCORE>
-19.0468

>  <SCORE.INTER>
-14.041

>  <SCORE.INTER.CONST>
1

>  <SCORE.INTER.POLAR>
-1.1472

>  <SCORE.INTER.ROT>
10

>  <SCORE.INTER.SOLV>
18.6735

>  <SCORE.INTER.VDW>
-22.0278

>  <SCORE.INTER.norm>
-0.351025

>  <SCORE.INTRA>
-5.00579

>  <SCORE.INTRA.DIHEDRAL>
-18.0707

>  <SCORE.INTRA.DIHEDRAL.0>
22.5778

>  <SCORE.INTRA.POLAR>
0

>  <SCORE.INTRA.POLAR.0>
0

>  <SCORE.INTRA.REPUL>
0

>  <SCORE.INTRA.REPUL.0>
0

>  <SCORE.INTRA.SOLV>
4.70726

>  <SCORE.INTRA.SOLV.lig_0>
-102.332

>  <SCORE.INTRA.VDW>
1.67591

>  <SCORE.INTRA.VDW.0>
-5.08747

>  <SCORE.INTRA.norm>
-0.125145

>  <SCORE.RESTR>
0

>  <SCORE.RESTR.CAVITY>
0

>  <SCORE.RESTR.norm>
0

>  <SCORE.SYSTEM>
0

>  <SCORE.SYSTEM.CONST>
0

>  <SCORE.SYSTEM.DIHEDRAL>
0

>  <SCORE.SYSTEM.SOLV>
0

>  <SCORE.SYSTEM.norm>
0

>  <SCORE.heavy>
40

>  <SCORE.norm>
-0.47617

>  <RMSD>
5.802

$$$$
2g5q_lig
 OpenBabel11021811433D
libRbt.so/2013.1/901 2013/11/27
 40 42  0  0  0  0  0  0  0  0999 V2000
    2.4820   -7.2085   20.4558 C   0  0  2  0  0  0  0  0  0  0  0  0
    2.9717   -7.1555   19.1341 O   0  0  0  0  0  0  0  0  0  0  0  0
    3.2233   -6.1375   21.3092 C   0  0  1  0  0  0  0  0  0  0  0  0
    4.7372   -6.4739   21.4780 C   0  0  2  0  0  0  0  0  0  0  0  0
    4.8411   -7.8574   22.1709 C   0  0  2  0  0  0  0  0  0  0  0  0
    6.2243   -8.1937   22.3658 O   0  0  0  0  0  0  0  0  0  0  0  0
    4.1178   -8.9263   21.2554 C   0  0  2  0  0  0  0  0  0  0  0  0
    2.6881   -8.5498   21.0630 O   0  0  0  0  0  0  0  0  0  0  0  0
    4.1473  -10.3299   21.8509 C   0  0  0  0  0  0  0  0  0  0  0  0
    3.6020  -11.3535   20.9039 N   0  0  0  0  0  0  0  0  0  0  0  0
    1.7308   -9.3716   15.5808 C   0  0  2  0  0  0  0  0  0  0  0  0
    1.5632  -10.4519   14.6161 N   0  0  0  0  0  0  0  0  0  0  0  0
    3.2703   -9.0412   15.7726 C   0  0  0  0  0  0  0  0  0  0  0  0
    3.4560   -7.8664   16.8117 C   0  0  2  0  0  0  0  0  0  0  0  0
    4.9027   -7.5589   16.9741 N   0  0  0  0  0  0  0  0  0  0  0  0
    2.7955   -8.2714   18.1893 C   0  0  2  0  0  0  0  0  0  0  0  0
    1.2667   -8.5966   17.9575 C   0  0  2  0  0  0  0  0  0  0  0  0
    0.6723   -8.9692   19.2049 O   0  0  0  0  0  0  0  0  0  0  0  0
    1.1047   -9.7811   16.9300 C   0  0  1  0  0  0  0  0  0  0  0  0
   -0.3045  -10.0703   16.7090 O   0  0  0  0  0  0  0  0  0  0  0  0
   -1.1763  -10.5561   17.7000 C   0  0  2  0  0  0  0  0  0  0  0  0
   -2.2160  -11.4905   16.9937 C   0  0  2  0  0  0  0  0  0  0  0  0
   -1.5492  -12.5423   16.3728 O   0  0  0  0  0  0  0  0  0  0  0  0
   -3.0907  -10.6880   15.9575 C   0  0  1  0  0  0  0  0  0  0  0  0
   -4.0931  -11.5739   15.2787 N   0  0  0  0  0  0  0  0  0  0  0  0
   -3.8126   -9.5100   16.7246 C   0  0  2  0  0  0  0  0  0  0  0  0
   -4.6302   -8.7475   15.8344 O   0  0  0  0  0  0  0  0  0  0  0  0
   -2.7222   -8.6148   17.4045 C   0  0  2  0  0  0  0  0  0  0  0  0
   -1.8683   -9.4235   18.3409 O   0  0  0  0  0  0  0  0  0  0  0  0
   -3.3347   -7.4863   18.1822 C   0  0  0  0  0  0  0  0  0  0  0  0
   -2.3251   -6.6483   18.7683 O   0  0  0  0  0  0  0  0  0  0  0  0
    3.0413   -4.8286   20.6674 O   0  0  0  0  0  0  0  0  0  0  0  0
    5.3387   -5.5041   22.2495 O   0  0  0  0  0  0  0  0  0  0  0  0
    4.9973  -13.6393   12.8256 N   0  0  0  0  0  0  0  0  0  0  0  0
    1.9633  -10.4087   13.2878 C   0  0  0  0  0  0  0  0  0  0  0  0
    2.5039   -9.4388   12.7678 O   0  0  0  0  0  0  0  0  0  0  0  0
    1.6353  -11.7158   12.5299 C   0  0  1  0  0  0  0  0  0  0  0  0
    2.6580  -12.8101   12.8966 C   0  0  0  0  0  0  0  0  0  0  0  0
    4.1150  -12.5143   12.5224 C   0  0  0  0  0  0  0  0  0  0  0  0
    0.2919  -12.1319   12.8636 O   0  0  0  0  0  0  0  0  0  0  0  0
  1  2  1  6  0  0  0
  1  3  1  0  0  0  0
  1  8  1  0  0  0  0
  3  4  1  0  0  0  0
  3 32  1  6  0  0  0
  4  5  1  0  0  0  0
  4 33  1  1  0  0  0
  5  6  1  6  0  0  0
  5  7  1  0  0  0  0
  7  8  1  0  0  0  0
  7  9  1  1  0  0  0
  9 10  1  0  0  0  0
 11 12  1  6  0  0  0
 11 13  1  0  0  0  0
 11 19  1  0  0  0  0
 12 35  1  0  0  0  0
 13 14  1  0  0  0  0
 14 15  1  1  0  0  0
 14 16  1  0  0  0  0
 16  2  1  1  0  0  0
 16 17  1  0  0  0  0
 17 18  1  1  0  0  0
 17 19  1  0  0  0  0
 19 20  1  6  0  0  0
 21 20  1  6  0  0  0
 21 22  1  0  0  0  0
 21 29  1  0  0  0  0
 22 23  1  6  0  0  0
 22 24  1  0  0  0  0
 24 25  1  1  0  0  0
 24 26  1  0  0  0  0
 26 27  1  6  0  0  0
 26 28  1  0  0  0  0
 28 29  1  0  0  0  0
 28 30  1  1  0  0  0
 30 31  1  0  0  0  0
 34 39  1  0  0  0  0
 35 36  2  0  0  0  0
 37 35  1  1  0  0  0
 37 38  1  0  0  0  0
 37 40  1  0  0  0  0
 38 39  1  0  0  0  0
M  END
>  <CHROM.1>
161.01811558,-173.36506068,-61.12131457,179.68897667,175.85791240,-146.92726845
-178.25903199,-77.40514882,-62.21377361,-176.20489690,1.36787174,-9.28655785
17.55134261,1.01574802,-0.04698665,1.02532659

>  <Name>
2g5q_lig

>  <RI>
224

>  <Rbt.Current_Directory>
/home/itssahil/PROJECTS/Mol_Feturizer/New_Systems/rnas/2g5q

>  <Rbt.Executable>
rbdock ($Id: //depot/dev/client3/rdock/2013.1/src/exe/rbdock.cxx#4 $)

>  <Rbt.Library>
libRbt.so (2013.1, Build901 2013/11/27)

>  <Rbt.Parameter_File>
/export/apps/rDock/src/rDock_2013.1_src/data/scripts/dock_solv.prm

>  <Rbt.Receptor>
prm/pocket_docking_8.prm

>  <SCORE>
-24.3069

>  <SCORE.INTER>
-17.1091

>  <SCORE.INTER.CONST>
1

>  <SCORE.INTER.POLAR>
-1.72254

>  <SCORE.INTER.ROT>
10

>  <SCORE.INTER.SOLV>
21.703

>  <SCORE.INTER.VDW>
-23.1653

>  <SCORE.INTER.norm>
-0.427728

>  <SCORE.INTRA>
-7.1978

>  <SCORE.INTRA.DIHEDRAL>
-15.3158

>  <SCORE.INTRA.DIHEDRAL.0>
22.5778

>  <SCORE.INTRA.POLAR>
0

>  <SCORE.INTRA.POLAR.0>
0

>  <SCORE.INTRA.REPUL>
0.0153154

>  <SCORE.INTRA.REPUL.0>
0

>  <SCORE.INTRA.SOLV>
-0.958532

>  <SCORE.INTRA.SOLV.lig_0>
-102.332

>  <SCORE.INTRA.VDW>
0.862775

>  <SCORE.INTRA.VDW.0>
-5.08747

>  <SCORE.INTRA.norm>
-0.179945

>  <SCORE.RESTR>
0

>  <SCORE.RESTR.CAVITY>
0

>  <SCORE.RESTR.norm>
0

>  <SCORE.SYSTEM>
0

>  <SCORE.SYSTEM.CONST>
0

>  <SCORE.SYSTEM.DIHEDRAL>
0

>  <SCORE.SYSTEM.SOLV>
0

>  <SCORE.SYSTEM.norm>
0

>  <SCORE.heavy>
40

>  <SCORE.norm>
-0.607672

>  <RMSD>
5.811

$$$$
2g5q_lig
 OpenBabel11021811433D
libRbt.so/2013.1/901 2013/11/27
 40 42  0  0  0  0  0  0  0  0999 V2000
    6.7064   -9.6695   17.9062 C   0  0  2  0  0  0  0  0  0  0  0  0
    5.6787   -9.3027   17.0124 O   0  0  0  0  0  0  0  0  0  0  0  0
    8.0786   -9.5009   17.1897 C   0  0  1  0  0  0  0  0  0  0  0  0
    8.2508  -10.5143   16.0163 C   0  0  2  0  0  0  0  0  0  0  0  0
    8.1412  -11.9448   16.6053 C   0  0  2  0  0  0  0  0  0  0  0  0
    8.3179  -12.9104   15.5561 O   0  0  0  0  0  0  0  0  0  0  0  0
    6.7196  -12.0941   17.2843 C   0  0  2  0  0  0  0  0  0  0  0  0
    6.5594  -11.0768   18.3623 O   0  0  0  0  0  0  0  0  0  0  0  0
    6.5073  -13.4672   17.9129 C   0  0  0  0  0  0  0  0  0  0  0  0
    7.4410  -13.7115   19.0575 N   0  0  0  0  0  0  0  0  0  0  0  0
    2.0874   -9.8977   19.4260 C   0  0  2  0  0  0  0  0  0  0  0  0
    0.6948   -9.8765   19.8575 N   0  0  0  0  0  0  0  0  0  0  0  0
    2.6127   -8.4190   19.1949 C   0  0  0  0  0  0  0  0  0  0  0  0
    4.1233   -8.4370   18.7342 C   0  0  2  0  0  0  0  0  0  0  0  0
    4.6069   -7.0445   18.5319 N   0  0  0  0  0  0  0  0  0  0  0  0
    4.2612   -9.2920   17.4121 C   0  0  2  0  0  0  0  0  0  0  0  0
    3.7251  -10.7541   17.6798 C   0  0  2  0  0  0  0  0  0  0  0  0
    3.8451  -11.5245   16.4798 O   0  0  0  0  0  0  0  0  0  0  0  0
    2.2129  -10.7142   18.1231 C   0  0  1  0  0  0  0  0  0  0  0  0
    1.7252  -12.0611   18.3809 O   0  0  0  0  0  0  0  0  0  0  0  0
    0.3837  -12.3751   18.6634 C   0  0  2  0  0  0  0  0  0  0  0  0
    0.3543  -13.8295   19.2440 C   0  0  2  0  0  0  0  0  0  0  0  0
    1.1221  -13.8828   20.4034 O   0  0  0  0  0  0  0  0  0  0  0  0
    0.8634  -14.8765   18.1824 C   0  0  1  0  0  0  0  0  0  0  0  0
    0.8347  -16.2737   18.7278 N   0  0  0  0  0  0  0  0  0  0  0  0
   -0.0446  -14.7590   16.8944 C   0  0  2  0  0  0  0  0  0  0  0  0
    0.3660  -15.6935   15.8942 O   0  0  0  0  0  0  0  0  0  0  0  0
    0.0296  -13.2874   16.3639 C   0  0  2  0  0  0  0  0  0  0  0  0
   -0.4061  -12.3111   17.4207 O   0  0  0  0  0  0  0  0  0  0  0  0
   -0.8359  -13.0881   15.1536 C   0  0  0  0  0  0  0  0  0  0  0  0
   -0.7212  -11.7490   14.6450 O   0  0  0  0  0  0  0  0  0  0  0  0
    8.1828   -8.1159   16.7113 O   0  0  0  0  0  0  0  0  0  0  0  0
    9.4830  -10.3301   15.4289 O   0  0  0  0  0  0  0  0  0  0  0  0
   -2.2771   -6.9077   19.1053 N   0  0  0  0  0  0  0  0  0  0  0  0
    0.2598  -10.0263   21.1669 C   0  0  0  0  0  0  0  0  0  0  0  0
    1.0098  -10.2035   22.1205 O   0  0  0  0  0  0  0  0  0  0  0  0
   -1.2802   -9.9622   21.2880 C   0  0  1  0  0  0  0  0  0  0  0  0
   -1.7835   -8.5592   20.8923 C   0  0  0  0  0  0  0  0  0  0  0  0
   -1.6871   -8.2114   19.4023 C   0  0  0  0  0  0  0  0  0  0  0  0
   -1.8642  -10.9779   20.4415 O   0  0  0  0  0  0  0  0  0  0  0  0
  1  2  1  6  0  0  0
  1  3  1  0  0  0  0
  1  8  1  0  0  0  0
  3  4  1  0  0  0  0
  3 32  1  6  0  0  0
  4  5  1  0  0  0  0
  4 33  1  1  0  0  0
  5  6  1  6  0  0  0
  5  7  1  0  0  0  0
  7  8  1  0  0  0  0
  7  9  1  1  0  0  0
  9 10  1  0  0  0  0
 11 12  1  6  0  0  0
 11 13  1  0  0  0  0
 11 19  1  0  0  0  0
 12 35  1  0  0  0  0
 13 14  1  0  0  0  0
 14 15  1  6  0  0  0
 14 16  1  0  0  0  0
 16  2  1  1  0  0  0
 16 17  1  0  0  0  0
 17 18  1  6  0  0  0
 17 19  1  0  0  0  0
 19 20  1  1  0  0  0
 21 20  1  6  0  0  0
 21 22  1  0  0  0  0
 21 29  1  0  0  0  0
 22 23  1  1  0  0  0
 22 24  1  0  0  0  0
 24 25  1  1  0  0  0
 24 26  1  0  0  0  0
 26 27  1  6  0  0  0
 26 28  1  0  0  0  0
 28 29  1  0  0  0  0
 28 30  1  6  0  0  0
 30 31  1  0  0  0  0
 34 39  1  0  0  0  0
 35 36  2  0  0  0  0
 37 35  1  6  0  0  0
 37 38  1  0  0  0  0
 37 40  1  0  0  0  0
 38 39  1  0  0  0  0
M  END
>  <CHROM.1>
-177.07008207,64.94690180,-100.70219396,52.17797500,67.17084492,-165.14383661
-177.79850688,-64.86484104,70.76995270,175.68626431,2.87202349,-11.20612308
18.09271132,-0.02605239,0.26497532,0.37864954

>  <Name>
2g5q_lig

>  <RI>
2.47104e+07

>  <Rbt.Current_Directory>
/home/itssahil/PROJECTS/Mol_Feturizer/New_Systems/rnas/2g5q

>  <Rbt.Executable>
rbdock ($Id: //depot/dev/client3/rdock/2013.1/src/exe/rbdock.cxx#4 $)

>  <Rbt.Library>
libRbt.so (2013.1, Build901 2013/11/27)

>  <Rbt.Parameter_File>
/export/apps/rDock/src/rDock_2013.1_src/data/scripts/dock_solv.prm

>  <Rbt.Receptor>
prm/pocket_docking_7.prm

>  <SCORE>
-10.3022

>  <SCORE.INTER>
-1.67613

>  <SCORE.INTER.CONST>
1

>  <SCORE.INTER.POLAR>
-0.894427

>  <SCORE.INTER.ROT>
10

>  <SCORE.INTER.SOLV>
16.0308

>  <SCORE.INTER.VDW>
-13.7463

>  <SCORE.INTER.norm>
-0.0419034

>  <SCORE.INTRA>
-8.62602

>  <SCORE.INTRA.DIHEDRAL>
-18.6158

>  <SCORE.INTRA.DIHEDRAL.0>
22.5778

>  <SCORE.INTRA.POLAR>
0

>  <SCORE.INTRA.POLAR.0>
0

>  <SCORE.INTRA.REPUL>
0

>  <SCORE.INTRA.REPUL.0>
0

>  <SCORE.INTRA.SOLV>
1.45429

>  <SCORE.INTRA.SOLV.lig_0>
-102.332

>  <SCORE.INTRA.VDW>
-0.0452438

>  <SCORE.INTRA.VDW.0>
-5.08747

>  <SCORE.INTRA.norm>
-0.21565

>  <SCORE.RESTR>
0

>  <SCORE.RESTR.CAVITY>
0

>  <SCORE.RESTR.norm>
0

>  <SCORE.SYSTEM>
0

>  <SCORE.SYSTEM.CONST>
0

>  <SCORE.SYSTEM.DIHEDRAL>
0

>  <SCORE.SYSTEM.SOLV>
0

>  <SCORE.SYSTEM.norm>
0

>  <SCORE.heavy>
40

>  <SCORE.norm>
-0.257554

>  <RMSD>
6.025

$$$$
2g5q_lig
 OpenBabel11021811433D
libRbt.so/2013.1/901 2013/11/27
 40 42  0  0  0  0  0  0  0  0999 V2000
    4.3770   -9.2614   15.2585 C   0  0  2  0  0  0  0  0  0  0  0  0
    3.6162   -8.0832   15.4087 O   0  0  0  0  0  0  0  0  0  0  0  0
    5.7580   -8.8920   14.6410 C   0  0  1  0  0  0  0  0  0  0  0  0
    5.6200   -8.3698   13.1775 C   0  0  2  0  0  0  0  0  0  0  0  0
    4.9539   -9.4890   12.3356 C   0  0  2  0  0  0  0  0  0  0  0  0
    4.8299   -9.0540   10.9718 O   0  0  0  0  0  0  0  0  0  0  0  0
    3.5367   -9.8059   12.9642 C   0  0  2  0  0  0  0  0  0  0  0  0
    3.6933  -10.2467   14.3799 O   0  0  0  0  0  0  0  0  0  0  0  0
    2.7939  -10.9095   12.2187 C   0  0  0  0  0  0  0  0  0  0  0  0
    3.5306  -12.2122   12.2639 N   0  0  0  0  0  0  0  0  0  0  0  0
    0.7097   -9.2175   18.4652 C   0  0  2  0  0  0  0  0  0  0  0  0
   -0.4308   -9.1672   19.3721 N   0  0  0  0  0  0  0  0  0  0  0  0
    1.7049   -8.0203   18.7685 C   0  0  0  0  0  0  0  0  0  0  0  0
    2.9457   -8.0752   17.7928 C   0  0  2  0  0  0  0  0  0  0  0  0
    3.8765   -6.9542   18.0948 N   0  0  0  0  0  0  0  0  0  0  0  0
    2.4423   -8.0178   16.2957 C   0  0  2  0  0  0  0  0  0  0  0  0
    1.4520   -9.2208   16.0334 C   0  0  2  0  0  0  0  0  0  0  0  0
    0.9926   -9.1632   14.6793 O   0  0  0  0  0  0  0  0  0  0  0  0
    0.2144   -9.1382   17.0063 C   0  0  1  0  0  0  0  0  0  0  0  0
   -0.6898  -10.2541   16.7710 O   0  0  0  0  0  0  0  0  0  0  0  0
   -1.4104  -10.4495   15.5790 C   0  0  2  0  0  0  0  0  0  0  0  0
   -2.6466  -11.3488   15.9197 C   0  0  2  0  0  0  0  0  0  0  0  0
   -3.4386  -10.7101   16.8691 O   0  0  0  0  0  0  0  0  0  0  0  0
   -2.1938  -12.7699   16.4278 C   0  0  1  0  0  0  0  0  0  0  0  0
   -3.3713  -13.6407   16.7525 N   0  0  0  0  0  0  0  0  0  0  0  0
   -1.2971  -13.4345   15.3090 C   0  0  2  0  0  0  0  0  0  0  0  0
   -0.8604  -14.7344   15.7109 O   0  0  0  0  0  0  0  0  0  0  0  0
   -0.0822  -12.4904   15.0168 C   0  0  2  0  0  0  0  0  0  0  0  0
   -0.5498  -11.1262   14.5923 O   0  0  0  0  0  0  0  0  0  0  0  0
    0.8034  -13.0414   13.9371 C   0  0  0  0  0  0  0  0  0  0  0  0
    1.4077  -14.2813   14.3401 O   0  0  0  0  0  0  0  0  0  0  0  0
    6.3952   -7.8871   15.5026 O   0  0  0  0  0  0  0  0  0  0  0  0
    6.8686   -8.0717   12.6778 O   0  0  0  0  0  0  0  0  0  0  0  0
    0.1763  -10.8185   22.3427 N   0  0  0  0  0  0  0  0  0  0  0  0
   -1.1614  -10.2662   19.8019 C   0  0  0  0  0  0  0  0  0  0  0  0
   -0.9298  -11.4192   19.4550 O   0  0  0  0  0  0  0  0  0  0  0  0
   -2.3134   -9.8729   20.7552 C   0  0  1  0  0  0  0  0  0  0  0  0
   -1.7418   -9.2686   22.0537 C   0  0  0  0  0  0  0  0  0  0  0  0
   -1.0088  -10.2470   22.9789 C   0  0  0  0  0  0  0  0  0  0  0  0
   -3.1809   -8.9305   20.0854 O   0  0  0  0  0  0  0  0  0  0  0  0
  1  2  1  6  0  0  0
  1  3  1  0  0  0  0
  1  8  1  0  0  0  0
  3  4  1  0  0  0  0
  3 32  1  1  0  0  0
  4  5  1  0  0  0  0
  4 33  1  6  0  0  0
  5  6  1  6  0  0  0
  5  7  1  0  0  0  0
  7  8  1  0  0  0  0
  7  9  1  6  0  0  0
  9 10  1  0  0  0  0
 11 12  1  1  0  0  0
 11 13  1  0  0  0  0
 11 19  1  0  0  0  0
 12 35  1  0  0  0  0
 13 14  1  0  0  0  0
 14 15  1  1  0  0  0
 14 16  1  0  0  0  0
 16  2  1  6  0  0  0
 16 17  1  0  0  0  0
 17 18  1  6  0  0  0
 17 19  1  0  0  0  0
 19 20  1  6  0  0  0
 21 20  1  1  0  0  0
 21 22  1  0  0  0  0
 21 29  1  0  0  0  0
 22 23  1  1  0  0  0
 22 24  1  0  0  0  0
 24 25  1  6  0  0  0
 24 26  1  0  0  0  0
 26 27  1  1  0  0  0
 26 28  1  0  0  0  0
 28 29  1  0  0  0  0
 28 30  1  6  0  0  0
 30 31  1  0  0  0  0
 34 39  1  0  0  0  0
 35 36  2  0  0  0  0
 37 35  1  6  0  0  0
 37 38  1  0  0  0  0
 37 40  1  0  0  0  0
 38 39  1  0  0  0  0
M  END
>  <CHROM.1>
-162.26095029,62.12326327,-150.84488214,70.49391908,175.20895967,-157.10431980
-63.89540123,-64.37836696,-69.53978994,62.74795042,1.14787820,-10.21927152
16.28973334,-0.51360814,0.59171122,1.02558234

>  <Name>
2g5q_lig

>  <RI>
0

>  <Rbt.Current_Directory>
/home/itssahil/PROJECTS/Mol_Feturizer/New_Systems/rnas/2g5q

>  <Rbt.Executable>
rbdock ($Id: //depot/dev/client3/rdock/2013.1/src/exe/rbdock.cxx#4 $)

>  <Rbt.Library>
libRbt.so (2013.1, Build901 2013/11/27)

>  <Rbt.Parameter_File>
/export/apps/rDock/src/rDock_2013.1_src/data/scripts/dock_solv.prm

>  <Rbt.Receptor>
prm/pocket_docking_5.prm

>  <SCORE>
-15.3662

>  <SCORE.INTER>
-10.0174

>  <SCORE.INTER.CONST>
1

>  <SCORE.INTER.POLAR>
-1.56591

>  <SCORE.INTER.ROT>
10

>  <SCORE.INTER.SOLV>
15.2376

>  <SCORE.INTER.VDW>
-16.8044

>  <SCORE.INTER.norm>
-0.250434

>  <SCORE.INTRA>
-5.34879

>  <SCORE.INTRA.DIHEDRAL>
-16.3856

>  <SCORE.INTRA.DIHEDRAL.0>
22.5778

>  <SCORE.INTRA.POLAR>
0

>  <SCORE.INTRA.POLAR.0>
0

>  <SCORE.INTRA.REPUL>
0

>  <SCORE.INTRA.REPUL.0>
0

>  <SCORE.INTRA.SOLV>
7.71224

>  <SCORE.INTRA.SOLV.lig_0>
-102.332

>  <SCORE.INTRA.VDW>
-1.01213

>  <SCORE.INTRA.VDW.0>
-5.08747

>  <SCORE.INTRA.norm>
-0.13372

>  <SCORE.RESTR>
0

>  <SCORE.RESTR.CAVITY>
0

>  <SCORE.RESTR.norm>
0

>  <SCORE.SYSTEM>
0

>  <SCORE.SYSTEM.CONST>
0

>  <SCORE.SYSTEM.DIHEDRAL>
0

>  <SCORE.SYSTEM.SOLV>
0

>  <SCORE.SYSTEM.norm>
0

>  <SCORE.heavy>
40

>  <SCORE.norm>
-0.384154

>  <RMSD>
6.144

$$$$
2g5q_lig
 OpenBabel11021811433D
libRbt.so/2013.1/901 2013/11/27
 40 42  0  0  0  0  0  0  0  0999 V2000
    1.6071   -6.9598   18.8410 C   0  0  2  0  0  0  0  0  0  0  0  0
    0.3783   -7.1115   19.5165 O   0  0  0  0  0  0  0  0  0  0  0  0
    2.5706   -8.0979   19.2899 C   0  0  1  0  0  0  0  0  0  0  0  0
    2.9720   -7.9619   20.7912 C   0  0  2  0  0  0  0  0  0  0  0  0
    3.6663   -6.5873   20.9738 C   0  0  2  0  0  0  0  0  0  0  0  0
    4.0730   -6.4335   22.3433 O   0  0  0  0  0  0  0  0  0  0  0  0
    2.6443   -5.4553   20.5518 C   0  0  2  0  0  0  0  0  0  0  0  0
    2.2329   -5.6429   19.1311 O   0  0  0  0  0  0  0  0  0  0  0  0
    3.2307   -4.0534   20.6793 C   0  0  0  0  0  0  0  0  0  0  0  0
    4.3843   -3.8403   19.7489 N   0  0  0  0  0  0  0  0  0  0  0  0
   -3.2789   -9.1107   18.2105 C   0  0  2  0  0  0  0  0  0  0  0  0
   -4.2267  -10.1592   17.8524 N   0  0  0  0  0  0  0  0  0  0  0  0
   -1.9943   -9.1924   17.2837 C   0  0  0  0  0  0  0  0  0  0  0  0
   -0.9679   -8.0537   17.6635 C   0  0  2  0  0  0  0  0  0  0  0  0
    0.2266   -8.1343   16.7801 N   0  0  0  0  0  0  0  0  0  0  0  0
   -0.5678   -8.1909   19.1864 C   0  0  2  0  0  0  0  0  0  0  0  0
   -1.8712   -8.1093   20.0761 C   0  0  2  0  0  0  0  0  0  0  0  0
   -1.5072   -8.2400   21.4539 O   0  0  0  0  0  0  0  0  0  0  0  0
   -2.8743   -9.2629   19.6915 C   0  0  1  0  0  0  0  0  0  0  0  0
   -4.0789   -9.1779   20.5038 O   0  0  0  0  0  0  0  0  0  0  0  0
   -5.0272  -10.2100   20.6212 C   0  0  2  0  0  0  0  0  0  0  0  0
   -6.1810   -9.6850   21.5412 C   0  0  2  0  0  0  0  0  0  0  0  0
   -6.7572   -8.5565   20.9660 O   0  0  0  0  0  0  0  0  0  0  0  0
   -5.6535   -9.3708   22.9923 C   0  0  1  0  0  0  0  0  0  0  0  0
   -6.7526   -8.8715   23.8827 N   0  0  0  0  0  0  0  0  0  0  0  0
   -5.0092  -10.6877   23.5821 C   0  0  2  0  0  0  0  0  0  0  0  0
   -4.5173  -10.4662   24.9054 O   0  0  0  0  0  0  0  0  0  0  0  0
   -3.8659  -11.1581   22.6207 C   0  0  2  0  0  0  0  0  0  0  0  0
   -4.3918  -11.3913   21.2318 O   0  0  0  0  0  0  0  0  0  0  0  0
   -3.2231  -12.4273   23.0998 C   0  0  0  0  0  0  0  0  0  0  0  0
   -2.2236  -12.8871   22.1754 O   0  0  0  0  0  0  0  0  0  0  0  0
    1.9142   -9.3868   19.0331 O   0  0  0  0  0  0  0  0  0  0  0  0
    3.8323   -8.9831   21.1297 O   0  0  0  0  0  0  0  0  0  0  0  0
   -8.9994  -11.9839   14.4048 N   0  0  0  0  0  0  0  0  0  0  0  0
   -4.8528  -10.2860   16.6203 C   0  0  0  0  0  0  0  0  0  0  0  0
   -4.6814   -9.5138   15.6836 O   0  0  0  0  0  0  0  0  0  0  0  0
   -5.8060  -11.5022   16.5652 C   0  0  1  0  0  0  0  0  0  0  0  0
   -6.8532  -11.3027   15.4509 C   0  0  0  0  0  0  0  0  0  0  0  0
   -8.0469  -12.2644   15.4771 C   0  0  0  0  0  0  0  0  0  0  0  0
   -5.0310  -12.7007   16.3367 O   0  0  0  0  0  0  0  0  0  0  0  0
  1  2  1  1  0  0  0
  1  3  1  0  0  0  0
  1  8  1  0  0  0  0
  3  4  1  0  0  0  0
  3 32  1  1  0  0  0
  4  5  1  0  0  0  0
  4 33  1  6  0  0  0
  5  6  1  1  0  0  0
  5  7  1  0  0  0  0
  7  8  1  0  0  0  0
  7  9  1  6  0  0  0
  9 10  1  0  0  0  0
 11 12  1  6  0  0  0
 11 13  1  0  0  0  0
 11 19  1  0  0  0  0
 12 35  1  0  0  0  0
 13 14  1  0  0  0  0
 14 15  1  6  0  0  0
 14 16  1  0  0  0  0
 16  2  1  1  0  0  0
 16 17  1  0  0  0  0
 17 18  1  1  0  0  0
 17 19  1  0  0  0  0
 19 20  1  1  0  0  0
 21 20  1  1  0  0  0
 21 22  1  0  0  0  0
 21 29  1  0  0  0  0
 22 23  1  6  0  0  0
 22 24  1  0  0  0  0
 24 25  1  1  0  0  0
 24 26  1  0  0  0  0
 26 27  1  1  0  0  0
 26 28  1  0  0  0  0
 28 29  1  0  0  0  0
 28 30  1  1  0  0  0
 30 31  1  0  0  0  0
 34 39  1  0  0  0  0
 35 36  2  0  0  0  0
 37 35  1  6  0  0  0
 37 38  1  0  0  0  0
 37 40  1  0  0  0  0
 38 39  1  0  0  0  0
M  END
>  <CHROM.1>
-72.23102395,63.95679142,-62.17356746,-58.72031586,75.24033203,-177.93695573
177.00221688,158.01689577,-166.85705501,178.78476442,-2.11513153,-9.09814458
19.74771181,-0.16241369,-0.46657355,-1.54933632

>  <Name>
2g5q_lig

>  <RI>
2.47104e+07

>  <Rbt.Current_Directory>
/home/itssahil/PROJECTS/Mol_Feturizer/New_Systems/rnas/2g5q

>  <Rbt.Executable>
rbdock ($Id: //depot/dev/client3/rdock/2013.1/src/exe/rbdock.cxx#4 $)

>  <Rbt.Library>
libRbt.so (2013.1, Build901 2013/11/27)

>  <Rbt.Parameter_File>
/export/apps/rDock/src/rDock_2013.1_src/data/scripts/dock_solv.prm

>  <Rbt.Receptor>
prm/pocket_docking_7.prm

>  <SCORE>
-16.2844

>  <SCORE.INTER>
-9.78297

>  <SCORE.INTER.CONST>
1

>  <SCORE.INTER.POLAR>
-1.64451

>  <SCORE.INTER.ROT>
10

>  <SCORE.INTER.SOLV>
22.5113

>  <SCORE.INTER.VDW>
-18.8107

>  <SCORE.INTER.norm>
-0.244574

>  <SCORE.INTRA>
-6.5014

>  <SCORE.INTRA.DIHEDRAL>
-18.7772

>  <SCORE.INTRA.DIHEDRAL.0>
22.5778

>  <SCORE.INTRA.POLAR>
0

>  <SCORE.INTRA.POLAR.0>
0

>  <SCORE.INTRA.REPUL>
0

>  <SCORE.INTRA.REPUL.0>
0

>  <SCORE.INTRA.SOLV>
1.9202

>  <SCORE.INTRA.SOLV.lig_0>
-102.332

>  <SCORE.INTRA.VDW>
1.92708

>  <SCORE.INTRA.VDW.0>
-5.08747

>  <SCORE.INTRA.norm>
-0.162535

>  <SCORE.RESTR>
0

>  <SCORE.RESTR.CAVITY>
0

>  <SCORE.RESTR.norm>
0

>  <SCORE.SYSTEM>
0

>  <SCORE.SYSTEM.CONST>
0

>  <SCORE.SYSTEM.DIHEDRAL>
0

>  <SCORE.SYSTEM.SOLV>
0

>  <SCORE.SYSTEM.norm>
0

>  <SCORE.heavy>
40

>  <SCORE.norm>
-0.407109

>  <RMSD>
6.278

$$$$
2g5q_lig
 OpenBabel11021811433D
libRbt.so/2013.1/901 2013/11/27
 40 42  0  0  0  0  0  0  0  0999 V2000
    1.8495  -10.1220   18.6029 C   0  0  2  0  0  0  0  0  0  0  0  0
    0.6876   -9.7832   17.8785 O   0  0  0  0  0  0  0  0  0  0  0  0
    1.9075   -9.2533   19.8939 C   0  0  1  0  0  0  0  0  0  0  0  0
    2.1198   -7.7423   19.5694 C   0  0  2  0  0  0  0  0  0  0  0  0
    3.4532   -7.6077   18.7890 C   0  0  2  0  0  0  0  0  0  0  0  0
    3.6968   -6.2235   18.4907 O   0  0  0  0  0  0  0  0  0  0  0  0
    3.3412   -8.4655   17.4640 C   0  0  2  0  0  0  0  0  0  0  0  0
    3.0807   -9.8942   17.8013 O   0  0  0  0  0  0  0  0  0  0  0  0
    4.6106   -8.4165   16.6203 C   0  0  0  0  0  0  0  0  0  0  0  0
    5.7623   -9.0912   17.2985 N   0  0  0  0  0  0  0  0  0  0  0  0
   -3.2429  -11.6866   17.8048 C   0  0  2  0  0  0  0  0  0  0  0  0
   -4.5655  -12.1393   18.2188 N   0  0  0  0  0  0  0  0  0  0  0  0
   -2.1343  -12.2670   18.7796 C   0  0  0  0  0  0  0  0  0  0  0  0
   -0.6990  -11.7848   18.3304 C   0  0  2  0  0  0  0  0  0  0  0  0
    0.3320  -12.3448   19.2455 N   0  0  0  0  0  0  0  0  0  0  0  0
   -0.6552  -10.2050   18.3120 C   0  0  2  0  0  0  0  0  0  0  0  0
   -1.7740   -9.6649   17.3356 C   0  0  2  0  0  0  0  0  0  0  0  0
   -1.7367   -8.2343   17.3255 O   0  0  0  0  0  0  0  0  0  0  0  0
   -3.1986  -10.1445   17.8106 C   0  0  1  0  0  0  0  0  0  0  0  0
   -4.2259   -9.6559   16.9027 O   0  0  0  0  0  0  0  0  0  0  0  0
   -4.4312   -8.2981   16.5990 C   0  0  2  0  0  0  0  0  0  0  0  0
   -5.0087   -7.6119   17.8831 C   0  0  2  0  0  0  0  0  0  0  0  0
   -4.1013   -7.7457   18.9297 O   0  0  0  0  0  0  0  0  0  0  0  0
   -6.4100   -8.2188   18.2714 C   0  0  1  0  0  0  0  0  0  0  0  0
   -6.9737   -7.5646   19.4980 N   0  0  0  0  0  0  0  0  0  0  0  0
   -7.3864   -8.0395   17.0418 C   0  0  2  0  0  0  0  0  0  0  0  0
   -8.6812   -8.5666   17.3378 O   0  0  0  0  0  0  0  0  0  0  0  0
   -6.7547   -8.7468   15.7955 C   0  0  2  0  0  0  0  0  0  0  0  0
   -5.3943   -8.1851   15.4892 O   0  0  0  0  0  0  0  0  0  0  0  0
   -7.6134   -8.5927   14.5738 C   0  0  0  0  0  0  0  0  0  0  0  0
   -7.1690   -9.4528   13.5119 O   0  0  0  0  0  0  0  0  0  0  0  0
    0.6637   -9.4622   20.6474 O   0  0  0  0  0  0  0  0  0  0  0  0
    2.1765   -7.0250   20.7441 O   0  0  0  0  0  0  0  0  0  0  0  0
   -9.6860  -13.9109   18.1499 N   0  0  0  0  0  0  0  0  0  0  0  0
   -5.2328  -13.2413   17.7025 C   0  0  0  0  0  0  0  0  0  0  0  0
   -4.7799  -13.9637   16.8213 O   0  0  0  0  0  0  0  0  0  0  0  0
   -6.6212  -13.4476   18.3507 C   0  0  1  0  0  0  0  0  0  0  0  0
   -7.6672  -12.5526   17.6558 C   0  0  0  0  0  0  0  0  0  0  0  0
   -9.0779  -12.5861   18.2550 C   0  0  0  0  0  0  0  0  0  0  0  0
   -6.9873  -14.8423   18.2512 O   0  0  0  0  0  0  0  0  0  0  0  0
  1  2  1  6  0  0  0
  1  3  1  0  0  0  0
  1  8  1  0  0  0  0
  3  4  1  0  0  0  0
  3 32  1  6  0  0  0
  4  5  1  0  0  0  0
  4 33  1  1  0  0  0
  5  6  1  6  0  0  0
  5  7  1  0  0  0  0
  7  8  1  0  0  0  0
  7  9  1  1  0  0  0
  9 10  1  0  0  0  0
 11 12  1  1  0  0  0
 11 13  1  0  0  0  0
 11 19  1  0  0  0  0
 12 35  1  0  0  0  0
 13 14  1  0  0  0  0
 14 15  1  1  0  0  0
 14 16  1  0  0  0  0
 16  2  1  6  0  0  0
 16 17  1  0  0  0  0
 17 18  1  1  0  0  0
 17 19  1  0  0  0  0
 19 20  1  6  0  0  0
 21 20  1  1  0  0  0
 21 22  1  0  0  0  0
 21 29  1  0  0  0  0
 22 23  1  1  0  0  0
 22 24  1  0  0  0  0
 24 25  1  1  0  0  0
 24 26  1  0  0  0  0
 26 27  1  1  0  0  0
 26 28  1  0  0  0  0
 28 29  1  0  0  0  0
 28 30  1  6  0  0  0
 30 31  1  0  0  0  0
 34 39  1  0  0  0  0
 35 36  2  0  0  0  0
 37 35  1  6  0  0  0
 37 38  1  0  0  0  0
 37 40  1  0  0  0  0
 38 39  1  0  0  0  0
M  END
>  <CHROM.1>
-73.96357646,66.95058000,-95.57767940,-60.94475825,-176.46236341,-69.79937918
-168.68818353,83.53030250,-176.24092064,-63.34379279,-2.71305234,-9.90061577
17.83934270,-0.19450942,0.17516579,2.93381934

>  <Name>
2g5q_lig

>  <RI>
2.47104e+07

>  <Rbt.Current_Directory>
/home/itssahil/PROJECTS/Mol_Feturizer/New_Systems/rnas/2g5q

>  <Rbt.Executable>
rbdock ($Id: //depot/dev/client3/rdock/2013.1/src/exe/rbdock.cxx#4 $)

>  <Rbt.Library>
libRbt.so (2013.1, Build901 2013/11/27)

>  <Rbt.Parameter_File>
/export/apps/rDock/src/rDock_2013.1_src/data/scripts/dock_solv.prm

>  <Rbt.Receptor>
prm/pocket_docking_7.prm

>  <SCORE>
-17.1251

>  <SCORE.INTER>
-11.3392

>  <SCORE.INTER.CONST>
1

>  <SCORE.INTER.POLAR>
-2.48078

>  <SCORE.INTER.ROT>
10

>  <SCORE.INTER.SOLV>
9.61226

>  <SCORE.INTER.VDW>
-12.761

>  <SCORE.INTER.norm>
-0.283481

>  <SCORE.INTRA>
-5.7859

>  <SCORE.INTRA.DIHEDRAL>
-18.2458

>  <SCORE.INTRA.DIHEDRAL.0>
22.5778

>  <SCORE.INTRA.POLAR>
0

>  <SCORE.INTRA.POLAR.0>
0

>  <SCORE.INTRA.REPUL>
0

>  <SCORE.INTRA.REPUL.0>
0

>  <SCORE.INTRA.SOLV>
4.12794

>  <SCORE.INTRA.SOLV.lig_0>
-102.332

>  <SCORE.INTRA.VDW>
1.27303

>  <SCORE.INTRA.VDW.0>
-5.08747

>  <SCORE.INTRA.norm>
-0.144648

>  <SCORE.RESTR>
0

>  <SCORE.RESTR.CAVITY>
0

>  <SCORE.RESTR.norm>
0

>  <SCORE.SYSTEM>
0

>  <SCORE.SYSTEM.CONST>
0

>  <SCORE.SYSTEM.DIHEDRAL>
0

>  <SCORE.SYSTEM.SOLV>
0

>  <SCORE.SYSTEM.norm>
0

>  <SCORE.heavy>
40

>  <SCORE.norm>
-0.428128

>  <RMSD>
6.329

$$$$
2g5q_lig
 OpenBabel11021811433D
libRbt.so/2013.1/901 2013/11/27
 40 42  0  0  0  0  0  0  0  0999 V2000
    5.1118   -8.2135   14.8362 C   0  0  2  0  0  0  0  0  0  0  0  0
    3.9251   -7.5626   15.2330 O   0  0  0  0  0  0  0  0  0  0  0  0
    5.7864   -7.3821   13.7054 C   0  0  1  0  0  0  0  0  0  0  0  0
    4.9323   -7.3749   12.4000 C   0  0  2  0  0  0  0  0  0  0  0  0
    4.7618   -8.8450   11.9368 C   0  0  2  0  0  0  0  0  0  0  0  0
    3.9977   -8.8792   10.7205 O   0  0  0  0  0  0  0  0  0  0  0  0
    4.0340   -9.6474   13.0903 C   0  0  2  0  0  0  0  0  0  0  0  0
    4.8429   -9.5893   14.3413 O   0  0  0  0  0  0  0  0  0  0  0  0
    3.8259  -11.1182   12.7454 C   0  0  0  0  0  0  0  0  0  0  0  0
    2.9303  -11.2957   11.5588 N   0  0  0  0  0  0  0  0  0  0  0  0
    2.2914  -10.3328   18.1883 C   0  0  2  0  0  0  0  0  0  0  0  0
    1.4439  -10.8953   19.2329 N   0  0  0  0  0  0  0  0  0  0  0  0
    2.9709   -8.9924   18.6957 C   0  0  0  0  0  0  0  0  0  0  0  0
    3.8957   -8.3834   17.5694 C   0  0  2  0  0  0  0  0  0  0  0  0
    4.5355   -7.1334   18.0615 N   0  0  0  0  0  0  0  0  0  0  0  0
    3.0375   -8.1174   16.2691 C   0  0  2  0  0  0  0  0  0  0  0  0
    2.3743   -9.4718   15.7974 C   0  0  2  0  0  0  0  0  0  0  0  0
    1.5928   -9.2273   14.6237 O   0  0  0  0  0  0  0  0  0  0  0  0
    1.4444  -10.0539   16.9294 C   0  0  1  0  0  0  0  0  0  0  0  0
    0.8447  -11.3075   16.4970 O   0  0  0  0  0  0  0  0  0  0  0  0
    0.1019  -11.4610   15.3125 C   0  0  2  0  0  0  0  0  0  0  0  0
   -1.3504  -11.8824   15.7205 C   0  0  2  0  0  0  0  0  0  0  0  0
   -1.9126  -10.8952   16.5241 O   0  0  0  0  0  0  0  0  0  0  0  0
   -1.3533  -13.2763   16.4552 C   0  0  1  0  0  0  0  0  0  0  0  0
   -2.7410  -13.6910   16.8460 N   0  0  0  0  0  0  0  0  0  0  0  0
   -0.6989  -14.3457   15.4933 C   0  0  2  0  0  0  0  0  0  0  0  0
   -0.6800  -15.6373   16.1045 O   0  0  0  0  0  0  0  0  0  0  0  0
    0.7466  -13.8682   15.1257 C   0  0  2  0  0  0  0  0  0  0  0  0
    0.7179  -12.5104   14.4811 O   0  0  0  0  0  0  0  0  0  0  0  0
    1.4250  -14.8214   14.1850 C   0  0  0  0  0  0  0  0  0  0  0  0
    2.7760  -14.4138   13.9137 O   0  0  0  0  0  0  0  0  0  0  0  0
    6.0032   -6.0168   14.2025 O   0  0  0  0  0  0  0  0  0  0  0  0
    5.5803   -6.6388   11.4327 O   0  0  0  0  0  0  0  0  0  0  0  0
   -2.5071   -9.6278   20.3841 N   0  0  0  0  0  0  0  0  0  0  0  0
    1.0097  -12.2123   19.2893 C   0  0  0  0  0  0  0  0  0  0  0  0
    1.2888  -13.0607   18.4494 O   0  0  0  0  0  0  0  0  0  0  0  0
    0.1186  -12.4875   20.5224 C   0  0  1  0  0  0  0  0  0  0  0  0
   -1.2318  -11.7580   20.3721 C   0  0  0  0  0  0  0  0  0  0  0  0
   -1.1765  -10.2281   20.4545 C   0  0  0  0  0  0  0  0  0  0  0  0
   -0.0771  -13.9134   20.6560 O   0  0  0  0  0  0  0  0  0  0  0  0
  1  2  1  6  0  0  0
  1  3  1  0  0  0  0
  1  8  1  0  0  0  0
  3  4  1  0  0  0  0
  3 32  1  1  0  0  0
  4  5  1  0  0  0  0
  4 33  1  6  0  0  0
  5  6  1  6  0  0  0
  5  7  1  0  0  0  0
  7  8  1  0  0  0  0
  7  9  1  6  0  0  0
  9 10  1  0  0  0  0
 11 12  1  1  0  0  0
 11 13  1  0  0  0  0
 11 19  1  0  0  0  0
 12 35  1  0  0  0  0
 13 14  1  0  0  0  0
 14 15  1  1  0  0  0
 14 16  1  0  0  0  0
 16  2  1  6  0  0  0
 16 17  1  0  0  0  0
 17 18  1  6  0  0  0
 17 19  1  0  0  0  0
 19 20  1  6  0  0  0
 21 20  1  1  0  0  0
 21 22  1  0  0  0  0
 21 29  1  0  0  0  0
 22 23  1  1  0  0  0
 22 24  1  0  0  0  0
 24 25  1  6  0  0  0
 24 26  1  0  0  0  0
 26 27  1  1  0  0  0
 26 28  1  0  0  0  0
 28 29  1  0  0  0  0
 28 30  1  6  0  0  0
 30 31  1  0  0  0  0
 34 39  1  0  0  0  0
 35 36  2  0  0  0  0
 37 35  1  6  0  0  0
 37 38  1  0  0  0  0
 37 40  1  0  0  0  0
 38 39  1  0  0  0  0
M  END
>  <CHROM.1>
178.56764039,-63.02402824,-160.72866990,54.20497835,-174.13612528,-117.80210803
-176.74860261,69.10338603,-68.88145139,-176.49996619,1.87528546,-10.67201332
15.92180331,-0.21753881,0.87688270,1.01898016

>  <Name>
2g5q_lig

>  <RI>
2.47104e+07

>  <Rbt.Current_Directory>
/home/itssahil/PROJECTS/Mol_Feturizer/New_Systems/rnas/2g5q

>  <Rbt.Executable>
rbdock ($Id: //depot/dev/client3/rdock/2013.1/src/exe/rbdock.cxx#4 $)

>  <Rbt.Library>
libRbt.so (2013.1, Build901 2013/11/27)

>  <Rbt.Parameter_File>
/export/apps/rDock/src/rDock_2013.1_src/data/scripts/dock_solv.prm

>  <Rbt.Receptor>
prm/pocket_docking_7.prm

>  <SCORE>
-18.261

>  <SCORE.INTER>
-12.0605

>  <SCORE.INTER.CONST>
1

>  <SCORE.INTER.POLAR>
-2.43911

>  <SCORE.INTER.ROT>
10

>  <SCORE.INTER.SOLV>
17.3168

>  <SCORE.INTER.VDW>
-15.9489

>  <SCORE.INTER.norm>
-0.301511

>  <SCORE.INTRA>
-6.20057

>  <SCORE.INTRA.DIHEDRAL>
-13.4736

>  <SCORE.INTRA.DIHEDRAL.0>
22.5778

>  <SCORE.INTRA.POLAR>
0

>  <SCORE.INTRA.POLAR.0>
0

>  <SCORE.INTRA.REPUL>
0

>  <SCORE.INTRA.REPUL.0>
0

>  <SCORE.INTRA.SOLV>
3.14223

>  <SCORE.INTRA.SOLV.lig_0>
-102.332

>  <SCORE.INTRA.VDW>
-1.03487

>  <SCORE.INTRA.VDW.0>
-5.08747

>  <SCORE.INTRA.norm>
-0.155014

>  <SCORE.RESTR>
0

>  <SCORE.RESTR.CAVITY>
0

>  <SCORE.RESTR.norm>
0

>  <SCORE.SYSTEM>
0

>  <SCORE.SYSTEM.CONST>
0

>  <SCORE.SYSTEM.DIHEDRAL>
0

>  <SCORE.SYSTEM.SOLV>
0

>  <SCORE.SYSTEM.norm>
0

>  <SCORE.heavy>
40

>  <SCORE.norm>
-0.456526

>  <RMSD>
6.411

$$$$
2g5q_lig
 OpenBabel11021811433D
libRbt.so/2013.1/901 2013/11/27
 40 42  0  0  0  0  0  0  0  0999 V2000
   -0.3357  -10.3403   20.9346 C   0  0  2  0  0  0  0  0  0  0  0  0
   -0.1148   -9.9046   19.6113 O   0  0  0  0  0  0  0  0  0  0  0  0
    1.0370  -10.6782   21.5875 C   0  0  1  0  0  0  0  0  0  0  0  0
    1.7125  -11.9134   20.9155 C   0  0  2  0  0  0  0  0  0  0  0  0
    0.7508  -13.1205   21.0666 C   0  0  2  0  0  0  0  0  0  0  0  0
    1.3491  -14.2870   20.4786 O   0  0  0  0  0  0  0  0  0  0  0  0
   -0.6149  -12.7591   20.3537 C   0  0  2  0  0  0  0  0  0  0  0  0
   -1.2096  -11.5422   20.9769 O   0  0  0  0  0  0  0  0  0  0  0  0
   -1.6467  -13.8776   20.4534 C   0  0  0  0  0  0  0  0  0  0  0  0
   -2.0647  -14.1318   21.8685 N   0  0  0  0  0  0  0  0  0  0  0  0
   -4.1038   -8.6180   18.3824 C   0  0  2  0  0  0  0  0  0  0  0  0
   -5.1872   -8.0434   17.5938 N   0  0  0  0  0  0  0  0  0  0  0  0
   -3.0129   -7.5124   18.7037 C   0  0  0  0  0  0  0  0  0  0  0  0
   -1.8407   -8.1290   19.5641 C   0  0  2  0  0  0  0  0  0  0  0  0
   -0.8304   -7.0798   19.8679 N   0  0  0  0  0  0  0  0  0  0  0  0
   -1.1944   -9.3413   18.7828 C   0  0  2  0  0  0  0  0  0  0  0  0
   -2.3102  -10.4177   18.4775 C   0  0  2  0  0  0  0  0  0  0  0  0
   -1.7241  -11.5114   17.7646 O   0  0  0  0  0  0  0  0  0  0  0  0
   -3.4616   -9.7860   17.6056 C   0  0  1  0  0  0  0  0  0  0  0  0
   -4.4939  -10.7761   17.3364 O   0  0  0  0  0  0  0  0  0  0  0  0
   -4.3936  -11.7742   16.3506 C   0  0  2  0  0  0  0  0  0  0  0  0
   -5.6581  -11.6573   15.4338 C   0  0  2  0  0  0  0  0  0  0  0  0
   -5.6928  -10.3954   14.8483 O   0  0  0  0  0  0  0  0  0  0  0  0
   -6.9784  -11.9377   16.2468 C   0  0  1  0  0  0  0  0  0  0  0  0
   -8.1953  -11.8326   15.3760 N   0  0  0  0  0  0  0  0  0  0  0  0
   -6.8704  -13.3784   16.8873 C   0  0  2  0  0  0  0  0  0  0  0  0
   -8.0470  -13.6937   17.6344 O   0  0  0  0  0  0  0  0  0  0  0  0
   -5.5917  -13.4287   17.7902 C   0  0  2  0  0  0  0  0  0  0  0  0
   -4.3584  -13.0984   16.9966 O   0  0  0  0  0  0  0  0  0  0  0  0
   -5.4028  -14.7819   18.4121 C   0  0  0  0  0  0  0  0  0  0  0  0
   -4.2340  -14.8136   19.2474 O   0  0  0  0  0  0  0  0  0  0  0  0
    1.8969   -9.4907   21.4959 O   0  0  0  0  0  0  0  0  0  0  0  0
    2.9128  -12.1747   21.5389 O   0  0  0  0  0  0  0  0  0  0  0  0
   -9.2190   -8.4198   18.2264 N   0  0  0  0  0  0  0  0  0  0  0  0
   -5.2185   -7.9719   16.2082 C   0  0  0  0  0  0  0  0  0  0  0  0
   -4.3206   -8.3840   15.4819 O   0  0  0  0  0  0  0  0  0  0  0  0
   -6.5062   -7.2979   15.6809 C   0  0  1  0  0  0  0  0  0  0  0  0
   -7.7479   -7.9960   16.2716 C   0  0  0  0  0  0  0  0  0  0  0  0
   -8.0512   -7.6865   17.7422 C   0  0  0  0  0  0  0  0  0  0  0  0
   -6.4852   -5.8964   16.0337 O   0  0  0  0  0  0  0  0  0  0  0  0
  1  2  1  6  0  0  0
  1  3  1  0  0  0  0
  1  8  1  0  0  0  0
  3  4  1  0  0  0  0
  3 32  1  6  0  0  0
  4  5  1  0  0  0  0
  4 33  1  1  0  0  0
  5  6  1  6  0  0  0
  5  7  1  0  0  0  0
  7  8  1  0  0  0  0
  7  9  1  1  0  0  0
  9 10  1  0  0  0  0
 11 12  1  6  0  0  0
 11 13  1  0  0  0  0
 11 19  1  0  0  0  0
 12 35  1  0  0  0  0
 13 14  1  0  0  0  0
 14 15  1  6  0  0  0
 14 16  1  0  0  0  0
 16  2  1  1  0  0  0
 16 17  1  0  0  0  0
 17 18  1  6  0  0  0
 17 19  1  0  0  0  0
 19 20  1  1  0  0  0
 21 20  1  1  0  0  0
 21 22  1  0  0  0  0
 21 29  1  0  0  0  0
 22 23  1  1  0  0  0
 22 24  1  0  0  0  0
 24 25  1  6  0  0  0
 24 26  1  0  0  0  0
 26 27  1  1  0  0  0
 26 28  1  0  0  0  0
 28 29  1  0  0  0  0
 28 30  1  6  0  0  0
 30 31  1  0  0  0  0
 34 39  1  0  0  0  0
 35 36  2  0  0  0  0
 37 35  1  1  0  0  0
 37 38  1  0  0  0  0
 37 40  1  0  0  0  0
 38 39  1  0  0  0  0
M  END
>  <CHROM.1>
-171.77466933,64.43652611,88.67179114,55.27183069,161.26747522,-125.80840397
-179.48669810,-53.34473003,74.67483409,-178.33245193,-3.40988413,-10.77403722
18.41129109,-0.31327412,-0.50140265,-0.13734208

>  <Name>
2g5q_lig

>  <RI>
224

>  <Rbt.Current_Directory>
/home/itssahil/PROJECTS/Mol_Feturizer/New_Systems/rnas/2g5q

>  <Rbt.Executable>
rbdock ($Id: //depot/dev/client3/rdock/2013.1/src/exe/rbdock.cxx#4 $)

>  <Rbt.Library>
libRbt.so (2013.1, Build901 2013/11/27)

>  <Rbt.Parameter_File>
/export/apps/rDock/src/rDock_2013.1_src/data/scripts/dock_solv.prm

>  <Rbt.Receptor>
prm/pocket_docking_8.prm

>  <SCORE>
-14.0937

>  <SCORE.INTER>
-11.0027

>  <SCORE.INTER.CONST>
1

>  <SCORE.INTER.POLAR>
-1.89721

>  <SCORE.INTER.ROT>
10

>  <SCORE.INTER.SOLV>
12.6555

>  <SCORE.INTER.VDW>
-15.4963

>  <SCORE.INTER.norm>
-0.275068

>  <SCORE.INTRA>
-3.09093

>  <SCORE.INTRA.DIHEDRAL>
-11.2694

>  <SCORE.INTRA.DIHEDRAL.0>
22.5778

>  <SCORE.INTRA.POLAR>
0

>  <SCORE.INTRA.POLAR.0>
0

>  <SCORE.INTRA.REPUL>
0

>  <SCORE.INTRA.REPUL.0>
0

>  <SCORE.INTRA.SOLV>
4.46256

>  <SCORE.INTRA.SOLV.lig_0>
-102.332

>  <SCORE.INTRA.VDW>
0.312495

>  <SCORE.INTRA.VDW.0>
-5.08747

>  <SCORE.INTRA.norm>
-0.0772732

>  <SCORE.RESTR>
0

>  <SCORE.RESTR.CAVITY>
0

>  <SCORE.RESTR.norm>
0

>  <SCORE.SYSTEM>
0

>  <SCORE.SYSTEM.CONST>
0

>  <SCORE.SYSTEM.DIHEDRAL>
0

>  <SCORE.SYSTEM.SOLV>
0

>  <SCORE.SYSTEM.norm>
0

>  <SCORE.heavy>
40

>  <SCORE.norm>
-0.352342

>  <RMSD>
6.573

$$$$
2g5q_lig
 OpenBabel11021811433D
libRbt.so/2013.1/901 2013/11/27
 40 42  0  0  0  0  0  0  0  0999 V2000
    3.5781   -7.5292   21.2276 C   0  0  2  0  0  0  0  0  0  0  0  0
    4.6738   -7.8906   20.4163 O   0  0  0  0  0  0  0  0  0  0  0  0
    2.5358   -6.7700   20.3547 C   0  0  1  0  0  0  0  0  0  0  0  0
    3.0814   -5.3941   19.8620 C   0  0  2  0  0  0  0  0  0  0  0  0
    3.4309   -4.5471   21.1132 C   0  0  2  0  0  0  0  0  0  0  0  0
    3.9167   -3.2594   20.7004 O   0  0  0  0  0  0  0  0  0  0  0  0
    4.5234   -5.3271   21.9510 C   0  0  2  0  0  0  0  0  0  0  0  0
    3.9972   -6.6610   22.3593 O   0  0  0  0  0  0  0  0  0  0  0  0
    4.9338   -4.5869   23.2196 C   0  0  0  0  0  0  0  0  0  0  0  0
    5.5286   -5.5076   24.2396 N   0  0  0  0  0  0  0  0  0  0  0  0
    5.7103  -10.8824   17.4076 C   0  0  2  0  0  0  0  0  0  0  0  0
    5.5942  -11.8297   16.3054 N   0  0  0  0  0  0  0  0  0  0  0  0
    4.7428  -11.2990   18.5934 C   0  0  0  0  0  0  0  0  0  0  0  0
    4.8707  -10.2793   19.7927 C   0  0  2  0  0  0  0  0  0  0  0  0
    3.9670  -10.6873   20.9021 N   0  0  0  0  0  0  0  0  0  0  0  0
    4.5348   -8.8213   19.2833 C   0  0  2  0  0  0  0  0  0  0  0  0
    5.5143   -8.4443   18.1021 C   0  0  2  0  0  0  0  0  0  0  0  0
    5.2041   -7.1265   17.6383 O   0  0  0  0  0  0  0  0  0  0  0  0
    5.3593   -9.4647   16.9106 C   0  0  1  0  0  0  0  0  0  0  0  0
    6.2713   -9.1225   15.8292 O   0  0  0  0  0  0  0  0  0  0  0  0
    6.2204   -7.9185   15.1038 C   0  0  2  0  0  0  0  0  0  0  0  0
    5.1041   -8.0727   14.0160 C   0  0  2  0  0  0  0  0  0  0  0  0
    3.8828   -8.3210   14.6350 O   0  0  0  0  0  0  0  0  0  0  0  0
    5.4604   -9.2171   12.9932 C   0  0  1  0  0  0  0  0  0  0  0  0
    4.3990   -9.3695   11.9441 N   0  0  0  0  0  0  0  0  0  0  0  0
    6.8555   -8.8767   12.3335 C   0  0  2  0  0  0  0  0  0  0  0  0
    7.2301   -9.8795   11.3869 O   0  0  0  0  0  0  0  0  0  0  0  0
    7.9243   -8.7380   13.4697 C   0  0  2  0  0  0  0  0  0  0  0  0
    7.5243   -7.6798   14.4597 O   0  0  0  0  0  0  0  0  0  0  0  0
    9.2760   -8.3827   12.9216 C   0  0  0  0  0  0  0  0  0  0  0  0
   10.2002   -8.0676   13.9758 O   0  0  0  0  0  0  0  0  0  0  0  0
    2.1690   -7.6295   19.2212 O   0  0  0  0  0  0  0  0  0  0  0  0
    2.1169   -4.7621   19.1085 O   0  0  0  0  0  0  0  0  0  0  0  0
    5.9079  -16.8307   14.8033 N   0  0  0  0  0  0  0  0  0  0  0  0
    4.4247  -12.1155   15.6149 C   0  0  0  0  0  0  0  0  0  0  0  0
    3.3403  -11.6004   15.8641 O   0  0  0  0  0  0  0  0  0  0  0  0
    4.6375  -13.1709   14.5052 C   0  0  1  0  0  0  0  0  0  0  0  0
    5.1118  -14.5010   15.1249 C   0  0  0  0  0  0  0  0  0  0  0  0
    5.4310  -15.6239   14.1311 C   0  0  0  0  0  0  0  0  0  0  0  0
    3.4001  -13.3513   13.7803 O   0  0  0  0  0  0  0  0  0  0  0  0
  1  2  1  6  0  0  0
  1  3  1  0  0  0  0
  1  8  1  0  0  0  0
  3  4  1  0  0  0  0
  3 32  1  6  0  0  0
  4  5  1  0  0  0  0
  4 33  1  1  0  0  0
  5  6  1  6  0  0  0
  5  7  1  0  0  0  0
  7  8  1  0  0  0  0
  7  9  1  1  0  0  0
  9 10  1  0  0  0  0
 11 12  1  6  0  0  0
 11 13  1  0  0  0  0
 11 19  1  0  0  0  0
 12 35  1  0  0  0  0
 13 14  1  0  0  0  0
 14 15  1  1  0  0  0
 14 16  1  0  0  0  0
 16  2  1  1  0  0  0
 16 17  1  0  0  0  0
 17 18  1  6  0  0  0
 17 19  1  0  0  0  0
 19 20  1  6  0  0  0
 21 20  1  6  0  0  0
 21 22  1  0  0  0  0
 21 29  1  0  0  0  0
 22 23  1  1  0  0  0
 22 24  1  0  0  0  0
 24 25  1  6  0  0  0
 24 26  1  0  0  0  0
 26 27  1  6  0  0  0
 26 28  1  0  0  0  0
 28 29  1  0  0  0  0
 28 30  1  6  0  0  0
 30 31  1  0  0  0  0
 34 39  1  0  0  0  0
 35 36  2  0  0  0  0
 37 35  1  1  0  0  0
 37 38  1  0  0  0  0
 37 40  1  0  0  0  0
 38 39  1  0  0  0  0
M  END
>  <CHROM.1>
-63.52688088,158.07158735,58.90422571,-93.47940399,177.88732216,-81.10509257
171.57935373,61.65482765,-177.08712558,178.37176569,5.06323904,-8.95550830
17.12597612,2.04981562,1.10256457,0.47983622

>  <Name>
2g5q_lig

>  <RI>
224

>  <Rbt.Current_Directory>
/home/itssahil/PROJECTS/Mol_Feturizer/New_Systems/rnas/2g5q

>  <Rbt.Executable>
rbdock ($Id: //depot/dev/client3/rdock/2013.1/src/exe/rbdock.cxx#4 $)

>  <Rbt.Library>
libRbt.so (2013.1, Build901 2013/11/27)

>  <Rbt.Parameter_File>
/export/apps/rDock/src/rDock_2013.1_src/data/scripts/dock_solv.prm

>  <Rbt.Receptor>
prm/pocket_docking_8.prm

>  <SCORE>
-11.0103

>  <SCORE.INTER>
-6.11636

>  <SCORE.INTER.CONST>
1

>  <SCORE.INTER.POLAR>
-0.980896

>  <SCORE.INTER.ROT>
10

>  <SCORE.INTER.SOLV>
16.3654

>  <SCORE.INTER.VDW>
-16.5297

>  <SCORE.INTER.norm>
-0.152909

>  <SCORE.INTRA>
-4.99405

>  <SCORE.INTRA.DIHEDRAL>
-13.6059

>  <SCORE.INTRA.DIHEDRAL.0>
22.5778

>  <SCORE.INTRA.POLAR>
0

>  <SCORE.INTRA.POLAR.0>
0

>  <SCORE.INTRA.REPUL>
0

>  <SCORE.INTRA.REPUL.0>
0

>  <SCORE.INTRA.SOLV>
0.981947

>  <SCORE.INTRA.SOLV.lig_0>
-102.332

>  <SCORE.INTRA.VDW>
1.31792

>  <SCORE.INTRA.VDW.0>
-5.08747

>  <SCORE.INTRA.norm>
-0.124851

>  <SCORE.RESTR>
0.100152

>  <SCORE.RESTR.CAVITY>
0.100152

>  <SCORE.RESTR.norm>
0.0025038

>  <SCORE.SYSTEM>
0

>  <SCORE.SYSTEM.CONST>
0

>  <SCORE.SYSTEM.DIHEDRAL>
0

>  <SCORE.SYSTEM.SOLV>
0

>  <SCORE.SYSTEM.norm>
0

>  <SCORE.heavy>
40

>  <SCORE.norm>
-0.275256

>  <RMSD>
6.634

$$$$
2g5q_lig
 OpenBabel11021811433D
libRbt.so/2013.1/901 2013/11/27
 40 42  0  0  0  0  0  0  0  0999 V2000
    5.0412   -8.4347   14.8244 C   0  0  2  0  0  0  0  0  0  0  0  0
    3.8255   -7.8085   15.1701 O   0  0  0  0  0  0  0  0  0  0  0  0
    5.7139   -7.6258   13.6764 C   0  0  1  0  0  0  0  0  0  0  0  0
    4.8896   -7.6971   12.3539 C   0  0  2  0  0  0  0  0  0  0  0  0
    4.7768   -9.1888   11.9453 C   0  0  2  0  0  0  0  0  0  0  0  0
    4.0417   -9.2950   10.7153 O   0  0  0  0  0  0  0  0  0  0  0  0
    4.0494   -9.9696   13.1137 C   0  0  2  0  0  0  0  0  0  0  0  0
    4.8278   -9.8367   14.3784 O   0  0  0  0  0  0  0  0  0  0  0  0
    3.8964  -11.4587   12.8225 C   0  0  0  0  0  0  0  0  0  0  0  0
    3.0299  -11.7114   11.6279 N   0  0  0  0  0  0  0  0  0  0  0  0
    2.2215  -10.5115   18.2029 C   0  0  2  0  0  0  0  0  0  0  0  0
    1.3666  -11.0635   19.2470 N   0  0  0  0  0  0  0  0  0  0  0  0
    2.8244   -9.1195   18.6663 C   0  0  0  0  0  0  0  0  0  0  0  0
    3.7571   -8.5213   17.5409 C   0  0  2  0  0  0  0  0  0  0  0  0
    4.3247   -7.2220   17.9922 N   0  0  0  0  0  0  0  0  0  0  0  0
    2.9304   -8.3550   16.2041 C   0  0  2  0  0  0  0  0  0  0  0  0
    2.3434   -9.7587   15.7774 C   0  0  2  0  0  0  0  0  0  0  0  0
    1.5901   -9.6045   14.5704 O   0  0  0  0  0  0  0  0  0  0  0  0
    1.4041  -10.3299   16.9072 C   0  0  1  0  0  0  0  0  0  0  0  0
    0.8747  -11.6282   16.5168 O   0  0  0  0  0  0  0  0  0  0  0  0
    0.1808  -11.8705   15.3177 C   0  0  2  0  0  0  0  0  0  0  0  0
   -1.3232  -12.1070   15.6853 C   0  0  2  0  0  0  0  0  0  0  0  0
   -1.8293  -10.9778   16.3219 O   0  0  0  0  0  0  0  0  0  0  0  0
   -1.4940  -13.3869   16.5883 C   0  0  1  0  0  0  0  0  0  0  0  0
   -2.9323  -13.6246   16.9421 N   0  0  0  0  0  0  0  0  0  0  0  0
   -0.8960  -14.6261   15.8110 C   0  0  2  0  0  0  0  0  0  0  0  0
   -1.0292  -15.8231   16.5802 O   0  0  0  0  0  0  0  0  0  0  0  0
    0.6046  -14.3283   15.4759 C   0  0  2  0  0  0  0  0  0  0  0  0
    0.7360  -13.0695   14.6647 O   0  0  0  0  0  0  0  0  0  0  0  0
    1.2363  -15.4520   14.7065 C   0  0  0  0  0  0  0  0  0  0  0  0
    0.5519  -15.6832   13.4643 O   0  0  0  0  0  0  0  0  0  0  0  0
    5.8756   -6.2359   14.1240 O   0  0  0  0  0  0  0  0  0  0  0  0
    5.5352   -6.9778   11.3724 O   0  0  0  0  0  0  0  0  0  0  0  0
    0.1049  -13.1928   23.2448 N   0  0  0  0  0  0  0  0  0  0  0  0
    0.1664  -10.5125   19.6739 C   0  0  0  0  0  0  0  0  0  0  0  0
   -0.3121   -9.4797   19.2183 O   0  0  0  0  0  0  0  0  0  0  0  0
   -0.4935  -11.3379   20.8025 C   0  0  1  0  0  0  0  0  0  0  0  0
    0.1215  -10.9573   22.1645 C   0  0  0  0  0  0  0  0  0  0  0  0
   -0.3311  -11.8027   23.3606 C   0  0  0  0  0  0  0  0  0  0  0  0
   -1.9186  -11.0965   20.7939 O   0  0  0  0  0  0  0  0  0  0  0  0
  1  2  1  6  0  0  0
  1  3  1  0  0  0  0
  1  8  1  0  0  0  0
  3  4  1  0  0  0  0
  3 32  1  1  0  0  0
  4  5  1  0  0  0  0
  4 33  1  6  0  0  0
  5  6  1  6  0  0  0
  5  7  1  0  0  0  0
  7  8  1  0  0  0  0
  7  9  1  6  0  0  0
  9 10  1  0  0  0  0
 11 12  1  1  0  0  0
 11 13  1  0  0  0  0
 11 19  1  0  0  0  0
 12 35  1  0  0  0  0
 13 14  1  0  0  0  0
 14 15  1  1  0  0  0
 14 16  1  0  0  0  0
 16  2  1  6  0  0  0
 16 17  1  0  0  0  0
 17 18  1  6  0  0  0
 17 19  1  0  0  0  0
 19 20  1  6  0  0  0
 21 20  1  1  0  0  0
 21 22  1  0  0  0  0
 21 29  1  0  0  0  0
 22 23  1  1  0  0  0
 22 24  1  0  0  0  0
 24 25  1  6  0  0  0
 24 26  1  0  0  0  0
 26 27  1  1  0  0  0
 26 28  1  0  0  0  0
 28 29  1  0  0  0  0
 28 30  1  6  0  0  0
 30 31  1  0  0  0  0
 34 39  1  0  0  0  0
 35 36  2  0  0  0  0
 37 35  1  6  0  0  0
 37 38  1  0  0  0  0
 37 40  1  0  0  0  0
 38 39  1  0  0  0  0
M  END
>  <CHROM.1>
178.30118485,-63.22687656,66.20252190,55.32352492,-173.98197456,-108.67053475
59.70884488,82.98787571,-173.74835369,65.30027738,1.75265052,-10.79151160
16.17315041,-0.44762320,0.87098181,1.11764718

>  <Name>
2g5q_lig

>  <RI>
2.47104e+07

>  <Rbt.Current_Directory>
/home/itssahil/PROJECTS/Mol_Feturizer/New_Systems/rnas/2g5q

>  <Rbt.Executable>
rbdock ($Id: //depot/dev/client3/rdock/2013.1/src/exe/rbdock.cxx#4 $)

>  <Rbt.Library>
libRbt.so (2013.1, Build901 2013/11/27)

>  <Rbt.Parameter_File>
/export/apps/rDock/src/rDock_2013.1_src/data/scripts/dock_solv.prm

>  <Rbt.Receptor>
prm/pocket_docking_7.prm

>  <SCORE>
-18.6056

>  <SCORE.INTER>
-13.332

>  <SCORE.INTER.CONST>
1

>  <SCORE.INTER.POLAR>
-2.50897

>  <SCORE.INTER.ROT>
10

>  <SCORE.INTER.SOLV>
16.5913

>  <SCORE.INTER.VDW>
-16.3218

>  <SCORE.INTER.norm>
-0.333299

>  <SCORE.INTRA>
-5.27361

>  <SCORE.INTRA.DIHEDRAL>
-14.0203

>  <SCORE.INTRA.DIHEDRAL.0>
22.5778

>  <SCORE.INTRA.POLAR>
0

>  <SCORE.INTRA.POLAR.0>
0

>  <SCORE.INTRA.REPUL>
0

>  <SCORE.INTRA.REPUL.0>
0

>  <SCORE.INTRA.SOLV>
2.69763

>  <SCORE.INTRA.SOLV.lig_0>
-102.332

>  <SCORE.INTRA.VDW>
0.387727

>  <SCORE.INTRA.VDW.0>
-5.08747

>  <SCORE.INTRA.norm>
-0.13184

>  <SCORE.RESTR>
0

>  <SCORE.RESTR.CAVITY>
0

>  <SCORE.RESTR.norm>
0

>  <SCORE.SYSTEM>
0

>  <SCORE.SYSTEM.CONST>
0

>  <SCORE.SYSTEM.DIHEDRAL>
0

>  <SCORE.SYSTEM.SOLV>
0

>  <SCORE.SYSTEM.norm>
0

>  <SCORE.heavy>
40

>  <SCORE.norm>
-0.465139

>  <RMSD>
6.653

$$$$
2g5q_lig
 OpenBabel11021811433D
libRbt.so/2013.1/901 2013/11/27
 40 42  0  0  0  0  0  0  0  0999 V2000
    5.4606   -8.0226   14.6472 C   0  0  2  0  0  0  0  0  0  0  0  0
    4.1866   -7.5910   15.0715 O   0  0  0  0  0  0  0  0  0  0  0  0
    5.9955   -7.0292   13.5740 C   0  0  1  0  0  0  0  0  0  0  0  0
    5.1502   -7.0774   12.2638 C   0  0  2  0  0  0  0  0  0  0  0  0
    5.2124   -8.5254   11.7123 C   0  0  2  0  0  0  0  0  0  0  0  0
    4.4624   -8.6057   10.4894 O   0  0  0  0  0  0  0  0  0  0  0  0
    4.6203   -9.5000   12.8095 C   0  0  2  0  0  0  0  0  0  0  0  0
    5.4108   -9.3913   14.0689 O   0  0  0  0  0  0  0  0  0  0  0  0
    4.6456  -10.9618   12.3757 C   0  0  0  0  0  0  0  0  0  0  0  0
    4.0623  -11.8666   13.4163 N   0  0  0  0  0  0  0  0  0  0  0  0
    2.9007  -10.8844   17.6362 C   0  0  2  0  0  0  0  0  0  0  0  0
    2.1152  -11.6796   18.5723 N   0  0  0  0  0  0  0  0  0  0  0  0
    3.3471   -9.5216   18.3139 C   0  0  0  0  0  0  0  0  0  0  0  0
    4.2046   -8.6601   17.3054 C   0  0  2  0  0  0  0  0  0  0  0  0
    4.6262   -7.3903   17.9566 N   0  0  0  0  0  0  0  0  0  0  0  0
    3.3606   -8.3837   15.9980 C   0  0  2  0  0  0  0  0  0  0  0  0
    2.9313   -9.7618   15.3550 C   0  0  2  0  0  0  0  0  0  0  0  0
    2.1619   -9.5091   14.1751 O   0  0  0  0  0  0  0  0  0  0  0  0
    2.0643  -10.5982   16.3718 C   0  0  1  0  0  0  0  0  0  0  0  0
    1.6807  -11.8721   15.7815 O   0  0  0  0  0  0  0  0  0  0  0  0
    0.8556  -12.0021   14.6499 C   0  0  2  0  0  0  0  0  0  0  0  0
   -0.5787  -11.5223   15.0571 C   0  0  2  0  0  0  0  0  0  0  0  0
   -0.5247  -10.1949   15.4713 O   0  0  0  0  0  0  0  0  0  0  0  0
   -1.1871  -12.4399   16.1842 C   0  0  1  0  0  0  0  0  0  0  0  0
   -2.5632  -11.9911   16.5780 N   0  0  0  0  0  0  0  0  0  0  0  0
   -1.2138  -13.9278   15.6523 C   0  0  2  0  0  0  0  0  0  0  0  0
   -1.7648  -14.8098   16.6324 O   0  0  0  0  0  0  0  0  0  0  0  0
    0.2450  -14.3459   15.2655 C   0  0  2  0  0  0  0  0  0  0  0  0
    0.8164  -13.4150   14.2326 O   0  0  0  0  0  0  0  0  0  0  0  0
    0.2969  -15.7434   14.7196 C   0  0  0  0  0  0  0  0  0  0  0  0
    1.6513  -16.2111   14.6110 O   0  0  0  0  0  0  0  0  0  0  0  0
    5.9955   -5.6792   14.1535 O   0  0  0  0  0  0  0  0  0  0  0  0
    5.6739   -6.1918   11.3479 O   0  0  0  0  0  0  0  0  0  0  0  0
   -1.5458  -13.6483   20.6333 N   0  0  0  0  0  0  0  0  0  0  0  0
    2.6381  -12.4832   19.5758 C   0  0  0  0  0  0  0  0  0  0  0  0
    3.8383  -12.6217   19.7850 O   0  0  0  0  0  0  0  0  0  0  0  0
    1.5375  -13.1998   20.3917 C   0  0  1  0  0  0  0  0  0  0  0  0
    0.6086  -13.9889   19.4470 C   0  0  0  0  0  0  0  0  0  0  0  0
   -0.6132  -14.6413   20.1042 C   0  0  0  0  0  0  0  0  0  0  0  0
    2.1598  -14.0782   21.3563 O   0  0  0  0  0  0  0  0  0  0  0  0
  1  2  1  6  0  0  0
  1  3  1  0  0  0  0
  1  8  1  0  0  0  0
  3  4  1  0  0  0  0
  3 32  1  1  0  0  0
  4  5  1  0  0  0  0
  4 33  1  6  0  0  0
  5  6  1  6  0  0  0
  5  7  1  0  0  0  0
  7  8  1  0  0  0  0
  7  9  1  6  0  0  0
  9 10  1  0  0  0  0
 11 12  1  1  0  0  0
 11 13  1  0  0  0  0
 11 19  1  0  0  0  0
 12 35  1  0  0  0  0
 13 14  1  0  0  0  0
 14 15  1  1  0  0  0
 14 16  1  0  0  0  0
 16  2  1  6  0  0  0
 16 17  1  0  0  0  0
 17 18  1  6  0  0  0
 17 19  1  0  0  0  0
 19 20  1  6  0  0  0
 21 20  1  1  0  0  0
 21 22  1  0  0  0  0
 21 29  1  0  0  0  0
 22 23  1  1  0  0  0
 22 24  1  0  0  0  0
 24 25  1  6  0  0  0
 24 26  1  0  0  0  0
 26 27  1  1  0  0  0
 26 28  1  0  0  0  0
 28 29  1  0  0  0  0
 28 30  1  6  0  0  0
 30 31  1  0  0  0  0
 34 39  1  0  0  0  0
 35 36  2  0  0  0  0
 37 35  1  6  0  0  0
 37 38  1  0  0  0  0
 37 40  1  0  0  0  0
 38 39  1  0  0  0  0
M  END
>  <CHROM.1>
174.51082856,-179.09913164,-81.20846333,55.60390748,176.77419423,-67.61529499
-168.82039711,54.48707275,-174.29075363,65.35035872,2.38299830,-11.00200698
15.81485635,-0.60342918,0.85415694,1.63157029

>  <Name>
2g5q_lig

>  <RI>
2.90231e+07

>  <Rbt.Current_Directory>
/home/itssahil/PROJECTS/Mol_Feturizer/New_Systems/rnas/2g5q

>  <Rbt.Executable>
rbdock ($Id: //depot/dev/client3/rdock/2013.1/src/exe/rbdock.cxx#4 $)

>  <Rbt.Library>
libRbt.so (2013.1, Build901 2013/11/27)

>  <Rbt.Parameter_File>
/export/apps/rDock/src/rDock_2013.1_src/data/scripts/dock_solv.prm

>  <Rbt.Receptor>
prm/pocket_docking_6.prm

>  <SCORE>
-18.4428

>  <SCORE.INTER>
-11.0534

>  <SCORE.INTER.CONST>
1

>  <SCORE.INTER.POLAR>
-1.93637

>  <SCORE.INTER.ROT>
10

>  <SCORE.INTER.SOLV>
13.8201

>  <SCORE.INTER.VDW>
-15.7877

>  <SCORE.INTER.norm>
-0.276334

>  <SCORE.INTRA>
-7.39365

>  <SCORE.INTRA.DIHEDRAL>
-20.1506

>  <SCORE.INTRA.DIHEDRAL.0>
22.5778

>  <SCORE.INTRA.POLAR>
0

>  <SCORE.INTRA.POLAR.0>
0

>  <SCORE.INTRA.REPUL>
0

>  <SCORE.INTRA.REPUL.0>
0

>  <SCORE.INTRA.SOLV>
5.33249

>  <SCORE.INTRA.SOLV.lig_0>
-102.332

>  <SCORE.INTRA.VDW>
0.0154273

>  <SCORE.INTRA.VDW.0>
-5.08747

>  <SCORE.INTRA.norm>
-0.184841

>  <SCORE.RESTR>
0.00420582

>  <SCORE.RESTR.CAVITY>
0.00420582

>  <SCORE.RESTR.norm>
0.000105146

>  <SCORE.SYSTEM>
0

>  <SCORE.SYSTEM.CONST>
0

>  <SCORE.SYSTEM.DIHEDRAL>
0

>  <SCORE.SYSTEM.SOLV>
0

>  <SCORE.SYSTEM.norm>
0

>  <SCORE.heavy>
40

>  <SCORE.norm>
-0.46107

>  <RMSD>
6.916

$$$$
2g5q_lig
 OpenBabel11021811433D
libRbt.so/2013.1/901 2013/11/27
 40 42  0  0  0  0  0  0  0  0999 V2000
    5.7186   -3.4447   23.6816 C   0  0  2  0  0  0  0  0  0  0  0  0
    4.7241   -4.4096   23.4186 O   0  0  0  0  0  0  0  0  0  0  0  0
    5.9015   -3.3195   25.2230 C   0  0  1  0  0  0  0  0  0  0  0  0
    4.6361   -2.7217   25.9123 C   0  0  2  0  0  0  0  0  0  0  0  0
    4.3809   -1.3195   25.3009 C   0  0  2  0  0  0  0  0  0  0  0  0
    3.2334   -0.7244   25.9281 O   0  0  0  0  0  0  0  0  0  0  0  0
    4.1552   -1.4907   23.7440 C   0  0  2  0  0  0  0  0  0  0  0  0
    5.3558   -2.1168   23.1200 O   0  0  0  0  0  0  0  0  0  0  0  0
    3.9075   -0.1639   23.0342 C   0  0  0  0  0  0  0  0  0  0  0  0
    3.4164   -0.3594   21.6334 N   0  0  0  0  0  0  0  0  0  0  0  0
    2.9882   -6.5278   20.0160 C   0  0  2  0  0  0  0  0  0  0  0  0
    2.8547   -7.1876   18.7227 N   0  0  0  0  0  0  0  0  0  0  0  0
    3.4543   -5.0244   19.8193 C   0  0  0  0  0  0  0  0  0  0  0  0
    3.5933   -4.3036   21.2177 C   0  0  2  0  0  0  0  0  0  0  0  0
    4.0199   -2.8921   21.0189 N   0  0  0  0  0  0  0  0  0  0  0  0
    4.6232   -5.0946   22.1187 C   0  0  2  0  0  0  0  0  0  0  0  0
    4.1282   -6.5857   22.2879 C   0  0  2  0  0  0  0  0  0  0  0  0
    5.0654   -7.3015   23.0987 O   0  0  0  0  0  0  0  0  0  0  0  0
    4.0113   -7.2906   20.8828 C   0  0  1  0  0  0  0  0  0  0  0  0
    3.5435   -8.6597   21.0407 O   0  0  0  0  0  0  0  0  0  0  0  0
    4.2776   -9.6772   21.6762 C   0  0  2  0  0  0  0  0  0  0  0  0
    4.1130  -10.9790   20.8210 C   0  0  2  0  0  0  0  0  0  0  0  0
    4.5999  -10.7561   19.5366 O   0  0  0  0  0  0  0  0  0  0  0  0
    2.6090  -11.4468   20.7801 C   0  0  1  0  0  0  0  0  0  0  0  0
    2.4417  -12.6961   19.9668 N   0  0  0  0  0  0  0  0  0  0  0  0
    2.1197  -11.6754   22.2653 C   0  0  2  0  0  0  0  0  0  0  0  0
    0.7586  -12.1098   22.2926 O   0  0  0  0  0  0  0  0  0  0  0  0
    2.3081  -10.3414   23.0638 C   0  0  2  0  0  0  0  0  0  0  0  0
    3.7425   -9.8926   23.0325 O   0  0  0  0  0  0  0  0  0  0  0  0
    1.8923  -10.4885   24.4988 C   0  0  0  0  0  0  0  0  0  0  0  0
    0.4834  -10.7483   24.6097 O   0  0  0  0  0  0  0  0  0  0  0  0
    6.2170   -4.6499   25.7602 O   0  0  0  0  0  0  0  0  0  0  0  0
    4.8574   -2.6213   27.2681 O   0  0  0  0  0  0  0  0  0  0  0  0
    0.7672  -10.8841   15.1553 N   0  0  0  0  0  0  0  0  0  0  0  0
    1.7694   -7.9550   18.3234 C   0  0  0  0  0  0  0  0  0  0  0  0
    0.7900   -8.1730   19.0281 O   0  0  0  0  0  0  0  0  0  0  0  0
    1.9401   -8.5204   16.8946 C   0  0  1  0  0  0  0  0  0  0  0  0
    0.5652   -8.6442   16.2074 C   0  0  0  0  0  0  0  0  0  0  0  0
    0.5384   -9.4615   14.9106 C   0  0  0  0  0  0  0  0  0  0  0  0
    2.8164   -7.6505   16.1431 O   0  0  0  0  0  0  0  0  0  0  0  0
  1  2  1  1  0  0  0
  1  3  1  0  0  0  0
  1  8  1  0  0  0  0
  3  4  1  0  0  0  0
  3 32  1  1  0  0  0
  4  5  1  0  0  0  0
  4 33  1  1  0  0  0
  5  6  1  1  0  0  0
  5  7  1  0  0  0  0
  7  8  1  0  0  0  0
  7  9  1  6  0  0  0
  9 10  1  0  0  0  0
 11 12  1  6  0  0  0
 11 13  1  0  0  0  0
 11 19  1  0  0  0  0
 12 35  1  0  0  0  0
 13 14  1  0  0  0  0
 14 15  1  6  0  0  0
 14 16  1  0  0  0  0
 16  2  1  1  0  0  0
 16 17  1  0  0  0  0
 17 18  1  1  0  0  0
 17 19  1  0  0  0  0
 19 20  1  1  0  0  0
 21 20  1  6  0  0  0
 21 22  1  0  0  0  0
 21 29  1  0  0  0  0
 22 23  1  6  0  0  0
 22 24  1  0  0  0  0
 24 25  1  6  0  0  0
 24 26  1  0  0  0  0
 26 27  1  6  0  0  0
 26 28  1  0  0  0  0
 28 29  1  0  0  0  0
 28 30  1  1  0  0  0
 30 31  1  0  0  0  0
 34 39  1  0  0  0  0
 35 36  2  0  0  0  0
 37 35  1  1  0  0  0
 37 38  1  0  0  0  0
 37 40  1  0  0  0  0
 38 39  1  0  0  0  0
M  END
>  <CHROM.1>
-158.80926324,-168.05407692,-132.58916393,-93.99844077,174.38617391,-138.16279283
-64.90457369,-148.33034801,-167.44986442,69.00705862,3.33403634,-6.76628234
21.62708538,0.29252658,-1.28861028,-0.66786924

>  <Name>
2g5q_lig

>  <RI>
224

>  <Rbt.Current_Directory>
/home/itssahil/PROJECTS/Mol_Feturizer/New_Systems/rnas/2g5q

>  <Rbt.Executable>
rbdock ($Id: //depot/dev/client3/rdock/2013.1/src/exe/rbdock.cxx#4 $)

>  <Rbt.Library>
libRbt.so (2013.1, Build901 2013/11/27)

>  <Rbt.Parameter_File>
/export/apps/rDock/src/rDock_2013.1_src/data/scripts/dock_solv.prm

>  <Rbt.Receptor>
prm/pocket_docking_8.prm

>  <SCORE>
-16.9814

>  <SCORE.INTER>
-17.0827

>  <SCORE.INTER.CONST>
1

>  <SCORE.INTER.POLAR>
-1.22991

>  <SCORE.INTER.ROT>
10

>  <SCORE.INTER.SOLV>
16.0787

>  <SCORE.INTER.VDW>
-22.915

>  <SCORE.INTER.norm>
-0.427066

>  <SCORE.INTRA>
0.0447381

>  <SCORE.INTRA.DIHEDRAL>
-6.15794

>  <SCORE.INTRA.DIHEDRAL.0>
22.5778

>  <SCORE.INTRA.POLAR>
0

>  <SCORE.INTRA.POLAR.0>
0

>  <SCORE.INTRA.REPUL>
0

>  <SCORE.INTRA.REPUL.0>
0

>  <SCORE.INTRA.SOLV>
5.28101

>  <SCORE.INTRA.SOLV.lig_0>
-102.332

>  <SCORE.INTRA.VDW>
0.483202

>  <SCORE.INTRA.VDW.0>
-5.08747

>  <SCORE.INTRA.norm>
0.00111845

>  <SCORE.RESTR>
0.0564848

>  <SCORE.RESTR.CAVITY>
0.0564848

>  <SCORE.RESTR.norm>
0.00141212

>  <SCORE.SYSTEM>
0

>  <SCORE.SYSTEM.CONST>
0

>  <SCORE.SYSTEM.DIHEDRAL>
0

>  <SCORE.SYSTEM.SOLV>
0

>  <SCORE.SYSTEM.norm>
0

>  <SCORE.heavy>
40

>  <SCORE.norm>
-0.424536

>  <RMSD>
6.965

$$$$
2g5q_lig
 OpenBabel11021811433D
libRbt.so/2013.1/901 2013/11/27
 40 42  0  0  0  0  0  0  0  0999 V2000
    5.0053   -3.6897   23.3410 C   0  0  2  0  0  0  0  0  0  0  0  0
    3.8848   -4.0596   22.5683 O   0  0  0  0  0  0  0  0  0  0  0  0
    4.7001   -3.9817   24.8398 C   0  0  1  0  0  0  0  0  0  0  0  0
    3.5683   -3.0616   25.3930 C   0  0  2  0  0  0  0  0  0  0  0  0
    4.0316   -1.5905   25.2313 C   0  0  2  0  0  0  0  0  0  0  0  0
    3.0230   -0.7098   25.7522 O   0  0  0  0  0  0  0  0  0  0  0  0
    4.2885   -1.3174   23.6939 C   0  0  2  0  0  0  0  0  0  0  0  0
    5.3320   -2.2486   23.1775 O   0  0  0  0  0  0  0  0  0  0  0  0
    4.7648    0.1049   23.4187 C   0  0  0  0  0  0  0  0  0  0  0  0
    3.6484    1.0985   23.5088 N   0  0  0  0  0  0  0  0  0  0  0  0
    3.2209   -7.2548   19.6654 C   0  0  2  0  0  0  0  0  0  0  0  0
    3.3082   -8.0567   18.4508 N   0  0  0  0  0  0  0  0  0  0  0  0
    2.7010   -5.7958   19.3234 C   0  0  0  0  0  0  0  0  0  0  0  0
    2.5981   -4.9259   20.6376 C   0  0  2  0  0  0  0  0  0  0  0  0
    2.0990   -3.5642   20.3049 N   0  0  0  0  0  0  0  0  0  0  0  0
    4.0119   -4.8646   21.3415 C   0  0  2  0  0  0  0  0  0  0  0  0
    4.4975   -6.3337   21.6620 C   0  0  2  0  0  0  0  0  0  0  0  0
    5.7804   -6.2761   22.2935 O   0  0  0  0  0  0  0  0  0  0  0  0
    4.6081   -7.1793   20.3362 C   0  0  1  0  0  0  0  0  0  0  0  0
    5.0437   -8.5354   20.6356 O   0  0  0  0  0  0  0  0  0  0  0  0
    4.5949   -9.2841   21.7384 C   0  0  2  0  0  0  0  0  0  0  0  0
    5.4201  -10.6151   21.7692 C   0  0  2  0  0  0  0  0  0  0  0  0
    6.7738  -10.3199   21.8986 O   0  0  0  0  0  0  0  0  0  0  0  0
    5.1529  -11.4804   20.4799 C   0  0  1  0  0  0  0  0  0  0  0  0
    5.9355  -12.7599   20.5022 N   0  0  0  0  0  0  0  0  0  0  0  0
    3.6025  -11.7733   20.3912 C   0  0  2  0  0  0  0  0  0  0  0  0
    3.2980  -12.5644   19.2407 O   0  0  0  0  0  0  0  0  0  0  0  0
    2.8372  -10.4073   20.3620 C   0  0  2  0  0  0  0  0  0  0  0  0
    3.1607   -9.5823   21.5764 O   0  0  0  0  0  0  0  0  0  0  0  0
    1.3499  -10.6039   20.3093 C   0  0  0  0  0  0  0  0  0  0  0  0
    0.6601   -9.3462   20.2234 O   0  0  0  0  0  0  0  0  0  0  0  0
    4.3390   -5.3998   24.9698 O   0  0  0  0  0  0  0  0  0  0  0  0
    3.3495   -3.3528   26.7215 O   0  0  0  0  0  0  0  0  0  0  0  0
    2.3456  -11.0365   14.8417 N   0  0  0  0  0  0  0  0  0  0  0  0
    4.4020   -8.1017   17.5977 C   0  0  0  0  0  0  0  0  0  0  0  0
    5.4301   -7.4561   17.7696 O   0  0  0  0  0  0  0  0  0  0  0  0
    4.1735   -9.0453   16.3945 C   0  0  1  0  0  0  0  0  0  0  0  0
    3.6081  -10.3949   16.8811 C   0  0  0  0  0  0  0  0  0  0  0  0
    3.3732  -11.4508   15.7947 C   0  0  0  0  0  0  0  0  0  0  0  0
    3.2684   -8.4124   15.4620 O   0  0  0  0  0  0  0  0  0  0  0  0
  1  2  1  6  0  0  0
  1  3  1  0  0  0  0
  1  8  1  0  0  0  0
  3  4  1  0  0  0  0
  3 32  1  6  0  0  0
  4  5  1  0  0  0  0
  4 33  1  1  0  0  0
  5  6  1  6  0  0  0
  5  7  1  0  0  0  0
  7  8  1  0  0  0  0
  7  9  1  1  0  0  0
  9 10  1  0  0  0  0
 11 12  1  6  0  0  0
 11 13  1  0  0  0  0
 11 19  1  0  0  0  0
 12 35  1  0  0  0  0
 13 14  1  0  0  0  0
 14 15  1  6  0  0  0
 14 16  1  0  0  0  0
 16  2  1  1  0  0  0
 16 17  1  0  0  0  0
 17 18  1  6  0  0  0
 17 19  1  0  0  0  0
 19 20  1  1  0  0  0
 21 20  1  6  0  0  0
 21 22  1  0  0  0  0
 21 29  1  0  0  0  0
 22 23  1  6  0  0  0
 22 24  1  0  0  0  0
 24 25  1  1  0  0  0
 24 26  1  0  0  0  0
 26 27  1  6  0  0  0
 26 28  1  0  0  0  0
 28 29  1  0  0  0  0
 28 30  1  1  0  0  0
 30 31  1  0  0  0  0
 34 39  1  0  0  0  0
 35 36  2  0  0  0  0
 37 35  1  1  0  0  0
 37 38  1  0  0  0  0
 37 40  1  0  0  0  0
 38 39  1  0  0  0  0
M  END
>  <CHROM.1>
-132.79131049,-75.76577911,86.71597764,-172.60370466,-79.15774106,-174.10886743
-177.44891287,-47.61367572,-178.10959677,-64.52207638,3.92991587,-6.88798345
21.03689880,-1.45344009,1.30768308,-2.64839301

>  <Name>
2g5q_lig

>  <RI>
2.90231e+07

>  <Rbt.Current_Directory>
/home/itssahil/PROJECTS/Mol_Feturizer/New_Systems/rnas/2g5q

>  <Rbt.Executable>
rbdock ($Id: //depot/dev/client3/rdock/2013.1/src/exe/rbdock.cxx#4 $)

>  <Rbt.Library>
libRbt.so (2013.1, Build901 2013/11/27)

>  <Rbt.Parameter_File>
/export/apps/rDock/src/rDock_2013.1_src/data/scripts/dock_solv.prm

>  <Rbt.Receptor>
prm/pocket_docking_6.prm

>  <SCORE>
-19.867

>  <SCORE.INTER>
-15.1014

>  <SCORE.INTER.CONST>
1

>  <SCORE.INTER.POLAR>
-1.2863

>  <SCORE.INTER.ROT>
10

>  <SCORE.INTER.SOLV>
15.5309

>  <SCORE.INTER.VDW>
-21.2236

>  <SCORE.INTER.norm>
-0.377534

>  <SCORE.INTRA>
-4.76642

>  <SCORE.INTRA.DIHEDRAL>
-11.6078

>  <SCORE.INTRA.DIHEDRAL.0>
22.5778

>  <SCORE.INTRA.POLAR>
0

>  <SCORE.INTRA.POLAR.0>
0

>  <SCORE.INTRA.REPUL>
0

>  <SCORE.INTRA.REPUL.0>
0

>  <SCORE.INTRA.SOLV>
2.81808

>  <SCORE.INTRA.SOLV.lig_0>
-102.332

>  <SCORE.INTRA.VDW>
-0.371538

>  <SCORE.INTRA.VDW.0>
-5.08747

>  <SCORE.INTRA.norm>
-0.119161

>  <SCORE.RESTR>
0.000796397

>  <SCORE.RESTR.CAVITY>
0.000796397

>  <SCORE.RESTR.norm>
1.99099e-05

>  <SCORE.SYSTEM>
0

>  <SCORE.SYSTEM.CONST>
0

>  <SCORE.SYSTEM.DIHEDRAL>
0

>  <SCORE.SYSTEM.SOLV>
0

>  <SCORE.SYSTEM.norm>
0

>  <SCORE.heavy>
40

>  <SCORE.norm>
-0.496675

>  <RMSD>
6.993

$$$$
2g5q_lig
 OpenBabel11021811433D
libRbt.so/2013.1/901 2013/11/27
 40 42  0  0  0  0  0  0  0  0999 V2000
    2.9811   -9.7596   12.3721 C   0  0  2  0  0  0  0  0  0  0  0  0
    3.1452  -10.7801   13.3318 O   0  0  0  0  0  0  0  0  0  0  0  0
    3.5954  -10.2359   11.0228 C   0  0  1  0  0  0  0  0  0  0  0  0
    5.1449  -10.3929   11.1123 C   0  0  2  0  0  0  0  0  0  0  0  0
    5.7397   -9.0139   11.4991 C   0  0  2  0  0  0  0  0  0  0  0  0
    7.1714   -9.1116   11.5693 O   0  0  0  0  0  0  0  0  0  0  0  0
    5.1284   -8.5836   12.8938 C   0  0  2  0  0  0  0  0  0  0  0  0
    3.6432   -8.4977   12.7955 O   0  0  0  0  0  0  0  0  0  0  0  0
    5.6370   -7.2262   13.3675 C   0  0  0  0  0  0  0  0  0  0  0  0
    5.3489   -6.9934   14.8182 N   0  0  0  0  0  0  0  0  0  0  0  0
   -0.7674  -10.8596   15.2717 C   0  0  2  0  0  0  0  0  0  0  0  0
   -1.8674  -11.2497   16.1455 N   0  0  0  0  0  0  0  0  0  0  0  0
   -0.3608  -12.0684   14.3286 C   0  0  0  0  0  0  0  0  0  0  0  0
    0.8260  -11.6478   13.3751 C   0  0  2  0  0  0  0  0  0  0  0  0
    1.1901  -12.7861   12.4886 N   0  0  0  0  0  0  0  0  0  0  0  0
    2.0595  -11.1777   14.2442 C   0  0  2  0  0  0  0  0  0  0  0  0
    1.6153   -9.9780   15.1717 C   0  0  2  0  0  0  0  0  0  0  0  0
    2.7320   -9.5582   15.9621 O   0  0  0  0  0  0  0  0  0  0  0  0
    0.4416  -10.4234   16.1250 C   0  0  1  0  0  0  0  0  0  0  0  0
    0.0262   -9.3132   16.9694 O   0  0  0  0  0  0  0  0  0  0  0  0
   -0.8644   -9.4334   18.0513 C   0  0  2  0  0  0  0  0  0  0  0  0
   -0.8164   -8.0873   18.8506 C   0  0  2  0  0  0  0  0  0  0  0  0
   -1.1983   -7.0389   18.0189 O   0  0  0  0  0  0  0  0  0  0  0  0
    0.6169   -7.8344   19.4540 C   0  0  1  0  0  0  0  0  0  0  0  0
    0.6718   -6.5492   20.2256 N   0  0  0  0  0  0  0  0  0  0  0  0
    0.9891   -9.0600   20.3796 C   0  0  2  0  0  0  0  0  0  0  0  0
    2.2813   -8.8838   20.9639 O   0  0  0  0  0  0  0  0  0  0  0  0
    0.9248  -10.3698   19.5234 C   0  0  2  0  0  0  0  0  0  0  0  0
   -0.4379  -10.5492   18.9145 O   0  0  0  0  0  0  0  0  0  0  0  0
    1.2373  -11.5870   20.3446 C   0  0  0  0  0  0  0  0  0  0  0  0
    1.2756  -12.7702   19.5300 O   0  0  0  0  0  0  0  0  0  0  0  0
    2.9567  -11.5043   10.6467 O   0  0  0  0  0  0  0  0  0  0  0  0
    5.6352  -10.8019    9.8917 O   0  0  0  0  0  0  0  0  0  0  0  0
   -7.4566  -10.4188   15.7539 N   0  0  0  0  0  0  0  0  0  0  0  0
   -3.1412  -11.6013   15.7214 C   0  0  0  0  0  0  0  0  0  0  0  0
   -3.4908  -11.6160   14.5463 O   0  0  0  0  0  0  0  0  0  0  0  0
   -4.0781  -11.9568   16.8988 C   0  0  1  0  0  0  0  0  0  0  0  0
   -5.3313  -11.0587   16.8667 C   0  0  0  0  0  0  0  0  0  0  0  0
   -6.2542  -11.2438   15.6566 C   0  0  0  0  0  0  0  0  0  0  0  0
   -4.4412  -13.3530   16.8097 O   0  0  0  0  0  0  0  0  0  0  0  0
  1  2  1  1  0  0  0
  1  3  1  0  0  0  0
  1  8  1  0  0  0  0
  3  4  1  0  0  0  0
  3 32  1  1  0  0  0
  4  5  1  0  0  0  0
  4 33  1  6  0  0  0
  5  6  1  1  0  0  0
  5  7  1  0  0  0  0
  7  8  1  0  0  0  0
  7  9  1  6  0  0  0
  9 10  1  0  0  0  0
 11 12  1  1  0  0  0
 11 13  1  0  0  0  0
 11 19  1  0  0  0  0
 12 35  1  0  0  0  0
 13 14  1  0  0  0  0
 14 15  1  1  0  0  0
 14 16  1  0  0  0  0
 16  2  1  6  0  0  0
 16 17  1  0  0  0  0
 17 18  1  1  0  0  0
 17 19  1  0  0  0  0
 19 20  1  1  0  0  0
 21 20  1  6  0  0  0
 21 22  1  0  0  0  0
 21 29  1  0  0  0  0
 22 23  1  6  0  0  0
 22 24  1  0  0  0  0
 24 25  1  1  0  0  0
 24 26  1  0  0  0  0
 26 27  1  6  0  0  0
 26 28  1  0  0  0  0
 28 29  1  0  0  0  0
 28 30  1  1  0  0  0
 30 31  1  0  0  0  0
 34 39  1  0  0  0  0
 35 36  2  0  0  0  0
 37 35  1  6  0  0  0
 37 38  1  0  0  0  0
 37 40  1  0  0  0  0
 38 39  1  0  0  0  0
M  END
>  <CHROM.1>
-135.67067022,-164.94843541,-63.73574804,58.76033725,69.84637111,168.94071034
-175.60456186,123.07379336,64.97758913,176.21059982,0.83859454,-10.14222130
15.54405952,0.55329745,-0.34607969,-1.89255920

>  <Name>
2g5q_lig

>  <RI>
0

>  <Rbt.Current_Directory>
/home/itssahil/PROJECTS/Mol_Feturizer/New_Systems/rnas/2g5q

>  <Rbt.Executable>
rbdock ($Id: //depot/dev/client3/rdock/2013.1/src/exe/rbdock.cxx#4 $)

>  <Rbt.Library>
libRbt.so (2013.1, Build901 2013/11/27)

>  <Rbt.Parameter_File>
/export/apps/rDock/src/rDock_2013.1_src/data/scripts/dock_solv.prm

>  <Rbt.Receptor>
prm/pocket_docking_5.prm

>  <SCORE>
-17.8499

>  <SCORE.INTER>
-13.1115

>  <SCORE.INTER.CONST>
1

>  <SCORE.INTER.POLAR>
-2.32198

>  <SCORE.INTER.ROT>
10

>  <SCORE.INTER.SOLV>
22.1457

>  <SCORE.INTER.VDW>
-18.6496

>  <SCORE.INTER.norm>
-0.327788

>  <SCORE.INTRA>
-4.79968

>  <SCORE.INTRA.DIHEDRAL>
-12.002

>  <SCORE.INTRA.DIHEDRAL.0>
22.5778

>  <SCORE.INTRA.POLAR>
0

>  <SCORE.INTRA.POLAR.0>
0

>  <SCORE.INTRA.REPUL>
0

>  <SCORE.INTRA.REPUL.0>
0

>  <SCORE.INTRA.SOLV>
0.737015

>  <SCORE.INTRA.SOLV.lig_0>
-102.332

>  <SCORE.INTRA.VDW>
0.832816

>  <SCORE.INTRA.VDW.0>
-5.08747

>  <SCORE.INTRA.norm>
-0.119992

>  <SCORE.RESTR>
0.0613162

>  <SCORE.RESTR.CAVITY>
0.0613162

>  <SCORE.RESTR.norm>
0.00153291

>  <SCORE.SYSTEM>
0

>  <SCORE.SYSTEM.CONST>
0

>  <SCORE.SYSTEM.DIHEDRAL>
0

>  <SCORE.SYSTEM.SOLV>
0

>  <SCORE.SYSTEM.norm>
0

>  <SCORE.heavy>
40

>  <SCORE.norm>
-0.446247

>  <RMSD>
7.032

$$$$
2g5q_lig
 OpenBabel11021811433D
libRbt.so/2013.1/901 2013/11/27
 40 42  0  0  0  0  0  0  0  0999 V2000
    3.4160   -6.7039   19.1808 C   0  0  2  0  0  0  0  0  0  0  0  0
    4.5884   -7.0504   18.4772 O   0  0  0  0  0  0  0  0  0  0  0  0
    3.7478   -5.5494   20.1716 C   0  0  1  0  0  0  0  0  0  0  0  0
    4.7162   -6.0140   21.3030 C   0  0  2  0  0  0  0  0  0  0  0  0
    4.0303   -7.1766   22.0664 C   0  0  2  0  0  0  0  0  0  0  0  0
    4.8836   -7.6185   23.1346 O   0  0  0  0  0  0  0  0  0  0  0  0
    3.7497   -8.3472   21.0393 C   0  0  2  0  0  0  0  0  0  0  0  0
    2.8698   -7.8604   19.9385 O   0  0  0  0  0  0  0  0  0  0  0  0
    3.0598   -9.5449   21.6836 C   0  0  0  0  0  0  0  0  0  0  0  0
    2.8451  -10.6609   20.7088 N   0  0  0  0  0  0  0  0  0  0  0  0
    6.2172  -10.1148   15.8251 C   0  0  2  0  0  0  0  0  0  0  0  0
    6.3712  -11.3644   15.0900 N   0  0  0  0  0  0  0  0  0  0  0  0
    6.1877  -10.3964   17.3858 C   0  0  0  0  0  0  0  0  0  0  0  0
    6.0282   -9.0443   18.1864 C   0  0  2  0  0  0  0  0  0  0  0  0
    6.0132   -9.3210   19.6483 N   0  0  0  0  0  0  0  0  0  0  0  0
    4.7058   -8.3115   17.7257 C   0  0  2  0  0  0  0  0  0  0  0  0
    4.7701   -8.0525   16.1683 C   0  0  2  0  0  0  0  0  0  0  0  0
    3.5691   -7.3946   15.7524 O   0  0  0  0  0  0  0  0  0  0  0  0
    4.9136   -9.4148   15.3883 C   0  0  1  0  0  0  0  0  0  0  0  0
    4.9851   -9.1724   13.9550 O   0  0  0  0  0  0  0  0  0  0  0  0
    5.6300   -8.0669   13.3718 C   0  0  2  0  0  0  0  0  0  0  0  0
    5.6884   -8.3187   11.8270 C   0  0  2  0  0  0  0  0  0  0  0  0
    4.3959   -8.4483   11.3279 O   0  0  0  0  0  0  0  0  0  0  0  0
    6.5527   -9.5923   11.4902 C   0  0  1  0  0  0  0  0  0  0  0  0
    6.6185   -9.8393   10.0120 N   0  0  0  0  0  0  0  0  0  0  0  0
    8.0003   -9.3820   12.0881 C   0  0  2  0  0  0  0  0  0  0  0  0
    8.8364  -10.5064   11.8070 O   0  0  0  0  0  0  0  0  0  0  0  0
    7.8730   -9.1381   13.6299 C   0  0  2  0  0  0  0  0  0  0  0  0
    6.9944   -7.9526   13.9171 O   0  0  0  0  0  0  0  0  0  0  0  0
    9.2107   -8.8978   14.2674 C   0  0  0  0  0  0  0  0  0  0  0  0
    9.9529  -10.1211   14.3997 O   0  0  0  0  0  0  0  0  0  0  0  0
    4.3247   -4.4357   19.4067 O   0  0  0  0  0  0  0  0  0  0  0  0
    4.9642   -4.9604   22.1551 O   0  0  0  0  0  0  0  0  0  0  0  0
    5.4969  -16.1150   15.7829 N   0  0  0  0  0  0  0  0  0  0  0  0
    5.3897  -12.3351   14.9461 C   0  0  0  0  0  0  0  0  0  0  0  0
    4.2686  -12.2516   15.4354 O   0  0  0  0  0  0  0  0  0  0  0  0
    5.8734  -13.5444   14.1129 C   0  0  1  0  0  0  0  0  0  0  0  0
    4.7407  -14.5826   13.9816 C   0  0  0  0  0  0  0  0  0  0  0  0
    4.3739  -15.3360   15.2654 C   0  0  0  0  0  0  0  0  0  0  0  0
    6.3029  -13.0817   12.8126 O   0  0  0  0  0  0  0  0  0  0  0  0
  1  2  1  1  0  0  0
  1  3  1  0  0  0  0
  1  8  1  0  0  0  0
  3  4  1  0  0  0  0
  3 32  1  6  0  0  0
  4  5  1  0  0  0  0
  4 33  1  1  0  0  0
  5  6  1  1  0  0  0
  5  7  1  0  0  0  0
  7  8  1  0  0  0  0
  7  9  1  1  0  0  0
  9 10  1  0  0  0  0
 11 12  1  6  0  0  0
 11 13  1  0  0  0  0
 11 19  1  0  0  0  0
 12 35  1  0  0  0  0
 13 14  1  0  0  0  0
 14 15  1  1  0  0  0
 14 16  1  0  0  0  0
 16  2  1  1  0  0  0
 16 17  1  0  0  0  0
 17 18  1  6  0  0  0
 17 19  1  0  0  0  0
 19 20  1  6  0  0  0
 21 20  1  1  0  0  0
 21 22  1  0  0  0  0
 21 29  1  0  0  0  0
 22 23  1  1  0  0  0
 22 24  1  0  0  0  0
 24 25  1  6  0  0  0
 24 26  1  0  0  0  0
 26 27  1  1  0  0  0
 26 28  1  0  0  0  0
 28 29  1  0  0  0  0
 28 30  1  6  0  0  0
 30 31  1  0  0  0  0
 34 39  1  0  0  0  0
 35 36  2  0  0  0  0
 37 35  1  1  0  0  0
 37 38  1  0  0  0  0
 37 40  1  0  0  0  0
 38 39  1  0  0  0  0
M  END
>  <CHROM.1>
164.09727824,-178.01024108,72.14762733,-128.14206213,-83.47918307,170.30697011
-75.37864096,-179.69611895,-69.87824504,-61.46566376,5.43196594,-9.37449300
16.37275782,-2.39904769,-1.20571094,-2.83426156

>  <Name>
2g5q_lig

>  <RI>
224

>  <Rbt.Current_Directory>
/home/itssahil/PROJECTS/Mol_Feturizer/New_Systems/rnas/2g5q

>  <Rbt.Executable>
rbdock ($Id: //depot/dev/client3/rdock/2013.1/src/exe/rbdock.cxx#4 $)

>  <Rbt.Library>
libRbt.so (2013.1, Build901 2013/11/27)

>  <Rbt.Parameter_File>
/export/apps/rDock/src/rDock_2013.1_src/data/scripts/dock_solv.prm

>  <Rbt.Receptor>
prm/pocket_docking_8.prm

>  <SCORE>
-11.6567

>  <SCORE.INTER>
-10.3174

>  <SCORE.INTER.CONST>
1

>  <SCORE.INTER.POLAR>
-0.898729

>  <SCORE.INTER.ROT>
10

>  <SCORE.INTER.SOLV>
13.1215

>  <SCORE.INTER.VDW>
-18.523

>  <SCORE.INTER.norm>
-0.257934

>  <SCORE.INTRA>
-1.34208

>  <SCORE.INTRA.DIHEDRAL>
-9.59002

>  <SCORE.INTRA.DIHEDRAL.0>
22.5778

>  <SCORE.INTRA.POLAR>
0

>  <SCORE.INTRA.POLAR.0>
0

>  <SCORE.INTRA.REPUL>
0

>  <SCORE.INTRA.REPUL.0>
0

>  <SCORE.INTRA.SOLV>
6.24321

>  <SCORE.INTRA.SOLV.lig_0>
-102.332

>  <SCORE.INTRA.VDW>
0.331332

>  <SCORE.INTRA.VDW.0>
-5.08747

>  <SCORE.INTRA.norm>
-0.0335519

>  <SCORE.RESTR>
0.0027276

>  <SCORE.RESTR.CAVITY>
0.0027276

>  <SCORE.RESTR.norm>
6.819e-05

>  <SCORE.SYSTEM>
0

>  <SCORE.SYSTEM.CONST>
0

>  <SCORE.SYSTEM.DIHEDRAL>
0

>  <SCORE.SYSTEM.SOLV>
0

>  <SCORE.SYSTEM.norm>
0

>  <SCORE.heavy>
40

>  <SCORE.norm>
-0.291418

>  <RMSD>
7.050

$$$$
2g5q_lig
 OpenBabel11021811433D
libRbt.so/2013.1/901 2013/11/27
 40 42  0  0  0  0  0  0  0  0999 V2000
   -1.6693   -8.4160   18.8230 C   0  0  2  0  0  0  0  0  0  0  0  0
   -1.1627   -9.6002   18.2481 O   0  0  0  0  0  0  0  0  0  0  0  0
   -2.0245   -8.6936   20.3135 C   0  0  1  0  0  0  0  0  0  0  0  0
   -3.2149   -9.6924   20.4516 C   0  0  2  0  0  0  0  0  0  0  0  0
   -4.4396   -9.0733   19.7293 C   0  0  2  0  0  0  0  0  0  0  0  0
   -5.5667   -9.9556   19.8542 O   0  0  0  0  0  0  0  0  0  0  0  0
   -4.0577   -8.8474   18.2103 C   0  0  2  0  0  0  0  0  0  0  0  0
   -2.8821   -7.9360   18.1096 O   0  0  0  0  0  0  0  0  0  0  0  0
   -5.1921   -8.2253   17.4029 C   0  0  0  0  0  0  0  0  0  0  0  0
   -5.5381   -6.8513   17.8866 N   0  0  0  0  0  0  0  0  0  0  0  0
    1.0601  -10.8196   14.6915 C   0  0  2  0  0  0  0  0  0  0  0  0
    1.4999  -10.9188   13.3049 N   0  0  0  0  0  0  0  0  0  0  0  0
   -0.4663  -11.2330   14.8138 C   0  0  0  0  0  0  0  0  0  0  0  0
   -0.9449  -11.1338   16.3157 C   0  0  2  0  0  0  0  0  0  0  0  0
   -2.3742  -11.5346   16.4185 N   0  0  0  0  0  0  0  0  0  0  0  0
   -0.7207   -9.6614   16.8445 C   0  0  2  0  0  0  0  0  0  0  0  0
    0.8074   -9.2848   16.7028 C   0  0  2  0  0  0  0  0  0  0  0  0
    1.0069   -7.9491   17.1763 O   0  0  0  0  0  0  0  0  0  0  0  0
    1.2599   -9.3753   15.1955 C   0  0  1  0  0  0  0  0  0  0  0  0
    2.6706   -9.0400   15.0695 O   0  0  0  0  0  0  0  0  0  0  0  0
    3.6551   -9.4000   16.0072 C   0  0  2  0  0  0  0  0  0  0  0  0
    5.0232   -8.8396   15.4900 C   0  0  2  0  0  0  0  0  0  0  0  0
    4.9442   -7.4552   15.3732 O   0  0  0  0  0  0  0  0  0  0  0  0
    5.4257   -9.4989   14.1167 C   0  0  1  0  0  0  0  0  0  0  0  0
    6.7375   -8.9717   13.6152 N   0  0  0  0  0  0  0  0  0  0  0  0
    5.4913  -11.0649   14.3183 C   0  0  2  0  0  0  0  0  0  0  0  0
    5.8605  -11.7203   13.1033 O   0  0  0  0  0  0  0  0  0  0  0  0
    4.0976  -11.5608   14.8324 C   0  0  2  0  0  0  0  0  0  0  0  0
    3.7177  -10.8687   16.1116 O   0  0  0  0  0  0  0  0  0  0  0  0
    4.0902  -13.0417   15.0784 C   0  0  0  0  0  0  0  0  0  0  0  0
    4.2357  -13.7752   13.8513 O   0  0  0  0  0  0  0  0  0  0  0  0
   -0.8237   -9.2064   20.9867 O   0  0  0  0  0  0  0  0  0  0  0  0
   -3.4941   -9.8907   21.7858 O   0  0  0  0  0  0  0  0  0  0  0  0
    3.3033   -8.9457   10.2809 N   0  0  0  0  0  0  0  0  0  0  0  0
    1.5528  -12.0908   12.5635 C   0  0  0  0  0  0  0  0  0  0  0  0
    1.2377  -13.1918   13.0015 O   0  0  0  0  0  0  0  0  0  0  0  0
    2.0708  -11.8566   11.1256 C   0  0  1  0  0  0  0  0  0  0  0  0
    3.4912  -11.2576   11.1667 C   0  0  0  0  0  0  0  0  0  0  0  0
    3.5739   -9.7563   11.4664 C   0  0  0  0  0  0  0  0  0  0  0  0
    2.0604  -13.1117   10.4086 O   0  0  0  0  0  0  0  0  0  0  0  0
  1  2  1  6  0  0  0
  1  3  1  0  0  0  0
  1  8  1  0  0  0  0
  3  4  1  0  0  0  0
  3 32  1  1  0  0  0
  4  5  1  0  0  0  0
  4 33  1  1  0  0  0
  5  6  1  6  0  0  0
  5  7  1  0  0  0  0
  7  8  1  0  0  0  0
  7  9  1  6  0  0  0
  9 10  1  0  0  0  0
 11 12  1  6  0  0  0
 11 13  1  0  0  0  0
 11 19  1  0  0  0  0
 12 35  1  0  0  0  0
 13 14  1  0  0  0  0
 14 15  1  6  0  0  0
 14 16  1  0  0  0  0
 16  2  1  1  0  0  0
 16 17  1  0  0  0  0
 17 18  1  6  0  0  0
 17 19  1  0  0  0  0
 19 20  1  1  0  0  0
 21 20  1  6  0  0  0
 21 22  1  0  0  0  0
 21 29  1  0  0  0  0
 22 23  1  6  0  0  0
 22 24  1  0  0  0  0
 24 25  1  1  0  0  0
 24 26  1  0  0  0  0
 26 27  1  6  0  0  0
 26 28  1  0  0  0  0
 28 29  1  0  0  0  0
 28 30  1  1  0  0  0
 30 31  1  0  0  0  0
 34 39  1  0  0  0  0
 35 36  2  0  0  0  0
 37 35  1  1  0  0  0
 37 38  1  0  0  0  0
 37 40  1  0  0  0  0
 38 39  1  0  0  0  0
M  END
>  <CHROM.1>
-179.35513684,63.59980118,-63.51370709,-150.54960303,-82.17517952,-179.78934152
-66.62957861,59.71264066,-78.77683777,-80.36578468,0.86076724,-10.10288758
15.77671919,-2.44686664,-0.17630274,-2.08433600

>  <Name>
2g5q_lig

>  <RI>
2.90231e+07

>  <Rbt.Current_Directory>
/home/itssahil/PROJECTS/Mol_Feturizer/New_Systems/rnas/2g5q

>  <Rbt.Executable>
rbdock ($Id: //depot/dev/client3/rdock/2013.1/src/exe/rbdock.cxx#4 $)

>  <Rbt.Library>
libRbt.so (2013.1, Build901 2013/11/27)

>  <Rbt.Parameter_File>
/export/apps/rDock/src/rDock_2013.1_src/data/scripts/dock_solv.prm

>  <Rbt.Receptor>
prm/pocket_docking_6.prm

>  <SCORE>
-13.2493

>  <SCORE.INTER>
-6.82918

>  <SCORE.INTER.CONST>
1

>  <SCORE.INTER.POLAR>
-0.886316

>  <SCORE.INTER.ROT>
10

>  <SCORE.INTER.SOLV>
19.5227

>  <SCORE.INTER.VDW>
-18.3726

>  <SCORE.INTER.norm>
-0.170729

>  <SCORE.INTRA>
-6.42078

>  <SCORE.INTRA.DIHEDRAL>
-13.3224

>  <SCORE.INTRA.DIHEDRAL.0>
22.5778

>  <SCORE.INTRA.POLAR>
0

>  <SCORE.INTRA.POLAR.0>
0

>  <SCORE.INTRA.REPUL>
0

>  <SCORE.INTRA.REPUL.0>
0

>  <SCORE.INTRA.SOLV>
4.49549

>  <SCORE.INTRA.SOLV.lig_0>
-102.332

>  <SCORE.INTRA.VDW>
-2.00731

>  <SCORE.INTRA.VDW.0>
-5.08747

>  <SCORE.INTRA.norm>
-0.160519

>  <SCORE.RESTR>
0.000630873

>  <SCORE.RESTR.CAVITY>
0.000630873

>  <SCORE.RESTR.norm>
1.57718e-05

>  <SCORE.SYSTEM>
0

>  <SCORE.SYSTEM.CONST>
0

>  <SCORE.SYSTEM.DIHEDRAL>
0

>  <SCORE.SYSTEM.SOLV>
0

>  <SCORE.SYSTEM.norm>
0

>  <SCORE.heavy>
40

>  <SCORE.norm>
-0.331233

>  <RMSD>
7.062

$$$$
2g5q_lig
 OpenBabel11021811433D
libRbt.so/2013.1/901 2013/11/27
 40 42  0  0  0  0  0  0  0  0999 V2000
    1.3510   -9.4985   20.7499 C   0  0  2  0  0  0  0  0  0  0  0  0
    1.7997  -10.2777   19.6632 O   0  0  0  0  0  0  0  0  0  0  0  0
    2.4834   -9.4249   21.8163 C   0  0  1  0  0  0  0  0  0  0  0  0
    2.7608  -10.8151   22.4673 C   0  0  2  0  0  0  0  0  0  0  0  0
    1.4462  -11.2974   23.1338 C   0  0  2  0  0  0  0  0  0  0  0  0
    1.6672  -12.5683   23.7665 O   0  0  0  0  0  0  0  0  0  0  0  0
    0.3325  -11.4035   22.0147 C   0  0  2  0  0  0  0  0  0  0  0  0
    0.1288  -10.0749   21.3696 O   0  0  0  0  0  0  0  0  0  0  0  0
   -1.0151  -11.8590   22.5644 C   0  0  0  0  0  0  0  0  0  0  0  0
   -2.0267  -12.0575   21.4786 N   0  0  0  0  0  0  0  0  0  0  0  0
    3.2254   -9.2611   15.6618 C   0  0  2  0  0  0  0  0  0  0  0  0
    4.0296   -8.6958   14.5850 N   0  0  0  0  0  0  0  0  0  0  0  0
    2.6480   -8.1043   16.5807 C   0  0  0  0  0  0  0  0  0  0  0  0
    1.7701   -8.7120   17.7446 C   0  0  2  0  0  0  0  0  0  0  0  0
    1.2257   -7.6168   18.5921 N   0  0  0  0  0  0  0  0  0  0  0  0
    2.6445   -9.7173   18.5949 C   0  0  2  0  0  0  0  0  0  0  0  0
    3.2044  -10.8503   17.6464 C   0  0  2  0  0  0  0  0  0  0  0  0
    4.0009  -11.7557   18.4172 O   0  0  0  0  0  0  0  0  0  0  0  0
    4.0895  -10.2239   16.5022 C   0  0  1  0  0  0  0  0  0  0  0  0
    4.5938  -11.2684   15.6231 O   0  0  0  0  0  0  0  0  0  0  0  0
    5.5493  -11.0578   14.6127 C   0  0  2  0  0  0  0  0  0  0  0  0
    5.8745  -12.4514   13.9762 C   0  0  2  0  0  0  0  0  0  0  0  0
    4.7130  -13.0009   13.4419 O   0  0  0  0  0  0  0  0  0  0  0  0
    6.5226  -13.4229   15.0339 C   0  0  1  0  0  0  0  0  0  0  0  0
    6.8421  -14.7595   14.4324 N   0  0  0  0  0  0  0  0  0  0  0  0
    7.8282  -12.7378   15.6026 C   0  0  2  0  0  0  0  0  0  0  0  0
    8.4670  -13.5784   16.5656 O   0  0  0  0  0  0  0  0  0  0  0  0
    7.4360  -11.3550   16.2243 C   0  0  2  0  0  0  0  0  0  0  0  0
    6.7672  -10.4759   15.2046 O   0  0  0  0  0  0  0  0  0  0  0  0
    8.6340  -10.6263   16.7604 C   0  0  0  0  0  0  0  0  0  0  0  0
    8.2617   -9.3640   17.3376 O   0  0  0  0  0  0  0  0  0  0  0  0
    3.6914   -8.8931   21.1713 O   0  0  0  0  0  0  0  0  0  0  0  0
    3.7583  -10.6893   23.4088 O   0  0  0  0  0  0  0  0  0  0  0  0
    6.7117   -9.5936   10.2670 N   0  0  0  0  0  0  0  0  0  0  0  0
    5.1969   -7.9649   14.7561 C   0  0  0  0  0  0  0  0  0  0  0  0
    5.6854   -7.7029   15.8498 O   0  0  0  0  0  0  0  0  0  0  0  0
    5.8055   -7.5018   13.4124 C   0  0  1  0  0  0  0  0  0  0  0  0
    5.9519   -8.7031   12.4566 C   0  0  0  0  0  0  0  0  0  0  0  0
    6.6983   -8.4264   11.1463 C   0  0  0  0  0  0  0  0  0  0  0  0
    4.9580   -6.4831   12.8352 O   0  0  0  0  0  0  0  0  0  0  0  0
  1  2  1  6  0  0  0
  1  3  1  0  0  0  0
  1  8  1  0  0  0  0
  3  4  1  0  0  0  0
  3 32  1  6  0  0  0
  4  5  1  0  0  0  0
  4 33  1  1  0  0  0
  5  6  1  6  0  0  0
  5  7  1  0  0  0  0
  7  8  1  0  0  0  0
  7  9  1  1  0  0  0
  9 10  1  0  0  0  0
 11 12  1  6  0  0  0
 11 13  1  0  0  0  0
 11 19  1  0  0  0  0
 12 35  1  0  0  0  0
 13 14  1  0  0  0  0
 14 15  1  1  0  0  0
 14 16  1  0  0  0  0
 16  2  1  1  0  0  0
 16 17  1  0  0  0  0
 17 18  1  1  0  0  0
 17 19  1  0  0  0  0
 19 20  1  6  0  0  0
 21 20  1  1  0  0  0
 21 22  1  0  0  0  0
 21 29  1  0  0  0  0
 22 23  1  1  0  0  0
 22 24  1  0  0  0  0
 24 25  1  6  0  0  0
 24 26  1  0  0  0  0
 26 27  1  1  0  0  0
 26 28  1  0  0  0  0
 28 29  1  0  0  0  0
 28 30  1  6  0  0  0
 30 31  1  0  0  0  0
 34 39  1  0  0  0  0
 35 36  2  0  0  0  0
 37 35  1  1  0  0  0
 37 38  1  0  0  0  0
 37 40  1  0  0  0  0
 38 39  1  0  0  0  0
M  END
>  <CHROM.1>
-82.14747863,-175.51074271,62.91637167,-69.61060210,69.11614980,176.34819765
-179.55214070,-51.74817773,-172.90742630,-176.21272625,4.16233429,-10.36325893
17.36446967,2.38701249,-0.73854792,2.26955080

>  <Name>
2g5q_lig

>  <RI>
2.47104e+07

>  <Rbt.Current_Directory>
/home/itssahil/PROJECTS/Mol_Feturizer/New_Systems/rnas/2g5q

>  <Rbt.Executable>
rbdock ($Id: //depot/dev/client3/rdock/2013.1/src/exe/rbdock.cxx#4 $)

>  <Rbt.Library>
libRbt.so (2013.1, Build901 2013/11/27)

>  <Rbt.Parameter_File>
/export/apps/rDock/src/rDock_2013.1_src/data/scripts/dock_solv.prm

>  <Rbt.Receptor>
prm/pocket_docking_7.prm

>  <SCORE>
-8.27822

>  <SCORE.INTER>
0.0997817

>  <SCORE.INTER.CONST>
1

>  <SCORE.INTER.POLAR>
-0.780905

>  <SCORE.INTER.ROT>
10

>  <SCORE.INTER.SOLV>
8.67865

>  <SCORE.INTER.VDW>
-10.49

>  <SCORE.INTER.norm>
0.00249454

>  <SCORE.INTRA>
-8.378

>  <SCORE.INTRA.DIHEDRAL>
-18.2882

>  <SCORE.INTRA.DIHEDRAL.0>
22.5778

>  <SCORE.INTRA.POLAR>
0

>  <SCORE.INTRA.POLAR.0>
0

>  <SCORE.INTRA.REPUL>
0

>  <SCORE.INTRA.REPUL.0>
0

>  <SCORE.INTRA.SOLV>
1.41556

>  <SCORE.INTRA.SOLV.lig_0>
-102.332

>  <SCORE.INTRA.VDW>
0.0583087

>  <SCORE.INTRA.VDW.0>
-5.08747

>  <SCORE.INTRA.norm>
-0.20945

>  <SCORE.RESTR>
0

>  <SCORE.RESTR.CAVITY>
0

>  <SCORE.RESTR.norm>
0

>  <SCORE.SYSTEM>
0

>  <SCORE.SYSTEM.CONST>
0

>  <SCORE.SYSTEM.DIHEDRAL>
0

>  <SCORE.SYSTEM.SOLV>
0

>  <SCORE.SYSTEM.norm>
0

>  <SCORE.heavy>
40

>  <SCORE.norm>
-0.206955

>  <RMSD>
7.065

$$$$
2g5q_lig
 OpenBabel11021811433D
libRbt.so/2013.1/901 2013/11/27
 40 42  0  0  0  0  0  0  0  0999 V2000
    3.1471  -13.2553   15.7845 C   0  0  2  0  0  0  0  0  0  0  0  0
    2.6896  -11.9243   15.8768 O   0  0  0  0  0  0  0  0  0  0  0  0
    4.6581  -13.2938   16.1586 C   0  0  1  0  0  0  0  0  0  0  0  0
    5.5364  -12.5434   15.1103 C   0  0  2  0  0  0  0  0  0  0  0  0
    5.3212  -13.2270   13.7350 C   0  0  2  0  0  0  0  0  0  0  0  0
    6.1334  -12.5771   12.7439 O   0  0  0  0  0  0  0  0  0  0  0  0
    3.7852  -13.1290   13.3673 C   0  0  2  0  0  0  0  0  0  0  0  0
    2.9656  -13.8032   14.4145 O   0  0  0  0  0  0  0  0  0  0  0  0
    3.4551  -13.7863   12.0314 C   0  0  0  0  0  0  0  0  0  0  0  0
    2.0585  -13.4820   11.5855 N   0  0  0  0  0  0  0  0  0  0  0  0
   -1.3225  -10.4880   16.8347 C   0  0  2  0  0  0  0  0  0  0  0  0
   -2.7229  -10.1074   16.6937 N   0  0  0  0  0  0  0  0  0  0  0  0
   -0.4185   -9.6254   15.8577 C   0  0  0  0  0  0  0  0  0  0  0  0
    1.1005  -10.0296   16.0125 C   0  0  2  0  0  0  0  0  0  0  0  0
    1.9384   -9.2060   15.0994 N   0  0  0  0  0  0  0  0  0  0  0  0
    1.2688  -11.5723   15.7134 C   0  0  2  0  0  0  0  0  0  0  0  0
    0.3517  -12.3969   16.7013 C   0  0  2  0  0  0  0  0  0  0  0  0
    0.5010  -13.7930   16.4244 O   0  0  0  0  0  0  0  0  0  0  0  0
   -1.1602  -11.9894   16.5195 C   0  0  1  0  0  0  0  0  0  0  0  0
   -2.0011  -12.7414   17.4391 O   0  0  0  0  0  0  0  0  0  0  0  0
   -1.8583  -14.1169   17.6956 C   0  0  2  0  0  0  0  0  0  0  0  0
   -3.2498  -14.6518   18.1760 C   0  0  2  0  0  0  0  0  0  0  0  0
   -4.1990  -14.4372   17.1813 O   0  0  0  0  0  0  0  0  0  0  0  0
   -3.6860  -13.9695   19.5277 C   0  0  1  0  0  0  0  0  0  0  0  0
   -5.0160  -14.4789   19.9987 N   0  0  0  0  0  0  0  0  0  0  0  0
   -2.5657  -14.2461   20.6074 C   0  0  2  0  0  0  0  0  0  0  0  0
   -2.9101  -13.6555   21.8623 O   0  0  0  0  0  0  0  0  0  0  0  0
   -1.2051  -13.6878   20.0693 C   0  0  2  0  0  0  0  0  0  0  0  0
   -0.8487  -14.3157   18.7507 O   0  0  0  0  0  0  0  0  0  0  0  0
   -0.0804  -13.9418   21.0307 C   0  0  0  0  0  0  0  0  0  0  0  0
    1.1390  -13.3291   20.5807 O   0  0  0  0  0  0  0  0  0  0  0  0
    4.8177  -12.7093   17.4969 O   0  0  0  0  0  0  0  0  0  0  0  0
    6.8604  -12.6203   15.4827 O   0  0  0  0  0  0  0  0  0  0  0  0
   -6.1504   -8.7818   19.6000 N   0  0  0  0  0  0  0  0  0  0  0  0
   -3.2722   -8.9045   17.1149 C   0  0  0  0  0  0  0  0  0  0  0  0
   -2.6321   -8.0170   17.6681 O   0  0  0  0  0  0  0  0  0  0  0  0
   -4.7881   -8.8141   16.8242 C   0  0  1  0  0  0  0  0  0  0  0  0
   -5.3943   -7.5976   17.5529 C   0  0  0  0  0  0  0  0  0  0  0  0
   -5.3714   -7.6577   19.0846 C   0  0  0  0  0  0  0  0  0  0  0  0
   -4.9910   -8.7145   15.3966 O   0  0  0  0  0  0  0  0  0  0  0  0
  1  2  1  6  0  0  0
  1  3  1  0  0  0  0
  1  8  1  0  0  0  0
  3  4  1  0  0  0  0
  3 32  1  1  0  0  0
  4  5  1  0  0  0  0
  4 33  1  1  0  0  0
  5  6  1  6  0  0  0
  5  7  1  0  0  0  0
  7  8  1  0  0  0  0
  7  9  1  6  0  0  0
  9 10  1  0  0  0  0
 11 12  1  6  0  0  0
 11 13  1  0  0  0  0
 11 19  1  0  0  0  0
 12 35  1  0  0  0  0
 13 14  1  0  0  0  0
 14 15  1  6  0  0  0
 14 16  1  0  0  0  0
 16  2  1  1  0  0  0
 16 17  1  0  0  0  0
 17 18  1  6  0  0  0
 17 19  1  0  0  0  0
 19 20  1  1  0  0  0
 21 20  1  1  0  0  0
 21 22  1  0  0  0  0
 21 29  1  0  0  0  0
 22 23  1  6  0  0  0
 22 24  1  0  0  0  0
 24 25  1  1  0  0  0
 24 26  1  0  0  0  0
 26 27  1  1  0  0  0
 26 28  1  0  0  0  0
 28 29  1  0  0  0  0
 28 30  1  1  0  0  0
 30 31  1  0  0  0  0
 34 39  1  0  0  0  0
 35 36  2  0  0  0  0
 37 35  1  6  0  0  0
 37 38  1  0  0  0  0
 37 40  1  0  0  0  0
 38 39  1  0  0  0  0
M  END
>  <CHROM.1>
-173.86316896,-170.08696034,-70.29331357,174.74440869,-162.51791082,-154.98365809
-175.16538143,168.83127095,-65.26282472,-61.86990257,-0.17165964,-12.05739040
16.90286149,-0.12337961,-0.48114799,2.43873702

>  <Name>
2g5q_lig

>  <RI>
2.90231e+07

>  <Rbt.Current_Directory>
/home/itssahil/PROJECTS/Mol_Feturizer/New_Systems/rnas/2g5q

>  <Rbt.Executable>
rbdock ($Id: //depot/dev/client3/rdock/2013.1/src/exe/rbdock.cxx#4 $)

>  <Rbt.Library>
libRbt.so (2013.1, Build901 2013/11/27)

>  <Rbt.Parameter_File>
/export/apps/rDock/src/rDock_2013.1_src/data/scripts/dock_solv.prm

>  <Rbt.Receptor>
prm/pocket_docking_6.prm

>  <SCORE>
-12.1312

>  <SCORE.INTER>
-5.99968

>  <SCORE.INTER.CONST>
1

>  <SCORE.INTER.POLAR>
-2.0796

>  <SCORE.INTER.ROT>
10

>  <SCORE.INTER.SOLV>
13.5425

>  <SCORE.INTER.VDW>
-11.8486

>  <SCORE.INTER.norm>
-0.149992

>  <SCORE.INTRA>
-6.13156

>  <SCORE.INTRA.DIHEDRAL>
-16.6059

>  <SCORE.INTRA.DIHEDRAL.0>
22.5778

>  <SCORE.INTRA.POLAR>
0

>  <SCORE.INTRA.POLAR.0>
0

>  <SCORE.INTRA.REPUL>
0

>  <SCORE.INTRA.REPUL.0>
0

>  <SCORE.INTRA.SOLV>
-0.564759

>  <SCORE.INTRA.SOLV.lig_0>
-102.332

>  <SCORE.INTRA.VDW>
2.45379

>  <SCORE.INTRA.VDW.0>
-5.08747

>  <SCORE.INTRA.norm>
-0.153289

>  <SCORE.RESTR>
0

>  <SCORE.RESTR.CAVITY>
0

>  <SCORE.RESTR.norm>
0

>  <SCORE.SYSTEM>
0

>  <SCORE.SYSTEM.CONST>
0

>  <SCORE.SYSTEM.DIHEDRAL>
0

>  <SCORE.SYSTEM.SOLV>
0

>  <SCORE.SYSTEM.norm>
0

>  <SCORE.heavy>
40

>  <SCORE.norm>
-0.303281

>  <RMSD>
7.091

$$$$
2g5q_lig
 OpenBabel11021811433D
libRbt.so/2013.1/901 2013/11/27
 40 42  0  0  0  0  0  0  0  0999 V2000
    3.2909  -12.0597   12.9132 C   0  0  2  0  0  0  0  0  0  0  0  0
    2.4593  -12.4991   13.9643 O   0  0  0  0  0  0  0  0  0  0  0  0
    3.8480  -13.3037   12.1603 C   0  0  1  0  0  0  0  0  0  0  0  0
    4.8166  -14.1389   13.0535 C   0  0  2  0  0  0  0  0  0  0  0  0
    5.9887  -13.2150   13.4745 C   0  0  2  0  0  0  0  0  0  0  0  0
    6.9176  -13.9562   14.2821 O   0  0  0  0  0  0  0  0  0  0  0  0
    5.3904  -11.9877   14.2744 C   0  0  2  0  0  0  0  0  0  0  0  0
    4.4252  -11.2416   13.4175 O   0  0  0  0  0  0  0  0  0  0  0  0
    6.4607  -11.0006   14.7280 C   0  0  0  0  0  0  0  0  0  0  0  0
    5.8929   -9.9089   15.5809 N   0  0  0  0  0  0  0  0  0  0  0  0
   -1.0395  -10.7297   15.8892 C   0  0  2  0  0  0  0  0  0  0  0  0
   -2.3787  -10.1899   16.0915 N   0  0  0  0  0  0  0  0  0  0  0  0
   -0.2687   -9.8868   14.7887 C   0  0  0  0  0  0  0  0  0  0  0  0
    1.1854  -10.4639   14.5716 C   0  0  2  0  0  0  0  0  0  0  0  0
    1.9013   -9.6582   13.5457 N   0  0  0  0  0  0  0  0  0  0  0  0
    1.0919  -11.9835   14.1476 C   0  0  2  0  0  0  0  0  0  0  0  0
    0.3155  -12.7883   15.2640 C   0  0  2  0  0  0  0  0  0  0  0  0
    0.2265  -14.1626   14.8750 O   0  0  0  0  0  0  0  0  0  0  0  0
   -1.1372  -12.2064   15.4535 C   0  0  1  0  0  0  0  0  0  0  0  0
   -1.8457  -12.9414   16.4908 O   0  0  0  0  0  0  0  0  0  0  0  0
   -1.7396  -14.3300   16.6879 C   0  0  2  0  0  0  0  0  0  0  0  0
   -2.9419  -14.7692   17.5906 C   0  0  2  0  0  0  0  0  0  0  0  0
   -4.1394  -14.4571   16.9541 O   0  0  0  0  0  0  0  0  0  0  0  0
   -2.8651  -14.0907   19.0105 C   0  0  1  0  0  0  0  0  0  0  0  0
   -4.0104  -14.5088   19.8845 N   0  0  0  0  0  0  0  0  0  0  0  0
   -1.4839  -14.4799   19.6725 C   0  0  2  0  0  0  0  0  0  0  0  0
   -1.3589  -13.8972   20.9714 O   0  0  0  0  0  0  0  0  0  0  0  0
   -0.3273  -14.0136   18.7252 C   0  0  2  0  0  0  0  0  0  0  0  0
   -0.4645  -14.6326   17.3622 O   0  0  0  0  0  0  0  0  0  0  0  0
    1.0219  -14.3775   19.2737 C   0  0  0  0  0  0  0  0  0  0  0  0
    1.1933  -15.8029   19.3340 O   0  0  0  0  0  0  0  0  0  0  0  0
    2.7113  -14.1177   11.7090 O   0  0  0  0  0  0  0  0  0  0  0  0
    5.2880  -15.2158   12.3355 O   0  0  0  0  0  0  0  0  0  0  0  0
   -6.5077   -7.3711   16.7357 N   0  0  0  0  0  0  0  0  0  0  0  0
   -3.1168  -10.2963   17.2620 C   0  0  0  0  0  0  0  0  0  0  0  0
   -2.7212  -10.8719   18.2697 O   0  0  0  0  0  0  0  0  0  0  0  0
   -4.5035   -9.6221   17.1486 C   0  0  1  0  0  0  0  0  0  0  0  0
   -4.4917   -8.2633   17.8778 C   0  0  0  0  0  0  0  0  0  0  0  0
   -5.8529   -7.5739   18.0264 C   0  0  0  0  0  0  0  0  0  0  0  0
   -4.8359   -9.4555   15.7518 O   0  0  0  0  0  0  0  0  0  0  0  0
  1  2  1  1  0  0  0
  1  3  1  0  0  0  0
  1  8  1  0  0  0  0
  3  4  1  0  0  0  0
  3 32  1  1  0  0  0
  4  5  1  0  0  0  0
  4 33  1  6  0  0  0
  5  6  1  1  0  0  0
  5  7  1  0  0  0  0
  7  8  1  0  0  0  0
  7  9  1  6  0  0  0
  9 10  1  0  0  0  0
 11 12  1  6  0  0  0
 11 13  1  0  0  0  0
 11 19  1  0  0  0  0
 12 35  1  0  0  0  0
 13 14  1  0  0  0  0
 14 15  1  6  0  0  0
 14 16  1  0  0  0  0
 16  2  1  1  0  0  0
 16 17  1  0  0  0  0
 17 18  1  6  0  0  0
 17 19  1  0  0  0  0
 19 20  1  1  0  0  0
 21 20  1  1  0  0  0
 21 22  1  0  0  0  0
 21 29  1  0  0  0  0
 22 23  1  6  0  0  0
 22 24  1  0  0  0  0
 24 25  1  1  0  0  0
 24 26  1  0  0  0  0
 26 27  1  1  0  0  0
 26 28  1  0  0  0  0
 28 29  1  0  0  0  0
 28 30  1  1  0  0  0
 30 31  1  0  0  0  0
 34 39  1  0  0  0  0
 35 36  2  0  0  0  0
 37 35  1  6  0  0  0
 37 38  1  0  0  0  0
 37 40  1  0  0  0  0
 38 39  1  0  0  0  0
M  END
>  <CHROM.1>
-128.62822363,-175.15375236,-153.33376772,-67.95909248,-157.29274380,-163.72900940
64.89749260,-103.07005892,-171.36908690,-56.40668437,0.17875336,-12.30292991
15.98698867,0.09162301,0.48041354,-0.57867235

>  <Name>
2g5q_lig

>  <RI>
2.90231e+07

>  <Rbt.Current_Directory>
/home/itssahil/PROJECTS/Mol_Feturizer/New_Systems/rnas/2g5q

>  <Rbt.Executable>
rbdock ($Id: //depot/dev/client3/rdock/2013.1/src/exe/rbdock.cxx#4 $)

>  <Rbt.Library>
libRbt.so (2013.1, Build901 2013/11/27)

>  <Rbt.Parameter_File>
/export/apps/rDock/src/rDock_2013.1_src/data/scripts/dock_solv.prm

>  <Rbt.Receptor>
prm/pocket_docking_6.prm

>  <SCORE>
-13.8897

>  <SCORE.INTER>
-12.2606

>  <SCORE.INTER.CONST>
1

>  <SCORE.INTER.POLAR>
-2.32093

>  <SCORE.INTER.ROT>
10

>  <SCORE.INTER.SOLV>
11.7288

>  <SCORE.INTER.VDW>
-14.6136

>  <SCORE.INTER.norm>
-0.306516

>  <SCORE.INTRA>
-1.63469

>  <SCORE.INTRA.DIHEDRAL>
-8.81977

>  <SCORE.INTRA.DIHEDRAL.0>
22.5778

>  <SCORE.INTRA.POLAR>
0

>  <SCORE.INTRA.POLAR.0>
0

>  <SCORE.INTRA.REPUL>
0

>  <SCORE.INTRA.REPUL.0>
0

>  <SCORE.INTRA.SOLV>
3.15807

>  <SCORE.INTRA.SOLV.lig_0>
-102.332

>  <SCORE.INTRA.VDW>
1.19615

>  <SCORE.INTRA.VDW.0>
-5.08747

>  <SCORE.INTRA.norm>
-0.0408674

>  <SCORE.RESTR>
0.00564472

>  <SCORE.RESTR.CAVITY>
0.00564472

>  <SCORE.RESTR.norm>
0.000141118

>  <SCORE.SYSTEM>
0

>  <SCORE.SYSTEM.CONST>
0

>  <SCORE.SYSTEM.DIHEDRAL>
0

>  <SCORE.SYSTEM.SOLV>
0

>  <SCORE.SYSTEM.norm>
0

>  <SCORE.heavy>
40

>  <SCORE.norm>
-0.347242

>  <RMSD>
7.100

$$$$
2g5q_lig
 OpenBabel11021811433D
libRbt.so/2013.1/901 2013/11/27
 40 42  0  0  0  0  0  0  0  0999 V2000
    2.3315   -2.8269   22.1814 C   0  0  2  0  0  0  0  0  0  0  0  0
    3.4331   -3.4299   21.5391 O   0  0  0  0  0  0  0  0  0  0  0  0
    2.2358   -1.3412   21.7249 C   0  0  1  0  0  0  0  0  0  0  0  0
    3.4466   -0.4979   22.2311 C   0  0  2  0  0  0  0  0  0  0  0  0
    3.4593   -0.5686   23.7802 C   0  0  2  0  0  0  0  0  0  0  0  0
    4.5500    0.2172   24.2874 O   0  0  0  0  0  0  0  0  0  0  0  0
    3.6028   -2.0858   24.2064 C   0  0  2  0  0  0  0  0  0  0  0  0
    2.4642   -2.8791   23.6612 O   0  0  0  0  0  0  0  0  0  0  0  0
    3.6122   -2.2754   25.7195 C   0  0  0  0  0  0  0  0  0  0  0  0
    4.7965   -1.6207   26.3603 N   0  0  0  0  0  0  0  0  0  0  0  0
    5.2268   -7.3282   20.7250 C   0  0  2  0  0  0  0  0  0  0  0  0
    5.4384   -8.7703   20.6899 N   0  0  0  0  0  0  0  0  0  0  0  0
    5.1596   -6.8199   22.2260 C   0  0  0  0  0  0  0  0  0  0  0  0
    4.9377   -5.2568   22.2686 C   0  0  2  0  0  0  0  0  0  0  0  0
    4.8877   -4.7914   23.6810 N   0  0  0  0  0  0  0  0  0  0  0  0
    3.6088   -4.8915   21.4949 C   0  0  2  0  0  0  0  0  0  0  0  0
    3.7115   -5.4165   20.0080 C   0  0  2  0  0  0  0  0  0  0  0  0
    2.5048   -5.0902   19.3113 O   0  0  0  0  0  0  0  0  0  0  0  0
    3.9170   -6.9793   19.9882 C   0  0  1  0  0  0  0  0  0  0  0  0
    4.0236   -7.4585   18.6181 O   0  0  0  0  0  0  0  0  0  0  0  0
    3.0161   -7.3091   17.6481 C   0  0  2  0  0  0  0  0  0  0  0  0
    1.8671   -8.3113   18.0065 C   0  0  2  0  0  0  0  0  0  0  0  0
    1.3718   -8.0171   19.2732 O   0  0  0  0  0  0  0  0  0  0  0  0
    2.3686   -9.8030   17.9301 C   0  0  1  0  0  0  0  0  0  0  0  0
    1.2735  -10.7712   18.2674 N   0  0  0  0  0  0  0  0  0  0  0  0
    2.9209  -10.0670   16.4732 C   0  0  2  0  0  0  0  0  0  0  0  0
    3.3855  -11.4118   16.3399 O   0  0  0  0  0  0  0  0  0  0  0  0
    4.0637   -9.0376   16.1784 C   0  0  2  0  0  0  0  0  0  0  0  0
    3.5665   -7.6258   16.3181 O   0  0  0  0  0  0  0  0  0  0  0  0
    4.6204   -9.2056   14.7944 C   0  0  0  0  0  0  0  0  0  0  0  0
    3.6920   -8.7449   13.7991 O   0  0  0  0  0  0  0  0  0  0  0  0
    2.1484   -1.3132   20.2587 O   0  0  0  0  0  0  0  0  0  0  0  0
    3.3041    0.8063   21.8111 O   0  0  0  0  0  0  0  0  0  0  0  0
    5.0338  -13.3594   21.6617 N   0  0  0  0  0  0  0  0  0  0  0  0
    5.9942   -9.4727   19.6297 C   0  0  0  0  0  0  0  0  0  0  0  0
    6.3682   -8.9509   18.5851 O   0  0  0  0  0  0  0  0  0  0  0  0
    6.0739  -10.9919   19.9055 C   0  0  1  0  0  0  0  0  0  0  0  0
    4.6555  -11.5950   19.9562 C   0  0  0  0  0  0  0  0  0  0  0  0
    4.5766  -13.0868   20.3006 C   0  0  0  0  0  0  0  0  0  0  0  0
    6.8651  -11.6196   18.8713 O   0  0  0  0  0  0  0  0  0  0  0  0
  1  2  1  6  0  0  0
  1  3  1  0  0  0  0
  1  8  1  0  0  0  0
  3  4  1  0  0  0  0
  3 32  1  6  0  0  0
  4  5  1  0  0  0  0
  4 33  1  1  0  0  0
  5  6  1  6  0  0  0
  5  7  1  0  0  0  0
  7  8  1  0  0  0  0
  7  9  1  1  0  0  0
  9 10  1  0  0  0  0
 11 12  1  1  0  0  0
 11 13  1  0  0  0  0
 11 19  1  0  0  0  0
 12 35  1  0  0  0  0
 13 14  1  0  0  0  0
 14 15  1  1  0  0  0
 14 16  1  0  0  0  0
 16  2  1  6  0  0  0
 16 17  1  0  0  0  0
 17 18  1  6  0  0  0
 17 19  1  0  0  0  0
 19 20  1  6  0  0  0
 21 20  1  1  0  0  0
 21 22  1  0  0  0  0
 21 29  1  0  0  0  0
 22 23  1  1  0  0  0
 22 24  1  0  0  0  0
 24 25  1  6  0  0  0
 24 26  1  0  0  0  0
 26 27  1  1  0  0  0
 26 28  1  0  0  0  0
 28 29  1  0  0  0  0
 28 30  1  6  0  0  0
 30 31  1  0  0  0  0
 34 39  1  0  0  0  0
 35 36  2  0  0  0  0
 37 35  1  6  0  0  0
 37 38  1  0  0  0  0
 37 40  1  0  0  0  0
 38 39  1  0  0  0  0
M  END
>  <CHROM.1>
-164.83581001,-63.79796758,-156.43845402,-117.01179556,-179.64373619,-73.29993270
72.17627021,67.91714068,-176.73457736,65.42128170,3.85530190,-6.47801918
20.23137016,1.72890983,-1.14292468,0.69711056

>  <Name>
2g5q_lig

>  <RI>
2.47104e+07

>  <Rbt.Current_Directory>
/home/itssahil/PROJECTS/Mol_Feturizer/New_Systems/rnas/2g5q

>  <Rbt.Executable>
rbdock ($Id: //depot/dev/client3/rdock/2013.1/src/exe/rbdock.cxx#4 $)

>  <Rbt.Library>
libRbt.so (2013.1, Build901 2013/11/27)

>  <Rbt.Parameter_File>
/export/apps/rDock/src/rDock_2013.1_src/data/scripts/dock_solv.prm

>  <Rbt.Receptor>
prm/pocket_docking_7.prm

>  <SCORE>
-18.8092

>  <SCORE.INTER>
-14.6417

>  <SCORE.INTER.CONST>
1

>  <SCORE.INTER.POLAR>
-0.848528

>  <SCORE.INTER.ROT>
10

>  <SCORE.INTER.SOLV>
11.6821

>  <SCORE.INTER.VDW>
-21.0934

>  <SCORE.INTER.norm>
-0.366043

>  <SCORE.INTRA>
-4.16752

>  <SCORE.INTRA.DIHEDRAL>
-11.4872

>  <SCORE.INTRA.DIHEDRAL.0>
22.5778

>  <SCORE.INTRA.POLAR>
0

>  <SCORE.INTRA.POLAR.0>
0

>  <SCORE.INTRA.REPUL>
0

>  <SCORE.INTRA.REPUL.0>
0

>  <SCORE.INTRA.SOLV>
5.69863

>  <SCORE.INTRA.SOLV.lig_0>
-102.332

>  <SCORE.INTRA.VDW>
-1.27323

>  <SCORE.INTRA.VDW.0>
-5.08747

>  <SCORE.INTRA.norm>
-0.104188

>  <SCORE.RESTR>
0

>  <SCORE.RESTR.CAVITY>
0

>  <SCORE.RESTR.norm>
0

>  <SCORE.SYSTEM>
0

>  <SCORE.SYSTEM.CONST>
0

>  <SCORE.SYSTEM.DIHEDRAL>
0

>  <SCORE.SYSTEM.SOLV>
0

>  <SCORE.SYSTEM.norm>
0

>  <SCORE.heavy>
40

>  <SCORE.norm>
-0.470231

>  <RMSD>
7.139

$$$$
2g5q_lig
 OpenBabel11021811433D
libRbt.so/2013.1/901 2013/11/27
 40 42  0  0  0  0  0  0  0  0999 V2000
    3.7910  -10.0971   14.4035 C   0  0  2  0  0  0  0  0  0  0  0  0
    2.4651  -10.2765   13.9570 O   0  0  0  0  0  0  0  0  0  0  0  0
    4.6449   -9.5361   13.2284 C   0  0  1  0  0  0  0  0  0  0  0  0
    4.7971  -10.5731   12.0730 C   0  0  2  0  0  0  0  0  0  0  0  0
    5.4792  -11.8373   12.6573 C   0  0  2  0  0  0  0  0  0  0  0  0
    5.6586  -12.8105   11.6155 O   0  0  0  0  0  0  0  0  0  0  0  0
    4.5629  -12.4046   13.8160 C   0  0  2  0  0  0  0  0  0  0  0  0
    4.3866  -11.3736   14.8785 O   0  0  0  0  0  0  0  0  0  0  0  0
    5.1482  -13.6489   14.4755 C   0  0  0  0  0  0  0  0  0  0  0  0
    4.1824  -14.2890   15.4238 N   0  0  0  0  0  0  0  0  0  0  0  0
   -1.2915   -9.9342   16.1587 C   0  0  2  0  0  0  0  0  0  0  0  0
   -2.4046  -10.2471   17.0469 N   0  0  0  0  0  0  0  0  0  0  0  0
   -1.1752  -11.0299   15.0178 C   0  0  0  0  0  0  0  0  0  0  0  0
    0.0251  -10.6908   14.0490 C   0  0  2  0  0  0  0  0  0  0  0  0
    0.1164  -11.7193   12.9776 N   0  0  0  0  0  0  0  0  0  0  0  0
    1.3663  -10.6057   14.8808 C   0  0  2  0  0  0  0  0  0  0  0  0
    1.2108   -9.5092   16.0079 C   0  0  2  0  0  0  0  0  0  0  0  0
    2.4239   -9.4384   16.7637 O   0  0  0  0  0  0  0  0  0  0  0  0
    0.0182   -9.8748   16.9718 C   0  0  1  0  0  0  0  0  0  0  0  0
   -0.1307   -8.8570   18.0015 O   0  0  0  0  0  0  0  0  0  0  0  0
   -0.3192   -9.1362   19.3670 C   0  0  2  0  0  0  0  0  0  0  0  0
   -0.3282   -7.7678   20.1290 C   0  0  2  0  0  0  0  0  0  0  0  0
   -1.3639   -6.9737   19.6462 O   0  0  0  0  0  0  0  0  0  0  0  0
    1.0577   -7.0309   19.9920 C   0  0  1  0  0  0  0  0  0  0  0  0
    1.0606   -5.7208   20.7226 N   0  0  0  0  0  0  0  0  0  0  0  0
    2.1854   -7.9866   20.5509 C   0  0  2  0  0  0  0  0  0  0  0  0
    3.4700   -7.3673   20.4595 O   0  0  0  0  0  0  0  0  0  0  0  0
    2.1428   -9.3312   19.7490 C   0  0  2  0  0  0  0  0  0  0  0  0
    0.7895   -9.9774   19.8521 O   0  0  0  0  0  0  0  0  0  0  0  0
    3.1696  -10.3075   20.2452 C   0  0  0  0  0  0  0  0  0  0  0  0
    3.2591  -11.4536   19.3831 O   0  0  0  0  0  0  0  0  0  0  0  0
    4.0141   -8.2991   12.7485 O   0  0  0  0  0  0  0  0  0  0  0  0
    5.5697  -10.0310   11.0697 O   0  0  0  0  0  0  0  0  0  0  0  0
   -5.5968   -6.8883   19.3934 N   0  0  0  0  0  0  0  0  0  0  0  0
   -3.7300   -9.9025   16.8219 C   0  0  0  0  0  0  0  0  0  0  0  0
   -4.1173   -9.2800   15.8392 O   0  0  0  0  0  0  0  0  0  0  0  0
   -4.6642  -10.3765   17.9591 C   0  0  1  0  0  0  0  0  0  0  0  0
   -5.5080   -9.1942   18.4772 C   0  0  0  0  0  0  0  0  0  0  0  0
   -4.7181   -7.9815   18.9828 C   0  0  0  0  0  0  0  0  0  0  0  0
   -5.5116  -11.4377   17.4639 O   0  0  0  0  0  0  0  0  0  0  0  0
  1  2  1  6  0  0  0
  1  3  1  0  0  0  0
  1  8  1  0  0  0  0
  3  4  1  0  0  0  0
  3 32  1  6  0  0  0
  4  5  1  0  0  0  0
  4 33  1  6  0  0  0
  5  6  1  6  0  0  0
  5  7  1  0  0  0  0
  7  8  1  0  0  0  0
  7  9  1  1  0  0  0
  9 10  1  0  0  0  0
 11 12  1  1  0  0  0
 11 13  1  0  0  0  0
 11 19  1  0  0  0  0
 12 35  1  0  0  0  0
 13 14  1  0  0  0  0
 14 15  1  6  0  0  0
 14 16  1  0  0  0  0
 16  2  1  6  0  0  0
 16 17  1  0  0  0  0
 17 18  1  1  0  0  0
 17 19  1  0  0  0  0
 19 20  1  1  0  0  0
 21 20  1  6  0  0  0
 21 22  1  0  0  0  0
 21 29  1  0  0  0  0
 22 23  1  6  0  0  0
 22 24  1  0  0  0  0
 24 25  1  1  0  0  0
 24 26  1  0  0  0  0
 26 27  1  6  0  0  0
 26 28  1  0  0  0  0
 28 29  1  0  0  0  0
 28 30  1  1  0  0  0
 30 31  1  0  0  0  0
 34 39  1  0  0  0  0
 35 36  2  0  0  0  0
 37 35  1  6  0  0  0
 37 38  1  0  0  0  0
 37 40  1  0  0  0  0
 38 39  1  0  0  0  0
M  END
>  <CHROM.1>
-170.81406881,-171.50752784,-84.41268933,178.38290838,105.83892762,176.02832602
-171.41410982,127.42275104,-57.01196262,177.27273403,0.93377048,-9.87932447
16.57286289,-0.69544925,-0.00487123,1.11971115

>  <Name>
2g5q_lig

>  <RI>
9.52566e+06

>  <Rbt.Current_Directory>
/home/itssahil/PROJECTS/Mol_Feturizer/New_Systems/rnas/2g5q

>  <Rbt.Executable>
rbdock ($Id: //depot/dev/client3/rdock/2013.1/src/exe/rbdock.cxx#4 $)

>  <Rbt.Library>
libRbt.so (2013.1, Build901 2013/11/27)

>  <Rbt.Parameter_File>
/export/apps/rDock/src/rDock_2013.1_src/data/scripts/dock_solv.prm

>  <Rbt.Receptor>
prm/pocket_docking_4.prm

>  <SCORE>
-11.0532

>  <SCORE.INTER>
-4.16137

>  <SCORE.INTER.CONST>
1

>  <SCORE.INTER.POLAR>
-1.57278

>  <SCORE.INTER.ROT>
10

>  <SCORE.INTER.SOLV>
20.3842

>  <SCORE.INTER.VDW>
-14.5931

>  <SCORE.INTER.norm>
-0.104034

>  <SCORE.INTRA>
-6.89179

>  <SCORE.INTRA.DIHEDRAL>
-12.4145

>  <SCORE.INTRA.DIHEDRAL.0>
22.5778

>  <SCORE.INTRA.POLAR>
0

>  <SCORE.INTRA.POLAR.0>
0

>  <SCORE.INTRA.REPUL>
0

>  <SCORE.INTRA.REPUL.0>
0

>  <SCORE.INTRA.SOLV>
-1.36847

>  <SCORE.INTRA.SOLV.lig_0>
-102.332

>  <SCORE.INTRA.VDW>
-0.000318844

>  <SCORE.INTRA.VDW.0>
-5.08747

>  <SCORE.INTRA.norm>
-0.172295

>  <SCORE.RESTR>
0

>  <SCORE.RESTR.CAVITY>
0

>  <SCORE.RESTR.norm>
0

>  <SCORE.SYSTEM>
0

>  <SCORE.SYSTEM.CONST>
0

>  <SCORE.SYSTEM.DIHEDRAL>
0

>  <SCORE.SYSTEM.SOLV>
0

>  <SCORE.SYSTEM.norm>
0

>  <SCORE.heavy>
40

>  <SCORE.norm>
-0.276329

>  <RMSD>
7.211

$$$$
2g5q_lig
 OpenBabel11021811433D
libRbt.so/2013.1/901 2013/11/27
 40 42  0  0  0  0  0  0  0  0999 V2000
   -3.5590  -10.6456   17.9702 C   0  0  2  0  0  0  0  0  0  0  0  0
   -3.4506  -10.8167   16.5744 O   0  0  0  0  0  0  0  0  0  0  0  0
   -4.6301   -9.5532   18.2604 C   0  0  1  0  0  0  0  0  0  0  0  0
   -4.1748   -8.1458   17.7649 C   0  0  2  0  0  0  0  0  0  0  0  0
   -2.8544   -7.7899   18.4961 C   0  0  2  0  0  0  0  0  0  0  0  0
   -2.4133   -6.4865   18.0826 O   0  0  0  0  0  0  0  0  0  0  0  0
   -1.7782   -8.8949   18.1425 C   0  0  2  0  0  0  0  0  0  0  0  0
   -2.2636  -10.2368   18.5743 O   0  0  0  0  0  0  0  0  0  0  0  0
   -0.4358   -8.6506   18.8238 C   0  0  0  0  0  0  0  0  0  0  0  0
    0.2288   -7.4051   18.3250 N   0  0  0  0  0  0  0  0  0  0  0  0
    0.2517  -13.0892   16.1209 C   0  0  2  0  0  0  0  0  0  0  0  0
    1.2796  -13.9554   15.5561 N   0  0  0  0  0  0  0  0  0  0  0  0
   -1.1147  -13.8815   16.2657 C   0  0  0  0  0  0  0  0  0  0  0  0
   -2.2292  -12.9488   16.8841 C   0  0  2  0  0  0  0  0  0  0  0  0
   -3.5019  -13.7066   17.0250 N   0  0  0  0  0  0  0  0  0  0  0  0
   -2.4168  -11.6736   15.9693 C   0  0  2  0  0  0  0  0  0  0  0  0
   -1.0365  -10.9145   15.8454 C   0  0  2  0  0  0  0  0  0  0  0  0
   -1.2074   -9.7640   15.0117 O   0  0  0  0  0  0  0  0  0  0  0  0
    0.0564  -11.8577   15.2124 C   0  0  1  0  0  0  0  0  0  0  0  0
    1.3297  -11.1601   15.1109 O   0  0  0  0  0  0  0  0  0  0  0  0
    1.6496  -10.2435   14.0932 C   0  0  2  0  0  0  0  0  0  0  0  0
    1.9267  -11.0669   12.7900 C   0  0  2  0  0  0  0  0  0  0  0  0
    0.7911  -11.7958   12.4503 O   0  0  0  0  0  0  0  0  0  0  0  0
    3.1720  -12.0153   12.9699 C   0  0  1  0  0  0  0  0  0  0  0  0
    3.4484  -12.8051   11.7249 N   0  0  0  0  0  0  0  0  0  0  0  0
    4.4201  -11.1273   13.3588 C   0  0  2  0  0  0  0  0  0  0  0  0
    5.5869  -11.9345   13.5290 O   0  0  0  0  0  0  0  0  0  0  0  0
    4.0805  -10.3341   14.6658 C   0  0  2  0  0  0  0  0  0  0  0  0
    2.8538   -9.4858   14.4779 O   0  0  0  0  0  0  0  0  0  0  0  0
    5.2116   -9.4397   15.0834 C   0  0  0  0  0  0  0  0  0  0  0  0
    6.3759  -10.2028   15.4397 O   0  0  0  0  0  0  0  0  0  0  0  0
   -5.8881   -9.9578   17.6187 O   0  0  0  0  0  0  0  0  0  0  0  0
   -5.1508   -7.2190   18.0581 O   0  0  0  0  0  0  0  0  0  0  0  0
    6.1315  -14.2103   16.8093 N   0  0  0  0  0  0  0  0  0  0  0  0
    1.8244  -15.0666   16.1843 C   0  0  0  0  0  0  0  0  0  0  0  0
    1.5021  -15.4449   17.3052 O   0  0  0  0  0  0  0  0  0  0  0  0
    2.8979  -15.7664   15.3192 C   0  0  1  0  0  0  0  0  0  0  0  0
    4.2350  -15.0044   15.4175 C   0  0  0  0  0  0  0  0  0  0  0  0
    4.8829  -14.9698   16.8065 C   0  0  0  0  0  0  0  0  0  0  0  0
    3.0484  -17.1329   15.7658 O   0  0  0  0  0  0  0  0  0  0  0  0
  1  2  1  6  0  0  0
  1  3  1  0  0  0  0
  1  8  1  0  0  0  0
  3  4  1  0  0  0  0
  3 32  1  6  0  0  0
  4  5  1  0  0  0  0
  4 33  1  1  0  0  0
  5  6  1  6  0  0  0
  5  7  1  0  0  0  0
  7  8  1  0  0  0  0
  7  9  1  1  0  0  0
  9 10  1  0  0  0  0
 11 12  1  6  0  0  0
 11 13  1  0  0  0  0
 11 19  1  0  0  0  0
 12 35  1  0  0  0  0
 13 14  1  0  0  0  0
 14 15  1  6  0  0  0
 14 16  1  0  0  0  0
 16  2  1  1  0  0  0
 16 17  1  0  0  0  0
 17 18  1  6  0  0  0
 17 19  1  0  0  0  0
 19 20  1  1  0  0  0
 21 20  1  1  0  0  0
 21 22  1  0  0  0  0
 21 29  1  0  0  0  0
 22 23  1  1  0  0  0
 22 24  1  0  0  0  0
 24 25  1  6  0  0  0
 24 26  1  0  0  0  0
 26 27  1  1  0  0  0
 26 28  1  0  0  0  0
 28 29  1  0  0  0  0
 28 30  1  6  0  0  0
 30 31  1  0  0  0  0
 34 39  1  0  0  0  0
 35 36  2  0  0  0  0
 37 35  1  1  0  0  0
 37 38  1  0  0  0  0
 37 40  1  0  0  0  0
 38 39  1  0  0  0  0
M  END
>  <CHROM.1>
173.14003795,-65.84302343,-66.73713363,38.06944010,160.73531135,-74.75352949
-64.52161393,79.56905486,63.83973674,-179.08424785,0.47539944,-11.39498861
16.00027334,2.69157709,0.38703676,-0.02248291

>  <Name>
2g5q_lig

>  <RI>
224

>  <Rbt.Current_Directory>
/home/itssahil/PROJECTS/Mol_Feturizer/New_Systems/rnas/2g5q

>  <Rbt.Executable>
rbdock ($Id: //depot/dev/client3/rdock/2013.1/src/exe/rbdock.cxx#4 $)

>  <Rbt.Library>
libRbt.so (2013.1, Build901 2013/11/27)

>  <Rbt.Parameter_File>
/export/apps/rDock/src/rDock_2013.1_src/data/scripts/dock_solv.prm

>  <Rbt.Receptor>
prm/pocket_docking_8.prm

>  <SCORE>
-13.0734

>  <SCORE.INTER>
-6.22773

>  <SCORE.INTER.CONST>
1

>  <SCORE.INTER.POLAR>
-1.47235

>  <SCORE.INTER.ROT>
10

>  <SCORE.INTER.SOLV>
14.3361

>  <SCORE.INTER.VDW>
-14.2893

>  <SCORE.INTER.norm>
-0.155693

>  <SCORE.INTRA>
-6.84569

>  <SCORE.INTRA.DIHEDRAL>
-16.0094

>  <SCORE.INTRA.DIHEDRAL.0>
22.5778

>  <SCORE.INTRA.POLAR>
0

>  <SCORE.INTRA.POLAR.0>
0

>  <SCORE.INTRA.REPUL>
0.00169226

>  <SCORE.INTRA.REPUL.0>
0

>  <SCORE.INTRA.SOLV>
1.99527

>  <SCORE.INTRA.SOLV.lig_0>
-102.332

>  <SCORE.INTRA.VDW>
0.152894

>  <SCORE.INTRA.VDW.0>
-5.08747

>  <SCORE.INTRA.norm>
-0.171142

>  <SCORE.RESTR>
0

>  <SCORE.RESTR.CAVITY>
0

>  <SCORE.RESTR.norm>
0

>  <SCORE.SYSTEM>
0

>  <SCORE.SYSTEM.CONST>
0

>  <SCORE.SYSTEM.DIHEDRAL>
0

>  <SCORE.SYSTEM.SOLV>
0

>  <SCORE.SYSTEM.norm>
0

>  <SCORE.heavy>
40

>  <SCORE.norm>
-0.326836

>  <RMSD>
7.224

$$$$
2g5q_lig
 OpenBabel11021811433D
libRbt.so/2013.1/901 2013/11/27
 40 42  0  0  0  0  0  0  0  0999 V2000
    1.8436  -10.3540   17.8661 C   0  0  2  0  0  0  0  0  0  0  0  0
    1.4812   -9.0722   18.3300 O   0  0  0  0  0  0  0  0  0  0  0  0
    3.2201  -10.2561   17.1447 C   0  0  1  0  0  0  0  0  0  0  0  0
    3.1311   -9.4163   15.8330 C   0  0  2  0  0  0  0  0  0  0  0  0
    2.0998  -10.1023   14.8999 C   0  0  2  0  0  0  0  0  0  0  0  0
    2.0059   -9.3693   13.6676 O   0  0  0  0  0  0  0  0  0  0  0  0
    0.7053  -10.1433   15.6467 C   0  0  2  0  0  0  0  0  0  0  0  0
    0.8325  -10.9018   16.9240 O   0  0  0  0  0  0  0  0  0  0  0  0
   -0.3870  -10.8141   14.8206 C   0  0  0  0  0  0  0  0  0  0  0  0
   -0.1178  -12.2720   14.6114 N   0  0  0  0  0  0  0  0  0  0  0  0
   -2.2872   -9.8666   20.3905 C   0  0  2  0  0  0  0  0  0  0  0  0
   -3.4908   -9.6731   21.1903 N   0  0  0  0  0  0  0  0  0  0  0  0
   -0.9962   -9.5558   21.2581 C   0  0  0  0  0  0  0  0  0  0  0  0
    0.3105   -9.7711   20.3975 C   0  0  2  0  0  0  0  0  0  0  0  0
    1.5138   -9.4873   21.2255 N   0  0  0  0  0  0  0  0  0  0  0  0
    0.2592   -8.8426   19.1195 C   0  0  2  0  0  0  0  0  0  0  0  0
   -1.0398   -9.1779   18.2847 C   0  0  2  0  0  0  0  0  0  0  0  0
   -1.0873   -8.3317   17.1315 O   0  0  0  0  0  0  0  0  0  0  0  0
   -2.3317   -8.9416   19.1566 C   0  0  1  0  0  0  0  0  0  0  0  0
   -3.5260   -9.2629   18.3894 O   0  0  0  0  0  0  0  0  0  0  0  0
   -3.7235  -10.4763   17.7061 C   0  0  2  0  0  0  0  0  0  0  0  0
   -4.6974  -10.1902   16.5133 C   0  0  2  0  0  0  0  0  0  0  0  0
   -4.1307   -9.2413   15.6678 O   0  0  0  0  0  0  0  0  0  0  0  0
   -6.1070   -9.7132   17.0312 C   0  0  1  0  0  0  0  0  0  0  0  0
   -7.0487   -9.4410   15.8958 N   0  0  0  0  0  0  0  0  0  0  0  0
   -6.6887  -10.8298   17.9863 C   0  0  2  0  0  0  0  0  0  0  0  0
   -7.9750  -10.4557   18.4838 O   0  0  0  0  0  0  0  0  0  0  0  0
   -5.6728  -11.0665   19.1544 C   0  0  2  0  0  0  0  0  0  0  0  0
   -4.3233  -11.4621   18.6230 O   0  0  0  0  0  0  0  0  0  0  0  0
   -6.1430  -12.1410   20.0914 C   0  0  0  0  0  0  0  0  0  0  0  0
   -7.3927  -11.7871   20.7060 O   0  0  0  0  0  0  0  0  0  0  0  0
    4.1915   -9.6736   18.0802 O   0  0  0  0  0  0  0  0  0  0  0  0
    4.3695   -9.3740   15.2313 O   0  0  0  0  0  0  0  0  0  0  0  0
   -6.0104   -6.5136   24.6950 N   0  0  0  0  0  0  0  0  0  0  0  0
   -3.7579  -10.2990   22.3998 C   0  0  0  0  0  0  0  0  0  0  0  0
   -3.0025  -11.1028   22.9351 O   0  0  0  0  0  0  0  0  0  0  0  0
   -5.1246   -9.8826   22.9907 C   0  0  1  0  0  0  0  0  0  0  0  0
   -4.9706   -8.5916   23.8200 C   0  0  0  0  0  0  0  0  0  0  0  0
   -6.2682   -7.8320   24.1195 C   0  0  0  0  0  0  0  0  0  0  0  0
   -6.0686   -9.6940   21.9124 O   0  0  0  0  0  0  0  0  0  0  0  0
  1  2  1  6  0  0  0
  1  3  1  0  0  0  0
  1  8  1  0  0  0  0
  3  4  1  0  0  0  0
  3 32  1  1  0  0  0
  4  5  1  0  0  0  0
  4 33  1  6  0  0  0
  5  6  1  6  0  0  0
  5  7  1  0  0  0  0
  7  8  1  0  0  0  0
  7  9  1  6  0  0  0
  9 10  1  0  0  0  0
 11 12  1  1  0  0  0
 11 13  1  0  0  0  0
 11 19  1  0  0  0  0
 12 35  1  0  0  0  0
 13 14  1  0  0  0  0
 14 15  1  1  0  0  0
 14 16  1  0  0  0  0
 16  2  1  6  0  0  0
 16 17  1  0  0  0  0
 17 18  1  6  0  0  0
 17 19  1  0  0  0  0
 19 20  1  6  0  0  0
 21 20  1  1  0  0  0
 21 22  1  0  0  0  0
 21 29  1  0  0  0  0
 22 23  1  6  0  0  0
 22 24  1  0  0  0  0
 24 25  1  6  0  0  0
 24 26  1  0  0  0  0
 26 27  1  1  0  0  0
 26 28  1  0  0  0  0
 28 29  1  0  0  0  0
 28 30  1  1  0  0  0
 30 31  1  0  0  0  0
 34 39  1  0  0  0  0
 35 36  2  0  0  0  0
 37 35  1  6  0  0  0
 37 38  1  0  0  0  0
 37 40  1  0  0  0  0
 38 39  1  0  0  0  0
M  END
>  <CHROM.1>
-176.70901030,66.24358191,-55.74532898,56.52604766,-67.51374348,-152.96802115
-61.20200175,-86.11168704,162.60776569,-169.79933019,-2.20667701,-9.88579085
18.73598646,-0.54882026,0.10087673,1.38675852

>  <Name>
2g5q_lig

>  <RI>
224

>  <Rbt.Current_Directory>
/home/itssahil/PROJECTS/Mol_Feturizer/New_Systems/rnas/2g5q

>  <Rbt.Executable>
rbdock ($Id: //depot/dev/client3/rdock/2013.1/src/exe/rbdock.cxx#4 $)

>  <Rbt.Library>
libRbt.so (2013.1, Build901 2013/11/27)

>  <Rbt.Parameter_File>
/export/apps/rDock/src/rDock_2013.1_src/data/scripts/dock_solv.prm

>  <Rbt.Receptor>
prm/pocket_docking_8.prm

>  <SCORE>
-11.665

>  <SCORE.INTER>
-4.76178

>  <SCORE.INTER.CONST>
1

>  <SCORE.INTER.POLAR>
-2.15697

>  <SCORE.INTER.ROT>
10

>  <SCORE.INTER.SOLV>
13.2298

>  <SCORE.INTER.VDW>
-10.6612

>  <SCORE.INTER.norm>
-0.119044

>  <SCORE.INTRA>
-6.99909

>  <SCORE.INTRA.DIHEDRAL>
-16.1589

>  <SCORE.INTRA.DIHEDRAL.0>
22.5778

>  <SCORE.INTRA.POLAR>
0

>  <SCORE.INTRA.POLAR.0>
0

>  <SCORE.INTRA.REPUL>
0

>  <SCORE.INTRA.REPUL.0>
0

>  <SCORE.INTRA.SOLV>
2.79806

>  <SCORE.INTRA.SOLV.lig_0>
-102.332

>  <SCORE.INTRA.VDW>
-0.318667

>  <SCORE.INTRA.VDW.0>
-5.08747

>  <SCORE.INTRA.norm>
-0.174977

>  <SCORE.RESTR>
0.0958452

>  <SCORE.RESTR.CAVITY>
0.0958452

>  <SCORE.RESTR.norm>
0.00239613

>  <SCORE.SYSTEM>
0

>  <SCORE.SYSTEM.CONST>
0

>  <SCORE.SYSTEM.DIHEDRAL>
0

>  <SCORE.SYSTEM.SOLV>
0

>  <SCORE.SYSTEM.norm>
0

>  <SCORE.heavy>
40

>  <SCORE.norm>
-0.291626

>  <RMSD>
7.231

$$$$
2g5q_lig
 OpenBabel11021811433D
libRbt.so/2013.1/901 2013/11/27
 40 42  0  0  0  0  0  0  0  0999 V2000
    4.8189   -4.0881   24.5856 C   0  0  2  0  0  0  0  0  0  0  0  0
    4.1138   -3.8187   23.3940 O   0  0  0  0  0  0  0  0  0  0  0  0
    4.0346   -3.4746   25.7827 C   0  0  1  0  0  0  0  0  0  0  0  0
    4.0143   -1.9157   25.7273 C   0  0  2  0  0  0  0  0  0  0  0  0
    5.4837   -1.4210   25.7571 C   0  0  2  0  0  0  0  0  0  0  0  0
    5.5070    0.0154   25.7307 O   0  0  0  0  0  0  0  0  0  0  0  0
    6.2366   -2.0266   24.5039 C   0  0  2  0  0  0  0  0  0  0  0  0
    6.1907   -3.5161   24.5516 O   0  0  0  0  0  0  0  0  0  0  0  0
    7.7032   -1.6137   24.4403 C   0  0  0  0  0  0  0  0  0  0  0  0
    7.8634   -0.1381   24.2443 N   0  0  0  0  0  0  0  0  0  0  0  0
    3.7276   -6.3294   19.8409 C   0  0  2  0  0  0  0  0  0  0  0  0
    4.0242   -6.9748   18.5676 N   0  0  0  0  0  0  0  0  0  0  0  0
    3.7055   -4.7532   19.6651 C   0  0  0  0  0  0  0  0  0  0  0  0
    3.3774   -4.0502   21.0408 C   0  0  2  0  0  0  0  0  0  0  0  0
    3.3486   -2.5736   20.8600 N   0  0  0  0  0  0  0  0  0  0  0  0
    4.4501   -4.4771   22.1202 C   0  0  2  0  0  0  0  0  0  0  0  0
    4.4456   -6.0507   22.2641 C   0  0  2  0  0  0  0  0  0  0  0  0
    5.4220   -6.4352   23.2372 O   0  0  0  0  0  0  0  0  0  0  0  0
    4.7903   -6.7313   20.8846 C   0  0  1  0  0  0  0  0  0  0  0  0
    4.7734   -8.1806   21.0170 O   0  0  0  0  0  0  0  0  0  0  0  0
    4.2691   -9.0575   20.0398 C   0  0  2  0  0  0  0  0  0  0  0  0
    3.5817  -10.2493   20.7884 C   0  0  2  0  0  0  0  0  0  0  0  0
    2.5505   -9.7639   21.5868 O   0  0  0  0  0  0  0  0  0  0  0  0
    4.6251  -11.0599   21.6468 C   0  0  1  0  0  0  0  0  0  0  0  0
    3.9769  -12.2068   22.3643 N   0  0  0  0  0  0  0  0  0  0  0  0
    5.7669  -11.5751   20.6833 C   0  0  2  0  0  0  0  0  0  0  0  0
    6.7435  -12.3270   21.4066 O   0  0  0  0  0  0  0  0  0  0  0  0
    6.4129  -10.3398   19.9697 C   0  0  2  0  0  0  0  0  0  0  0  0
    5.3800   -9.5557   19.2093 O   0  0  0  0  0  0  0  0  0  0  0  0
    7.4908  -10.7528   19.0098 C   0  0  0  0  0  0  0  0  0  0  0  0
    7.8737   -9.6631   18.1549 O   0  0  0  0  0  0  0  0  0  0  0  0
    2.6712   -4.0215   25.7705 O   0  0  0  0  0  0  0  0  0  0  0  0
    3.3213   -1.4277   26.8131 O   0  0  0  0  0  0  0  0  0  0  0  0
    2.1895  -10.5402   18.1407 N   0  0  0  0  0  0  0  0  0  0  0  0
    3.1074   -7.6647   17.7867 C   0  0  0  0  0  0  0  0  0  0  0  0
    1.9291   -7.8170   18.0895 O   0  0  0  0  0  0  0  0  0  0  0  0
    3.7420   -8.2363   16.4979 C   0  0  1  0  0  0  0  0  0  0  0  0
    2.9608   -9.4814   16.0315 C   0  0  0  0  0  0  0  0  0  0  0  0
    3.0332  -10.7006   16.9582 C   0  0  0  0  0  0  0  0  0  0  0  0
    3.7413   -7.2137   15.4764 O   0  0  0  0  0  0  0  0  0  0  0  0
  1  2  1  6  0  0  0
  1  3  1  0  0  0  0
  1  8  1  0  0  0  0
  3  4  1  0  0  0  0
  3 32  1  6  0  0  0
  4  5  1  0  0  0  0
  4 33  1  1  0  0  0
  5  6  1  6  0  0  0
  5  7  1  0  0  0  0
  7  8  1  0  0  0  0
  7  9  1  1  0  0  0
  9 10  1  0  0  0  0
 11 12  1  6  0  0  0
 11 13  1  0  0  0  0
 11 19  1  0  0  0  0
 12 35  1  0  0  0  0
 13 14  1  0  0  0  0
 14 15  1  6  0  0  0
 14 16  1  0  0  0  0
 16  2  1  1  0  0  0
 16 17  1  0  0  0  0
 17 18  1  1  0  0  0
 17 19  1  0  0  0  0
 19 20  1  1  0  0  0
 21 20  1  1  0  0  0
 21 22  1  0  0  0  0
 21 29  1  0  0  0  0
 22 23  1  1  0  0  0
 22 24  1  0  0  0  0
 24 25  1  6  0  0  0
 24 26  1  0  0  0  0
 26 27  1  1  0  0  0
 26 28  1  0  0  0  0
 28 29  1  0  0  0  0
 28 30  1  6  0  0  0
 30 31  1  0  0  0  0
 34 39  1  0  0  0  0
 35 36  2  0  0  0  0
 37 35  1  1  0  0  0
 37 38  1  0  0  0  0
 37 40  1  0  0  0  0
 38 39  1  0  0  0  0
M  END
>  <CHROM.1>
-168.10179233,-64.50839387,-106.90479892,174.52730553,21.62893754,-143.92345876
167.41717006,153.24520781,-66.32106430,75.86413875,4.59162437,-6.55281190
21.38371934,-1.39326055,1.17076534,-2.63989490

>  <Name>
2g5q_lig

>  <RI>
224

>  <Rbt.Current_Directory>
/home/itssahil/PROJECTS/Mol_Feturizer/New_Systems/rnas/2g5q

>  <Rbt.Executable>
rbdock ($Id: //depot/dev/client3/rdock/2013.1/src/exe/rbdock.cxx#4 $)

>  <Rbt.Library>
libRbt.so (2013.1, Build901 2013/11/27)

>  <Rbt.Parameter_File>
/export/apps/rDock/src/rDock_2013.1_src/data/scripts/dock_solv.prm

>  <Rbt.Receptor>
prm/pocket_docking_8.prm

>  <SCORE>
-16.759

>  <SCORE.INTER>
-18.684

>  <SCORE.INTER.CONST>
1

>  <SCORE.INTER.POLAR>
-1.53336

>  <SCORE.INTER.ROT>
10

>  <SCORE.INTER.SOLV>
17.6629

>  <SCORE.INTER.VDW>
-23.4991

>  <SCORE.INTER.norm>
-0.4671

>  <SCORE.INTRA>
1.79262

>  <SCORE.INTRA.DIHEDRAL>
-7.71171

>  <SCORE.INTRA.DIHEDRAL.0>
22.5778

>  <SCORE.INTRA.POLAR>
0

>  <SCORE.INTRA.POLAR.0>
0

>  <SCORE.INTRA.REPUL>
0

>  <SCORE.INTRA.REPUL.0>
0

>  <SCORE.INTRA.SOLV>
6.28997

>  <SCORE.INTRA.SOLV.lig_0>
-102.332

>  <SCORE.INTRA.VDW>
2.50349

>  <SCORE.INTRA.VDW.0>
-5.08747

>  <SCORE.INTRA.norm>
0.0448155

>  <SCORE.RESTR>
0.13236

>  <SCORE.RESTR.CAVITY>
0.13236

>  <SCORE.RESTR.norm>
0.00330899

>  <SCORE.SYSTEM>
0

>  <SCORE.SYSTEM.CONST>
0

>  <SCORE.SYSTEM.DIHEDRAL>
0

>  <SCORE.SYSTEM.SOLV>
0

>  <SCORE.SYSTEM.norm>
0

>  <SCORE.heavy>
40

>  <SCORE.norm>
-0.418976

>  <RMSD>
7.237

$$$$
2g5q_lig
 OpenBabel11021811433D
libRbt.so/2013.1/901 2013/11/27
 40 42  0  0  0  0  0  0  0  0999 V2000
    7.8914  -10.1381   14.5911 C   0  0  2  0  0  0  0  0  0  0  0  0
    7.8223   -9.5349   15.8643 O   0  0  0  0  0  0  0  0  0  0  0  0
    9.2464   -9.7542   13.9267 C   0  0  1  0  0  0  0  0  0  0  0  0
    9.3242   -8.2304   13.6020 C   0  0  2  0  0  0  0  0  0  0  0  0
    8.1560   -7.8902   12.6405 C   0  0  2  0  0  0  0  0  0  0  0  0
    8.2068   -6.4957   12.2983 O   0  0  0  0  0  0  0  0  0  0  0  0
    6.7961   -8.2505   13.3650 C   0  0  2  0  0  0  0  0  0  0  0  0
    6.7728   -9.6994   13.7157 O   0  0  0  0  0  0  0  0  0  0  0  0
    5.5731   -7.9674   12.4992 C   0  0  0  0  0  0  0  0  0  0  0  0
    5.4793   -6.5235   12.1143 N   0  0  0  0  0  0  0  0  0  0  0  0
    4.4445  -11.6095   17.6985 C   0  0  2  0  0  0  0  0  0  0  0  0
    3.4140  -11.9910   18.6567 N   0  0  0  0  0  0  0  0  0  0  0  0
    5.8835  -11.7797   18.3436 C   0  0  0  0  0  0  0  0  0  0  0  0
    7.0035  -11.3744   17.3064 C   0  0  2  0  0  0  0  0  0  0  0  0
    8.3479  -11.5491   17.9197 N   0  0  0  0  0  0  0  0  0  0  0  0
    6.7738   -9.8823   16.8385 C   0  0  2  0  0  0  0  0  0  0  0  0
    5.3314   -9.7514   16.2066 C   0  0  2  0  0  0  0  0  0  0  0  0
    5.1233   -8.3983   15.7896 O   0  0  0  0  0  0  0  0  0  0  0  0
    4.2292  -10.1454   17.2625 C   0  0  1  0  0  0  0  0  0  0  0  0
    2.9025  -10.0359   16.6741 O   0  0  0  0  0  0  0  0  0  0  0  0
    2.4628   -8.9360   15.9157 C   0  0  2  0  0  0  0  0  0  0  0  0
    0.9004   -8.8916   16.0153 C   0  0  2  0  0  0  0  0  0  0  0  0
    0.5234   -8.7474   17.3470 O   0  0  0  0  0  0  0  0  0  0  0  0
    0.2529  -10.1813   15.3829 C   0  0  1  0  0  0  0  0  0  0  0  0
   -1.2443  -10.1460   15.4694 N   0  0  0  0  0  0  0  0  0  0  0  0
    0.7249  -10.2869   13.8784 C   0  0  2  0  0  0  0  0  0  0  0  0
    0.1615  -11.4384   13.2470 O   0  0  0  0  0  0  0  0  0  0  0  0
    2.2901  -10.3291   13.8481 C   0  0  2  0  0  0  0  0  0  0  0  0
    2.8749   -9.1136   14.5118 O   0  0  0  0  0  0  0  0  0  0  0  0
    2.8177  -10.3984   12.4444 C   0  0  0  0  0  0  0  0  0  0  0  0
    4.0659  -11.1084   12.3905 O   0  0  0  0  0  0  0  0  0  0  0  0
   10.3337  -10.1586   14.8280 O   0  0  0  0  0  0  0  0  0  0  0  0
   10.5339   -7.9502   13.0058 O   0  0  0  0  0  0  0  0  0  0  0  0
    3.4830  -15.4241   21.4056 N   0  0  0  0  0  0  0  0  0  0  0  0
    2.1563  -12.4777   18.3288 C   0  0  0  0  0  0  0  0  0  0  0  0
    1.7632  -12.6365   17.1784 O   0  0  0  0  0  0  0  0  0  0  0  0
    1.2973  -12.7821   19.5778 C   0  0  1  0  0  0  0  0  0  0  0  0
    1.7426  -14.1146   20.2136 C   0  0  0  0  0  0  0  0  0  0  0  0
    3.1437  -14.1218   20.8358 C   0  0  0  0  0  0  0  0  0  0  0  0
    1.4272  -11.6924   20.5185 O   0  0  0  0  0  0  0  0  0  0  0  0
  1  2  1  1  0  0  0
  1  3  1  0  0  0  0
  1  8  1  0  0  0  0
  3  4  1  0  0  0  0
  3 32  1  1  0  0  0
  4  5  1  0  0  0  0
  4 33  1  6  0  0  0
  5  6  1  1  0  0  0
  5  7  1  0  0  0  0
  7  8  1  0  0  0  0
  7  9  1  6  0  0  0
  9 10  1  0  0  0  0
 11 12  1  1  0  0  0
 11 13  1  0  0  0  0
 11 19  1  0  0  0  0
 12 35  1  0  0  0  0
 13 14  1  0  0  0  0
 14 15  1  1  0  0  0
 14 16  1  0  0  0  0
 16  2  1  6  0  0  0
 16 17  1  0  0  0  0
 17 18  1  1  0  0  0
 17 19  1  0  0  0  0
 19 20  1  6  0  0  0
 21 20  1  1  0  0  0
 21 22  1  0  0  0  0
 21 29  1  0  0  0  0
 22 23  1  1  0  0  0
 22 24  1  0  0  0  0
 24 25  1  6  0  0  0
 24 26  1  0  0  0  0
 26 27  1  1  0  0  0
 26 28  1  0  0  0  0
 28 29  1  0  0  0  0
 28 30  1  6  0  0  0
 30 31  1  0  0  0  0
 34 39  1  0  0  0  0
 35 36  2  0  0  0  0
 37 35  1  6  0  0  0
 37 38  1  0  0  0  0
 37 40  1  0  0  0  0
 38 39  1  0  0  0  0
M  END
>  <CHROM.1>
-169.50390014,-59.90111807,-152.70386708,67.25820122,-165.98884790,-155.35928757
-149.75920007,-77.57429763,67.17212652,-179.66210199,4.52393383,-10.27794171
15.81220014,-0.76547736,0.05469455,2.15478055

>  <Name>
2g5q_lig

>  <RI>
224

>  <Rbt.Current_Directory>
/home/itssahil/PROJECTS/Mol_Feturizer/New_Systems/rnas/2g5q

>  <Rbt.Executable>
rbdock ($Id: //depot/dev/client3/rdock/2013.1/src/exe/rbdock.cxx#4 $)

>  <Rbt.Library>
libRbt.so (2013.1, Build901 2013/11/27)

>  <Rbt.Parameter_File>
/export/apps/rDock/src/rDock_2013.1_src/data/scripts/dock_solv.prm

>  <Rbt.Receptor>
prm/pocket_docking_8.prm

>  <SCORE>
-6.47824

>  <SCORE.INTER>
-0.22002

>  <SCORE.INTER.CONST>
1

>  <SCORE.INTER.POLAR>
-0.848528

>  <SCORE.INTER.ROT>
10

>  <SCORE.INTER.SOLV>
9.76695

>  <SCORE.INTER.VDW>
-10.8406

>  <SCORE.INTER.norm>
-0.0055005

>  <SCORE.INTRA>
-6.25822

>  <SCORE.INTRA.DIHEDRAL>
-13.7674

>  <SCORE.INTRA.DIHEDRAL.0>
22.5778

>  <SCORE.INTRA.POLAR>
0

>  <SCORE.INTRA.POLAR.0>
0

>  <SCORE.INTRA.REPUL>
0.00657646

>  <SCORE.INTRA.REPUL.0>
0

>  <SCORE.INTRA.SOLV>
2.43546

>  <SCORE.INTRA.SOLV.lig_0>
-102.332

>  <SCORE.INTRA.VDW>
-0.625124

>  <SCORE.INTRA.VDW.0>
-5.08747

>  <SCORE.INTRA.norm>
-0.156456

>  <SCORE.RESTR>
0

>  <SCORE.RESTR.CAVITY>
0

>  <SCORE.RESTR.norm>
0

>  <SCORE.SYSTEM>
0

>  <SCORE.SYSTEM.CONST>
0

>  <SCORE.SYSTEM.DIHEDRAL>
0

>  <SCORE.SYSTEM.SOLV>
0

>  <SCORE.SYSTEM.norm>
0

>  <SCORE.heavy>
40

>  <SCORE.norm>
-0.161956

>  <RMSD>
7.240

$$$$
2g5q_lig
 OpenBabel11021811433D
libRbt.so/2013.1/901 2013/11/27
 40 42  0  0  0  0  0  0  0  0999 V2000
    4.9938   -9.1125   14.4023 C   0  0  2  0  0  0  0  0  0  0  0  0
    3.5917   -9.1034   14.5554 O   0  0  0  0  0  0  0  0  0  0  0  0
    5.4183   -7.8539   13.5897 C   0  0  1  0  0  0  0  0  0  0  0  0
    4.9007   -7.9089   12.1191 C   0  0  2  0  0  0  0  0  0  0  0  0
    5.4893   -9.1815   11.4565 C   0  0  2  0  0  0  0  0  0  0  0  0
    5.0529   -9.2563   10.0896 O   0  0  0  0  0  0  0  0  0  0  0  0
    5.0011  -10.4410   12.2808 C   0  0  2  0  0  0  0  0  0  0  0  0
    5.4598  -10.3345   13.6953 O   0  0  0  0  0  0  0  0  0  0  0  0
    5.5357  -11.7554   11.7219 C   0  0  0  0  0  0  0  0  0  0  0  0
    7.0322  -11.8004   11.7266 N   0  0  0  0  0  0  0  0  0  0  0  0
    1.1141  -11.6214   17.1241 C   0  0  2  0  0  0  0  0  0  0  0  0
    0.3516  -12.7616   17.6184 N   0  0  0  0  0  0  0  0  0  0  0  0
    0.5128  -11.1150   15.7465 C   0  0  0  0  0  0  0  0  0  0  0  0
    1.3316   -9.8752   15.2108 C   0  0  2  0  0  0  0  0  0  0  0  0
    0.7510   -9.4031   13.9247 N   0  0  0  0  0  0  0  0  0  0  0  0
    2.8504  -10.2789   15.0429 C   0  0  2  0  0  0  0  0  0  0  0  0
    3.4118  -10.7811   16.4320 C   0  0  2  0  0  0  0  0  0  0  0  0
    4.7852  -11.1520   16.2760 O   0  0  0  0  0  0  0  0  0  0  0  0
    2.5911  -12.0273   16.9403 C   0  0  1  0  0  0  0  0  0  0  0  0
    3.1024  -12.4800   18.2255 O   0  0  0  0  0  0  0  0  0  0  0  0
    2.6364  -13.6205   18.9039 C   0  0  2  0  0  0  0  0  0  0  0  0
    3.7372  -14.0339   19.9385 C   0  0  2  0  0  0  0  0  0  0  0  0
    3.9514  -12.9887   20.8319 O   0  0  0  0  0  0  0  0  0  0  0  0
    5.0763  -14.4387   19.2135 C   0  0  1  0  0  0  0  0  0  0  0  0
    6.1360  -14.8408   20.1963 N   0  0  0  0  0  0  0  0  0  0  0  0
    4.7615  -15.6214   18.2138 C   0  0  2  0  0  0  0  0  0  0  0  0
    5.9444  -16.0386   17.5291 O   0  0  0  0  0  0  0  0  0  0  0  0
    3.6593  -15.1451   17.2084 C   0  0  2  0  0  0  0  0  0  0  0  0
    2.4178  -14.7103   17.9361 O   0  0  0  0  0  0  0  0  0  0  0  0
    3.2824  -16.2297   16.2413 C   0  0  0  0  0  0  0  0  0  0  0  0
    4.3807  -16.5622   15.3764 O   0  0  0  0  0  0  0  0  0  0  0  0
    4.9110   -6.6629   14.2842 O   0  0  0  0  0  0  0  0  0  0  0  0
    5.3149   -6.7813   11.4451 O   0  0  0  0  0  0  0  0  0  0  0  0
   -3.9014  -15.7625   18.7762 N   0  0  0  0  0  0  0  0  0  0  0  0
   -0.6756  -12.6952   18.5493 C   0  0  0  0  0  0  0  0  0  0  0  0
   -1.0571  -11.6544   19.0734 O   0  0  0  0  0  0  0  0  0  0  0  0
   -1.2757  -14.0844   18.8661 C   0  0  1  0  0  0  0  0  0  0  0  0
   -2.0090  -14.6382   17.6276 C   0  0  0  0  0  0  0  0  0  0  0  0
   -2.7917  -15.9389   17.8417 C   0  0  0  0  0  0  0  0  0  0  0  0
   -0.2149  -14.9751   19.2791 O   0  0  0  0  0  0  0  0  0  0  0  0
  1  2  1  6  0  0  0
  1  3  1  0  0  0  0
  1  8  1  0  0  0  0
  3  4  1  0  0  0  0
  3 32  1  1  0  0  0
  4  5  1  0  0  0  0
  4 33  1  6  0  0  0
  5  6  1  6  0  0  0
  5  7  1  0  0  0  0
  7  8  1  0  0  0  0
  7  9  1  6  0  0  0
  9 10  1  0  0  0  0
 11 12  1  6  0  0  0
 11 13  1  0  0  0  0
 11 19  1  0  0  0  0
 12 35  1  0  0  0  0
 13 14  1  0  0  0  0
 14 15  1  6  0  0  0
 14 16  1  0  0  0  0
 16  2  1  1  0  0  0
 16 17  1  0  0  0  0
 17 18  1  6  0  0  0
 17 19  1  0  0  0  0
 19 20  1  1  0  0  0
 21 20  1  6  0  0  0
 21 22  1  0  0  0  0
 21 29  1  0  0  0  0
 22 23  1  1  0  0  0
 22 24  1  0  0  0  0
 24 25  1  1  0  0  0
 24 26  1  0  0  0  0
 26 27  1  6  0  0  0
 26 28  1  0  0  0  0
 28 29  1  0  0  0  0
 28 30  1  6  0  0  0
 30 31  1  0  0  0  0
 34 39  1  0  0  0  0
 35 36  2  0  0  0  0
 37 35  1  6  0  0  0
 37 38  1  0  0  0  0
 37 40  1  0  0  0  0
 38 39  1  0  0  0  0
M  END
>  <CHROM.1>
167.78265199,59.94903865,-96.52799081,175.04334964,64.58863535,160.49458292
-65.67795875,-67.32464373,-173.27469303,64.53768312,2.96935958,-12.13632186
16.12724084,1.07419690,0.22657334,-0.70319233

>  <Name>
2g5q_lig

>  <RI>
224

>  <Rbt.Current_Directory>
/home/itssahil/PROJECTS/Mol_Feturizer/New_Systems/rnas/2g5q

>  <Rbt.Executable>
rbdock ($Id: //depot/dev/client3/rdock/2013.1/src/exe/rbdock.cxx#4 $)

>  <Rbt.Library>
libRbt.so (2013.1, Build901 2013/11/27)

>  <Rbt.Parameter_File>
/export/apps/rDock/src/rDock_2013.1_src/data/scripts/dock_solv.prm

>  <Rbt.Receptor>
prm/pocket_docking_8.prm

>  <SCORE>
-12.4047

>  <SCORE.INTER>
-4.9034

>  <SCORE.INTER.CONST>
1

>  <SCORE.INTER.POLAR>
-1.72103

>  <SCORE.INTER.ROT>
10

>  <SCORE.INTER.SOLV>
13.5028

>  <SCORE.INTER.VDW>
-12.2998

>  <SCORE.INTER.norm>
-0.122585

>  <SCORE.INTRA>
-7.50128

>  <SCORE.INTRA.DIHEDRAL>
-17.9059

>  <SCORE.INTRA.DIHEDRAL.0>
22.5778

>  <SCORE.INTRA.POLAR>
0

>  <SCORE.INTRA.POLAR.0>
0

>  <SCORE.INTRA.REPUL>
0

>  <SCORE.INTRA.REPUL.0>
0

>  <SCORE.INTRA.SOLV>
1.69195

>  <SCORE.INTRA.SOLV.lig_0>
-102.332

>  <SCORE.INTRA.VDW>
0.605675

>  <SCORE.INTRA.VDW.0>
-5.08747

>  <SCORE.INTRA.norm>
-0.187532

>  <SCORE.RESTR>
0

>  <SCORE.RESTR.CAVITY>
0

>  <SCORE.RESTR.norm>
0

>  <SCORE.SYSTEM>
0

>  <SCORE.SYSTEM.CONST>
0

>  <SCORE.SYSTEM.DIHEDRAL>
0

>  <SCORE.SYSTEM.SOLV>
0

>  <SCORE.SYSTEM.norm>
0

>  <SCORE.heavy>
40

>  <SCORE.norm>
-0.310117

>  <RMSD>
7.269

$$$$
2g5q_lig
 OpenBabel11021811433D
libRbt.so/2013.1/901 2013/11/27
 40 42  0  0  0  0  0  0  0  0999 V2000
    3.8185   -2.0342   23.4208 C   0  0  2  0  0  0  0  0  0  0  0  0
    4.5532   -2.3631   22.2625 O   0  0  0  0  0  0  0  0  0  0  0  0
    4.5179   -0.8415   24.1371 C   0  0  1  0  0  0  0  0  0  0  0  0
    5.9146   -1.2420   24.7049 C   0  0  2  0  0  0  0  0  0  0  0  0
    5.7025   -2.4034   25.7103 C   0  0  2  0  0  0  0  0  0  0  0  0
    6.9671   -2.7867   26.2743 O   0  0  0  0  0  0  0  0  0  0  0  0
    5.0326   -3.6116   24.9385 C   0  0  2  0  0  0  0  0  0  0  0  0
    3.7275   -3.1852   24.3572 O   0  0  0  0  0  0  0  0  0  0  0  0
    4.7639   -4.8117   25.8403 C   0  0  0  0  0  0  0  0  0  0  0  0
    6.0070   -5.2898   26.5244 N   0  0  0  0  0  0  0  0  0  0  0  0
    2.1670   -5.5920   20.5427 C   0  0  2  0  0  0  0  0  0  0  0  0
    1.7015   -6.6294   19.6300 N   0  0  0  0  0  0  0  0  0  0  0  0
    2.1825   -4.1845   19.8115 C   0  0  0  0  0  0  0  0  0  0  0  0
    2.6794   -3.0565   20.7990 C   0  0  2  0  0  0  0  0  0  0  0  0
    2.6787   -1.7404   20.1048 N   0  0  0  0  0  0  0  0  0  0  0  0
    4.1200   -3.4230   21.3362 C   0  0  2  0  0  0  0  0  0  0  0  0
    4.0655   -4.8303   22.0528 C   0  0  2  0  0  0  0  0  0  0  0  0
    5.3720   -5.1628   22.5327 O   0  0  0  0  0  0  0  0  0  0  0  0
    3.5824   -5.9431   21.0462 C   0  0  1  0  0  0  0  0  0  0  0  0
    3.5213   -7.2359   21.7121 O   0  0  0  0  0  0  0  0  0  0  0  0
    4.6356   -7.8951   22.2615 C   0  0  2  0  0  0  0  0  0  0  0  0
    5.3343   -8.6823   21.1016 C   0  0  2  0  0  0  0  0  0  0  0  0
    5.7347   -7.7914   20.1104 O   0  0  0  0  0  0  0  0  0  0  0  0
    4.3823   -9.7906   20.5118 C   0  0  1  0  0  0  0  0  0  0  0  0
    5.0445  -10.5535   19.4028 N   0  0  0  0  0  0  0  0  0  0  0  0
    3.9626  -10.7608   21.6865 C   0  0  2  0  0  0  0  0  0  0  0  0
    3.1008  -11.7962   21.2094 O   0  0  0  0  0  0  0  0  0  0  0  0
    3.2707   -9.9157   22.8088 C   0  0  2  0  0  0  0  0  0  0  0  0
    4.1842   -8.8308   23.3069 O   0  0  0  0  0  0  0  0  0  0  0  0
    2.8693  -10.7668   23.9785 C   0  0  0  0  0  0  0  0  0  0  0  0
    1.8264  -11.6880   23.6200 O   0  0  0  0  0  0  0  0  0  0  0  0
    4.6345    0.2675   23.1807 O   0  0  0  0  0  0  0  0  0  0  0  0
    6.4804   -0.1568   25.3372 O   0  0  0  0  0  0  0  0  0  0  0  0
    1.5826  -10.4917   16.8213 N   0  0  0  0  0  0  0  0  0  0  0  0
    0.4223   -7.1676   19.6148 C   0  0  0  0  0  0  0  0  0  0  0  0
   -0.4705   -6.8304   20.3846 O   0  0  0  0  0  0  0  0  0  0  0  0
    0.2523   -8.2545   18.5284 C   0  0  1  0  0  0  0  0  0  0  0  0
    0.8541   -9.5879   19.0161 C   0  0  0  0  0  0  0  0  0  0  0  0
    0.7899  -10.7525   18.0212 C   0  0  0  0  0  0  0  0  0  0  0  0
   -1.1528   -8.4030   18.2236 O   0  0  0  0  0  0  0  0  0  0  0  0
  1  2  1  6  0  0  0
  1  3  1  0  0  0  0
  1  8  1  0  0  0  0
  3  4  1  0  0  0  0
  3 32  1  6  0  0  0
  4  5  1  0  0  0  0
  4 33  1  1  0  0  0
  5  6  1  6  0  0  0
  5  7  1  0  0  0  0
  7  8  1  0  0  0  0
  7  9  1  1  0  0  0
  9 10  1  0  0  0  0
 11 12  1  6  0  0  0
 11 13  1  0  0  0  0
 11 19  1  0  0  0  0
 12 35  1  0  0  0  0
 13 14  1  0  0  0  0
 14 15  1  6  0  0  0
 14 16  1  0  0  0  0
 16  2  1  1  0  0  0
 16 17  1  0  0  0  0
 17 18  1  6  0  0  0
 17 19  1  0  0  0  0
 19 20  1  1  0  0  0
 21 20  1  6  0  0  0
 21 22  1  0  0  0  0
 21 29  1  0  0  0  0
 22 23  1  6  0  0  0
 22 24  1  0  0  0  0
 24 25  1  6  0  0  0
 24 26  1  0  0  0  0
 26 27  1  6  0  0  0
 26 28  1  0  0  0  0
 28 29  1  0  0  0  0
 28 30  1  1  0  0  0
 30 31  1  0  0  0  0
 34 39  1  0  0  0  0
 35 36  2  0  0  0  0
 37 35  1  1  0  0  0
 37 38  1  0  0  0  0
 37 40  1  0  0  0  0
 38 39  1  0  0  0  0
M  END
>  <CHROM.1>
-177.68598112,-56.18303506,-101.17182263,58.76399248,177.93467387,-84.21811079
-66.96650533,79.47656877,-178.42996111,64.04372893,3.52814860,-6.15567932
21.94759730,0.97734323,-0.92486861,0.01826066

>  <Name>
2g5q_lig

>  <RI>
224

>  <Rbt.Current_Directory>
/home/itssahil/PROJECTS/Mol_Feturizer/New_Systems/rnas/2g5q

>  <Rbt.Executable>
rbdock ($Id: //depot/dev/client3/rdock/2013.1/src/exe/rbdock.cxx#4 $)

>  <Rbt.Library>
libRbt.so (2013.1, Build901 2013/11/27)

>  <Rbt.Parameter_File>
/export/apps/rDock/src/rDock_2013.1_src/data/scripts/dock_solv.prm

>  <Rbt.Receptor>
prm/pocket_docking_8.prm

>  <SCORE>
-19.4998

>  <SCORE.INTER>
-12.2697

>  <SCORE.INTER.CONST>
1

>  <SCORE.INTER.POLAR>
-0.580858

>  <SCORE.INTER.ROT>
10

>  <SCORE.INTER.SOLV>
19.1815

>  <SCORE.INTER.VDW>
-22.9041

>  <SCORE.INTER.norm>
-0.306743

>  <SCORE.INTRA>
-7.23005

>  <SCORE.INTRA.DIHEDRAL>
-17.5476

>  <SCORE.INTRA.DIHEDRAL.0>
22.5778

>  <SCORE.INTRA.POLAR>
0

>  <SCORE.INTRA.POLAR.0>
0

>  <SCORE.INTRA.REPUL>
0

>  <SCORE.INTRA.REPUL.0>
0

>  <SCORE.INTRA.SOLV>
2.81711

>  <SCORE.INTRA.SOLV.lig_0>
-102.332

>  <SCORE.INTRA.VDW>
0.135183

>  <SCORE.INTRA.VDW.0>
-5.08747

>  <SCORE.INTRA.norm>
-0.180751

>  <SCORE.RESTR>
0

>  <SCORE.RESTR.CAVITY>
0

>  <SCORE.RESTR.norm>
0

>  <SCORE.SYSTEM>
0

>  <SCORE.SYSTEM.CONST>
0

>  <SCORE.SYSTEM.DIHEDRAL>
0

>  <SCORE.SYSTEM.SOLV>
0

>  <SCORE.SYSTEM.norm>
0

>  <SCORE.heavy>
40

>  <SCORE.norm>
-0.487494

>  <RMSD>
7.313

$$$$
2g5q_lig
 OpenBabel11021811433D
libRbt.so/2013.1/901 2013/11/27
 40 42  0  0  0  0  0  0  0  0999 V2000
    5.2145   -3.3789   23.8700 C   0  0  2  0  0  0  0  0  0  0  0  0
    4.0523   -3.8711   23.2402 O   0  0  0  0  0  0  0  0  0  0  0  0
    4.9906   -3.3834   25.4110 C   0  0  1  0  0  0  0  0  0  0  0  0
    3.8936   -2.3617   25.8426 C   0  0  2  0  0  0  0  0  0  0  0  0
    4.3519   -0.9525   25.3854 C   0  0  2  0  0  0  0  0  0  0  0  0
    3.3758    0.0228   25.7861 O   0  0  0  0  0  0  0  0  0  0  0  0
    4.5252   -0.9731   23.8127 C   0  0  2  0  0  0  0  0  0  0  0  0
    5.5362   -1.9977   23.4239 O   0  0  0  0  0  0  0  0  0  0  0  0
    4.9901    0.3669   23.2526 C   0  0  0  0  0  0  0  0  0  0  0  0
    3.9908    1.4549   23.4966 N   0  0  0  0  0  0  0  0  0  0  0  0
    2.9236   -6.3076   19.7955 C   0  0  2  0  0  0  0  0  0  0  0  0
    2.9162   -6.8881   18.4580 N   0  0  0  0  0  0  0  0  0  0  0  0
    2.7289   -4.7357   19.7123 C   0  0  0  0  0  0  0  0  0  0  0  0
    2.7292   -4.1035   21.1597 C   0  0  2  0  0  0  0  0  0  0  0  0
    2.5347   -2.6311   21.0684 N   0  0  0  0  0  0  0  0  0  0  0  0
    4.0839   -4.4609   21.8911 C   0  0  2  0  0  0  0  0  0  0  0  0
    4.2442   -6.0318   21.9506 C   0  0  2  0  0  0  0  0  0  0  0  0
    5.4744   -6.3529   22.6075 O   0  0  0  0  0  0  0  0  0  0  0  0
    4.2571   -6.6401   20.4964 C   0  0  1  0  0  0  0  0  0  0  0  0
    4.3924   -8.0880   20.5546 O   0  0  0  0  0  0  0  0  0  0  0  0
    5.4069   -8.7591   21.2608 C   0  0  2  0  0  0  0  0  0  0  0  0
    5.9652   -9.8840   20.3249 C   0  0  2  0  0  0  0  0  0  0  0  0
    6.4760   -9.3118   19.1638 O   0  0  0  0  0  0  0  0  0  0  0  0
    4.8525  -10.9472   19.9867 C   0  0  1  0  0  0  0  0  0  0  0  0
    5.3790  -12.0318   19.0940 N   0  0  0  0  0  0  0  0  0  0  0  0
    4.3139  -11.5509   21.3441 C   0  0  2  0  0  0  0  0  0  0  0  0
    3.3029  -12.5311   21.1006 O   0  0  0  0  0  0  0  0  0  0  0  0
    3.7701  -10.3797   22.2303 C   0  0  2  0  0  0  0  0  0  0  0  0
    4.8399   -9.3545   22.4840 O   0  0  0  0  0  0  0  0  0  0  0  0
    3.2669  -10.8726   23.5560 C   0  0  0  0  0  0  0  0  0  0  0  0
    2.5074   -9.8594   24.2353 O   0  0  0  0  0  0  0  0  0  0  0  0
    4.6330   -4.7478   25.8218 O   0  0  0  0  0  0  0  0  0  0  0  0
    3.7468   -2.3982   27.2117 O   0  0  0  0  0  0  0  0  0  0  0  0
    4.0947   -8.7515   14.1602 N   0  0  0  0  0  0  0  0  0  0  0  0
    1.9731   -7.7875   17.9806 C   0  0  0  0  0  0  0  0  0  0  0  0
    1.0306   -8.2063   18.6436 O   0  0  0  0  0  0  0  0  0  0  0  0
    2.2531   -8.2174   16.5220 C   0  0  1  0  0  0  0  0  0  0  0  0
    3.3909   -9.2577   16.4868 C   0  0  0  0  0  0  0  0  0  0  0  0
    4.5514   -8.9455   15.5349 C   0  0  0  0  0  0  0  0  0  0  0  0
    1.0418   -8.7574   15.9471 O   0  0  0  0  0  0  0  0  0  0  0  0
  1  2  1  6  0  0  0
  1  3  1  0  0  0  0
  1  8  1  0  0  0  0
  3  4  1  0  0  0  0
  3 32  1  6  0  0  0
  4  5  1  0  0  0  0
  4 33  1  1  0  0  0
  5  6  1  6  0  0  0
  5  7  1  0  0  0  0
  7  8  1  0  0  0  0
  7  9  1  1  0  0  0
  9 10  1  0  0  0  0
 11 12  1  6  0  0  0
 11 13  1  0  0  0  0
 11 19  1  0  0  0  0
 12 35  1  0  0  0  0
 13 14  1  0  0  0  0
 14 15  1  6  0  0  0
 14 16  1  0  0  0  0
 16  2  1  1  0  0  0
 16 17  1  0  0  0  0
 17 18  1  6  0  0  0
 17 19  1  0  0  0  0
 19 20  1  1  0  0  0
 21 20  1  6  0  0  0
 21 22  1  0  0  0  0
 21 29  1  0  0  0  0
 22 23  1  6  0  0  0
 22 24  1  0  0  0  0
 24 25  1  6  0  0  0
 24 26  1  0  0  0  0
 26 27  1  6  0  0  0
 26 28  1  0  0  0  0
 28 29  1  0  0  0  0
 28 30  1  1  0  0  0
 30 31  1  0  0  0  0
 34 39  1  0  0  0  0
 35 36  2  0  0  0  0
 37 35  1  1  0  0  0
 37 38  1  0  0  0  0
 37 40  1  0  0  0  0
 38 39  1  0  0  0  0
M  END
>  <CHROM.1>
-156.80309528,-62.86924339,-116.44360314,-145.99449193,-172.27491212,-134.72864942
-167.15414808,77.55850399,-127.68086522,-56.42789957,3.94570638,-6.35754379
21.39663170,-1.32043622,1.36410420,-2.75348919

>  <Name>
2g5q_lig

>  <RI>
2.47104e+07

>  <Rbt.Current_Directory>
/home/itssahil/PROJECTS/Mol_Feturizer/New_Systems/rnas/2g5q

>  <Rbt.Executable>
rbdock ($Id: //depot/dev/client3/rdock/2013.1/src/exe/rbdock.cxx#4 $)

>  <Rbt.Library>
libRbt.so (2013.1, Build901 2013/11/27)

>  <Rbt.Parameter_File>
/export/apps/rDock/src/rDock_2013.1_src/data/scripts/dock_solv.prm

>  <Rbt.Receptor>
prm/pocket_docking_7.prm

>  <SCORE>
-21.4299

>  <SCORE.INTER>
-21.6044

>  <SCORE.INTER.CONST>
1

>  <SCORE.INTER.POLAR>
-2.02752

>  <SCORE.INTER.ROT>
10

>  <SCORE.INTER.SOLV>
16.4862

>  <SCORE.INTER.VDW>
-23.4066

>  <SCORE.INTER.norm>
-0.54011

>  <SCORE.INTRA>
0.174459

>  <SCORE.INTRA.DIHEDRAL>
-1.485

>  <SCORE.INTRA.DIHEDRAL.0>
22.5778

>  <SCORE.INTRA.POLAR>
0

>  <SCORE.INTRA.POLAR.0>
0

>  <SCORE.INTRA.REPUL>
0

>  <SCORE.INTRA.REPUL.0>
0

>  <SCORE.INTRA.SOLV>
1.87374

>  <SCORE.INTRA.SOLV.lig_0>
-102.332

>  <SCORE.INTRA.VDW>
-0.0199109

>  <SCORE.INTRA.VDW.0>
-5.08747

>  <SCORE.INTRA.norm>
0.00436148

>  <SCORE.RESTR>
0

>  <SCORE.RESTR.CAVITY>
0

>  <SCORE.RESTR.norm>
0

>  <SCORE.SYSTEM>
0

>  <SCORE.SYSTEM.CONST>
0

>  <SCORE.SYSTEM.DIHEDRAL>
0

>  <SCORE.SYSTEM.SOLV>
0

>  <SCORE.SYSTEM.norm>
0

>  <SCORE.heavy>
40

>  <SCORE.norm>
-0.535748

>  <RMSD>
7.332

$$$$
2g5q_lig
 OpenBabel11021811433D
libRbt.so/2013.1/901 2013/11/27
 40 42  0  0  0  0  0  0  0  0999 V2000
    3.3427   -3.4496   22.5189 C   0  0  2  0  0  0  0  0  0  0  0  0
    4.1822   -4.1406   21.6203 O   0  0  0  0  0  0  0  0  0  0  0  0
    2.0016   -3.1192   21.7999 C   0  0  1  0  0  0  0  0  0  0  0  0
    2.2001   -2.0944   20.6406 C   0  0  2  0  0  0  0  0  0  0  0  0
    2.7992   -0.8000   21.2493 C   0  0  2  0  0  0  0  0  0  0  0  0
    2.9760    0.1800   20.2136 O   0  0  0  0  0  0  0  0  0  0  0  0
    4.1800   -1.1652   21.9306 C   0  0  2  0  0  0  0  0  0  0  0  0
    3.9695   -2.1883   22.9945 O   0  0  0  0  0  0  0  0  0  0  0  0
    4.8552    0.0391   22.5783 C   0  0  0  0  0  0  0  0  0  0  0  0
    5.1502    1.1195   21.5845 N   0  0  0  0  0  0  0  0  0  0  0  0
    5.8120   -8.1856   21.3770 C   0  0  2  0  0  0  0  0  0  0  0  0
    5.8962   -9.6409   21.3538 N   0  0  0  0  0  0  0  0  0  0  0  0
    5.1996   -7.6934   22.7549 C   0  0  0  0  0  0  0  0  0  0  0  0
    5.1132   -6.1167   22.7872 C   0  0  2  0  0  0  0  0  0  0  0  0
    4.5480   -5.6678   24.0884 N   0  0  0  0  0  0  0  0  0  0  0  0
    4.2357   -5.6117   21.5736 C   0  0  2  0  0  0  0  0  0  0  0  0
    4.8734   -6.1242   20.2218 C   0  0  2  0  0  0  0  0  0  0  0  0
    4.0738   -5.6711   19.1248 O   0  0  0  0  0  0  0  0  0  0  0  0
    4.9358   -7.6992   20.2040 C   0  0  1  0  0  0  0  0  0  0  0  0
    5.5348   -8.1681   18.9632 O   0  0  0  0  0  0  0  0  0  0  0  0
    5.6092   -9.5203   18.5832 C   0  0  2  0  0  0  0  0  0  0  0  0
    6.4263   -9.5887   17.2488 C   0  0  2  0  0  0  0  0  0  0  0  0
    7.7007   -9.0699   17.4569 O   0  0  0  0  0  0  0  0  0  0  0  0
    5.6874   -8.8196   16.0890 C   0  0  1  0  0  0  0  0  0  0  0  0
    6.4603   -8.8832   14.8049 N   0  0  0  0  0  0  0  0  0  0  0  0
    4.2506   -9.4528   15.9101 C   0  0  2  0  0  0  0  0  0  0  0  0
    3.5320   -8.7987   14.8624 O   0  0  0  0  0  0  0  0  0  0  0  0
    3.4873   -9.3517   17.2738 C   0  0  2  0  0  0  0  0  0  0  0  0
    4.2482  -10.0442   18.3699 O   0  0  0  0  0  0  0  0  0  0  0  0
    2.1188   -9.9635   17.1920 C   0  0  0  0  0  0  0  0  0  0  0  0
    1.2869   -9.2577   16.2568 O   0  0  0  0  0  0  0  0  0  0  0  0
    1.4228   -4.3744   21.3022 O   0  0  0  0  0  0  0  0  0  0  0  0
    0.9841   -1.8292   20.0503 O   0  0  0  0  0  0  0  0  0  0  0  0
    4.4210  -14.9946   21.5873 N   0  0  0  0  0  0  0  0  0  0  0  0
    4.8186  -10.5075   21.4723 C   0  0  0  0  0  0  0  0  0  0  0  0
    3.6583  -10.1396   21.6197 O   0  0  0  0  0  0  0  0  0  0  0  0
    5.2462  -11.9922   21.4152 C   0  0  1  0  0  0  0  0  0  0  0  0
    4.3073  -12.7769   20.4767 C   0  0  0  0  0  0  0  0  0  0  0  0
    4.6081  -14.2730   20.3302 C   0  0  0  0  0  0  0  0  0  0  0  0
    6.6160  -12.0730   20.9607 O   0  0  0  0  0  0  0  0  0  0  0  0
  1  2  1  6  0  0  0
  1  3  1  0  0  0  0
  1  8  1  0  0  0  0
  3  4  1  0  0  0  0
  3 32  1  6  0  0  0
  4  5  1  0  0  0  0
  4 33  1  1  0  0  0
  5  6  1  6  0  0  0
  5  7  1  0  0  0  0
  7  8  1  0  0  0  0
  7  9  1  1  0  0  0
  9 10  1  0  0  0  0
 11 12  1  1  0  0  0
 11 13  1  0  0  0  0
 11 19  1  0  0  0  0
 12 35  1  0  0  0  0
 13 14  1  0  0  0  0
 14 15  1  1  0  0  0
 14 16  1  0  0  0  0
 16  2  1  6  0  0  0
 16 17  1  0  0  0  0
 17 18  1  6  0  0  0
 17 19  1  0  0  0  0
 19 20  1  6  0  0  0
 21 20  1  6  0  0  0
 21 22  1  0  0  0  0
 21 29  1  0  0  0  0
 22 23  1  1  0  0  0
 22 24  1  0  0  0  0
 24 25  1  6  0  0  0
 24 26  1  0  0  0  0
 26 27  1  6  0  0  0
 26 28  1  0  0  0  0
 28 29  1  0  0  0  0
 28 30  1  6  0  0  0
 30 31  1  0  0  0  0
 34 39  1  0  0  0  0
 35 36  2  0  0  0  0
 37 35  1  6  0  0  0
 37 38  1  0  0  0  0
 37 40  1  0  0  0  0
 38 39  1  0  0  0  0
M  END
>  <CHROM.1>
-94.10285191,-60.13819204,60.28731998,-77.83210268,67.27918322,-175.45856150
-63.41394451,-134.40922111,-179.59527685,64.64886086,4.29464864,-7.03149729
20.04178398,-2.29925111,1.35105038,-2.15096939

>  <Name>
2g5q_lig

>  <RI>
224

>  <Rbt.Current_Directory>
/home/itssahil/PROJECTS/Mol_Feturizer/New_Systems/rnas/2g5q

>  <Rbt.Executable>
rbdock ($Id: //depot/dev/client3/rdock/2013.1/src/exe/rbdock.cxx#4 $)

>  <Rbt.Library>
libRbt.so (2013.1, Build901 2013/11/27)

>  <Rbt.Parameter_File>
/export/apps/rDock/src/rDock_2013.1_src/data/scripts/dock_solv.prm

>  <Rbt.Receptor>
prm/pocket_docking_8.prm

>  <SCORE>
-24.5636

>  <SCORE.INTER>
-19.7148

>  <SCORE.INTER.CONST>
1

>  <SCORE.INTER.POLAR>
-1.63749

>  <SCORE.INTER.ROT>
10

>  <SCORE.INTER.SOLV>
19.5667

>  <SCORE.INTER.VDW>
-24.4738

>  <SCORE.INTER.norm>
-0.49287

>  <SCORE.INTRA>
-4.85059

>  <SCORE.INTRA.DIHEDRAL>
-14.0172

>  <SCORE.INTRA.DIHEDRAL.0>
22.5778

>  <SCORE.INTRA.POLAR>
0

>  <SCORE.INTRA.POLAR.0>
0

>  <SCORE.INTRA.REPUL>
0

>  <SCORE.INTRA.REPUL.0>
0

>  <SCORE.INTRA.SOLV>
3.29845

>  <SCORE.INTRA.SOLV.lig_0>
-102.332

>  <SCORE.INTRA.VDW>
0.508801

>  <SCORE.INTRA.VDW.0>
-5.08747

>  <SCORE.INTRA.norm>
-0.121265

>  <SCORE.RESTR>
0.00176476

>  <SCORE.RESTR.CAVITY>
0.00176476

>  <SCORE.RESTR.norm>
4.4119e-05

>  <SCORE.SYSTEM>
0

>  <SCORE.SYSTEM.CONST>
0

>  <SCORE.SYSTEM.DIHEDRAL>
0

>  <SCORE.SYSTEM.SOLV>
0

>  <SCORE.SYSTEM.norm>
0

>  <SCORE.heavy>
40

>  <SCORE.norm>
-0.614091

>  <RMSD>
7.354

$$$$
2g5q_lig
 OpenBabel11021811433D
libRbt.so/2013.1/901 2013/11/27
 40 42  0  0  0  0  0  0  0  0999 V2000
    3.1116   -3.1911   22.4090 C   0  0  2  0  0  0  0  0  0  0  0  0
    3.9972   -3.8963   21.5676 O   0  0  0  0  0  0  0  0  0  0  0  0
    2.6259   -1.9113   21.6666 C   0  0  1  0  0  0  0  0  0  0  0  0
    3.7866   -0.8938   21.4407 C   0  0  2  0  0  0  0  0  0  0  0  0
    4.3555   -0.5072   22.8306 C   0  0  2  0  0  0  0  0  0  0  0  0
    5.4150    0.4492   22.6662 O   0  0  0  0  0  0  0  0  0  0  0  0
    4.8797   -1.8234   23.5357 C   0  0  2  0  0  0  0  0  0  0  0  0
    3.7639   -2.8007   23.6866 O   0  0  0  0  0  0  0  0  0  0  0  0
    5.4519   -1.5609   24.9247 C   0  0  0  0  0  0  0  0  0  0  0  0
    6.1302   -2.7699   25.4904 N   0  0  0  0  0  0  0  0  0  0  0  0
    5.8389   -7.8566   21.6097 C   0  0  2  0  0  0  0  0  0  0  0  0
    5.9996   -9.3036   21.6875 N   0  0  0  0  0  0  0  0  0  0  0  0
    5.1924   -7.3036   22.9484 C   0  0  0  0  0  0  0  0  0  0  0  0
    5.0231   -5.7352   22.8712 C   0  0  2  0  0  0  0  0  0  0  0  0
    4.4265   -5.2281   24.1365 N   0  0  0  0  0  0  0  0  0  0  0  0
    4.1282   -5.3622   21.6230 C   0  0  2  0  0  0  0  0  0  0  0  0
    4.8008   -5.9324   20.3117 C   0  0  2  0  0  0  0  0  0  0  0  0
    3.9857   -5.5990   19.1837 O   0  0  0  0  0  0  0  0  0  0  0  0
    4.9461   -7.4994   20.4033 C   0  0  1  0  0  0  0  0  0  0  0  0
    5.5770   -8.0204   19.1997 O   0  0  0  0  0  0  0  0  0  0  0  0
    5.0305   -7.9071   17.9087 C   0  0  2  0  0  0  0  0  0  0  0  0
    3.8075   -8.8823   17.8293 C   0  0  2  0  0  0  0  0  0  0  0  0
    2.8661   -8.5265   18.7902 O   0  0  0  0  0  0  0  0  0  0  0  0
    4.2611  -10.3801   18.0124 C   0  0  1  0  0  0  0  0  0  0  0  0
    3.0969  -11.3227   17.9334 N   0  0  0  0  0  0  0  0  0  0  0  0
    5.3299  -10.7149   16.8975 C   0  0  2  0  0  0  0  0  0  0  0  0
    5.7754  -12.0682   17.0083 O   0  0  0  0  0  0  0  0  0  0  0  0
    6.5231   -9.7096   17.0319 C   0  0  2  0  0  0  0  0  0  0  0  0
    6.0468   -8.2888   16.9118 O   0  0  0  0  0  0  0  0  0  0  0  0
    7.5700   -9.9452   15.9821 C   0  0  0  0  0  0  0  0  0  0  0  0
    7.0497   -9.7078   14.6639 O   0  0  0  0  0  0  0  0  0  0  0  0
    2.0241   -2.3184   20.3898 O   0  0  0  0  0  0  0  0  0  0  0  0
    3.2994    0.2208   20.7944 O   0  0  0  0  0  0  0  0  0  0  0  0
    2.6850  -13.4923   23.9205 N   0  0  0  0  0  0  0  0  0  0  0  0
    4.9701  -10.2147   21.8773 C   0  0  0  0  0  0  0  0  0  0  0  0
    3.7930   -9.8984   22.0103 O   0  0  0  0  0  0  0  0  0  0  0  0
    5.4751  -11.6754   21.9199 C   0  0  1  0  0  0  0  0  0  0  0  0
    4.3092  -12.6282   22.2531 C   0  0  0  0  0  0  0  0  0  0  0  0
    3.7110  -12.4852   23.6574 C   0  0  0  0  0  0  0  0  0  0  0  0
    6.0660  -12.0092   20.6437 O   0  0  0  0  0  0  0  0  0  0  0  0
  1  2  1  6  0  0  0
  1  3  1  0  0  0  0
  1  8  1  0  0  0  0
  3  4  1  0  0  0  0
  3 32  1  6  0  0  0
  4  5  1  0  0  0  0
  4 33  1  1  0  0  0
  5  6  1  6  0  0  0
  5  7  1  0  0  0  0
  7  8  1  0  0  0  0
  7  9  1  1  0  0  0
  9 10  1  0  0  0  0
 11 12  1  1  0  0  0
 11 13  1  0  0  0  0
 11 19  1  0  0  0  0
 12 35  1  0  0  0  0
 13 14  1  0  0  0  0
 14 15  1  1  0  0  0
 14 16  1  0  0  0  0
 16  2  1  6  0  0  0
 16 17  1  0  0  0  0
 17 18  1  6  0  0  0
 17 19  1  0  0  0  0
 19 20  1  6  0  0  0
 21 20  1  1  0  0  0
 21 22  1  0  0  0  0
 21 29  1  0  0  0  0
 22 23  1  1  0  0  0
 22 24  1  0  0  0  0
 24 25  1  6  0  0  0
 24 26  1  0  0  0  0
 26 27  1  1  0  0  0
 26 28  1  0  0  0  0
 28 29  1  0  0  0  0
 28 30  1  6  0  0  0
 30 31  1  0  0  0  0
 34 39  1  0  0  0  0
 35 36  2  0  0  0  0
 37 35  1  6  0  0  0
 37 38  1  0  0  0  0
 37 40  1  0  0  0  0
 38 39  1  0  0  0  0
M  END
>  <CHROM.1>
-149.69394969,-171.26047222,59.53884027,-78.16252637,178.59684843,-72.13952844
63.72292725,175.14354519,-66.33666939,-175.61829799,4.67476861,-6.94796291
20.72528304,2.21412991,1.41165373,-0.25315292

>  <Name>
2g5q_lig

>  <RI>
2.47104e+07

>  <Rbt.Current_Directory>
/home/itssahil/PROJECTS/Mol_Feturizer/New_Systems/rnas/2g5q

>  <Rbt.Executable>
rbdock ($Id: //depot/dev/client3/rdock/2013.1/src/exe/rbdock.cxx#4 $)

>  <Rbt.Library>
libRbt.so (2013.1, Build901 2013/11/27)

>  <Rbt.Parameter_File>
/export/apps/rDock/src/rDock_2013.1_src/data/scripts/dock_solv.prm

>  <Rbt.Receptor>
prm/pocket_docking_7.prm

>  <SCORE>
-20.3591

>  <SCORE.INTER>
-15.6718

>  <SCORE.INTER.CONST>
1

>  <SCORE.INTER.POLAR>
-0.880654

>  <SCORE.INTER.ROT>
10

>  <SCORE.INTER.SOLV>
12.4649

>  <SCORE.INTER.VDW>
-21.934

>  <SCORE.INTER.norm>
-0.391796

>  <SCORE.INTRA>
-4.68728

>  <SCORE.INTRA.DIHEDRAL>
-15.3226

>  <SCORE.INTRA.DIHEDRAL.0>
22.5778

>  <SCORE.INTRA.POLAR>
0

>  <SCORE.INTRA.POLAR.0>
0

>  <SCORE.INTRA.REPUL>
0

>  <SCORE.INTRA.REPUL.0>
0

>  <SCORE.INTRA.SOLV>
4.73281

>  <SCORE.INTRA.SOLV.lig_0>
-102.332

>  <SCORE.INTRA.VDW>
0.607629

>  <SCORE.INTRA.VDW.0>
-5.08747

>  <SCORE.INTRA.norm>
-0.117182

>  <SCORE.RESTR>
0

>  <SCORE.RESTR.CAVITY>
0

>  <SCORE.RESTR.norm>
0

>  <SCORE.SYSTEM>
0

>  <SCORE.SYSTEM.CONST>
0

>  <SCORE.SYSTEM.DIHEDRAL>
0

>  <SCORE.SYSTEM.SOLV>
0

>  <SCORE.SYSTEM.norm>
0

>  <SCORE.heavy>
40

>  <SCORE.norm>
-0.508978

>  <RMSD>
7.356

$$$$
2g5q_lig
 OpenBabel11021811433D
libRbt.so/2013.1/901 2013/11/27
 40 42  0  0  0  0  0  0  0  0999 V2000
    1.7877  -10.5101   13.1464 C   0  0  2  0  0  0  0  0  0  0  0  0
    1.5391  -11.7959   13.6702 O   0  0  0  0  0  0  0  0  0  0  0  0
    2.7485  -10.6414   11.9281 C   0  0  1  0  0  0  0  0  0  0  0  0
    4.1668  -11.1305   12.3557 C   0  0  2  0  0  0  0  0  0  0  0  0
    4.7394  -10.1007   13.3640 C   0  0  2  0  0  0  0  0  0  0  0  0
    6.0585  -10.5048   13.7654 O   0  0  0  0  0  0  0  0  0  0  0  0
    3.7626  -10.0271   14.6067 C   0  0  2  0  0  0  0  0  0  0  0  0
    2.4009   -9.6140   14.1618 O   0  0  0  0  0  0  0  0  0  0  0  0
    4.2243   -9.0277   15.6619 C   0  0  0  0  0  0  0  0  0  0  0  0
    3.3679   -9.0708   16.8893 N   0  0  0  0  0  0  0  0  0  0  0  0
   -1.5382  -13.1190   16.4732 C   0  0  2  0  0  0  0  0  0  0  0  0
   -2.2650  -13.3557   17.7148 N   0  0  0  0  0  0  0  0  0  0  0  0
   -0.1072  -13.8002   16.5369 C   0  0  0  0  0  0  0  0  0  0  0  0
    0.6810  -13.5523   15.1908 C   0  0  2  0  0  0  0  0  0  0  0  0
    2.0163  -14.2053   15.2591 N   0  0  0  0  0  0  0  0  0  0  0  0
    0.8127  -11.9982   14.9354 C   0  0  2  0  0  0  0  0  0  0  0  0
   -0.6299  -11.3555   14.8828 C   0  0  2  0  0  0  0  0  0  0  0  0
   -0.5079   -9.9475   14.6578 O   0  0  0  0  0  0  0  0  0  0  0  0
   -1.3925  -11.6010   16.2404 C   0  0  1  0  0  0  0  0  0  0  0  0
   -2.7253  -11.0188   16.1847 O   0  0  0  0  0  0  0  0  0  0  0  0
   -2.9838   -9.6363   16.1724 C   0  0  2  0  0  0  0  0  0  0  0  0
   -2.7523   -9.1025   17.6266 C   0  0  2  0  0  0  0  0  0  0  0  0
   -1.4372   -9.3493   18.0085 O   0  0  0  0  0  0  0  0  0  0  0  0
   -3.7657   -9.7561   18.6407 C   0  0  1  0  0  0  0  0  0  0  0  0
   -3.5549   -9.2476   20.0362 N   0  0  0  0  0  0  0  0  0  0  0  0
   -5.2338   -9.4438   18.1463 C   0  0  2  0  0  0  0  0  0  0  0  0
   -6.2015  -10.0073   19.0340 O   0  0  0  0  0  0  0  0  0  0  0  0
   -5.4004  -10.0026   16.6928 C   0  0  2  0  0  0  0  0  0  0  0  0
   -4.3808   -9.4033   15.7649 O   0  0  0  0  0  0  0  0  0  0  0  0
   -6.7662   -9.7156   16.1397 C   0  0  0  0  0  0  0  0  0  0  0  0
   -7.7881  -10.3758   16.9045 O   0  0  0  0  0  0  0  0  0  0  0  0
    2.1417  -11.5635   10.9586 O   0  0  0  0  0  0  0  0  0  0  0  0
    4.9763  -11.2157   11.2445 O   0  0  0  0  0  0  0  0  0  0  0  0
   -6.5608  -14.3014   17.5858 N   0  0  0  0  0  0  0  0  0  0  0  0
   -3.4373  -14.0898   17.8291 C   0  0  0  0  0  0  0  0  0  0  0  0
   -4.0051  -14.6231   16.8822 O   0  0  0  0  0  0  0  0  0  0  0  0
   -3.9587  -14.1464   19.2835 C   0  0  1  0  0  0  0  0  0  0  0  0
   -5.1023  -15.1749   19.3953 C   0  0  0  0  0  0  0  0  0  0  0  0
   -6.4946  -14.6705   18.9983 C   0  0  0  0  0  0  0  0  0  0  0  0
   -2.8662  -14.4914   20.1648 O   0  0  0  0  0  0  0  0  0  0  0  0
  1  2  1  1  0  0  0
  1  3  1  0  0  0  0
  1  8  1  0  0  0  0
  3  4  1  0  0  0  0
  3 32  1  6  0  0  0
  4  5  1  0  0  0  0
  4 33  1  6  0  0  0
  5  6  1  1  0  0  0
  5  7  1  0  0  0  0
  7  8  1  0  0  0  0
  7  9  1  1  0  0  0
  9 10  1  0  0  0  0
 11 12  1  1  0  0  0
 11 13  1  0  0  0  0
 11 19  1  0  0  0  0
 12 35  1  0  0  0  0
 13 14  1  0  0  0  0
 14 15  1  1  0  0  0
 14 16  1  0  0  0  0
 16  2  1  6  0  0  0
 16 17  1  0  0  0  0
 17 18  1  1  0  0  0
 17 19  1  0  0  0  0
 19 20  1  6  0  0  0
 21 20  1  1  0  0  0
 21 22  1  0  0  0  0
 21 29  1  0  0  0  0
 22 23  1  1  0  0  0
 22 24  1  0  0  0  0
 24 25  1  1  0  0  0
 24 26  1  0  0  0  0
 26 27  1  1  0  0  0
 26 28  1  0  0  0  0
 28 29  1  0  0  0  0
 28 30  1  6  0  0  0
 30 31  1  0  0  0  0
 34 39  1  0  0  0  0
 35 36  2  0  0  0  0
 37 35  1  6  0  0  0
 37 38  1  0  0  0  0
 37 40  1  0  0  0  0
 38 39  1  0  0  0  0
M  END
>  <CHROM.1>
171.66792251,-174.20263499,-115.67537376,178.32517807,170.69536924,-75.10344790
-63.30047444,-169.69482656,-83.30955268,63.84664099,-1.16176926,-11.40369183
16.05887520,0.21224440,0.46662338,-0.18742569

>  <Name>
2g5q_lig

>  <RI>
2.47104e+07

>  <Rbt.Current_Directory>
/home/itssahil/PROJECTS/Mol_Feturizer/New_Systems/rnas/2g5q

>  <Rbt.Executable>
rbdock ($Id: //depot/dev/client3/rdock/2013.1/src/exe/rbdock.cxx#4 $)

>  <Rbt.Library>
libRbt.so (2013.1, Build901 2013/11/27)

>  <Rbt.Parameter_File>
/export/apps/rDock/src/rDock_2013.1_src/data/scripts/dock_solv.prm

>  <Rbt.Receptor>
prm/pocket_docking_7.prm

>  <SCORE>
-19.4106

>  <SCORE.INTER>
-13.1708

>  <SCORE.INTER.CONST>
1

>  <SCORE.INTER.POLAR>
-2.53224

>  <SCORE.INTER.ROT>
10

>  <SCORE.INTER.SOLV>
10.2241

>  <SCORE.INTER.VDW>
-14.0145

>  <SCORE.INTER.norm>
-0.329271

>  <SCORE.INTRA>
-6.2398

>  <SCORE.INTRA.DIHEDRAL>
-16.7176

>  <SCORE.INTRA.DIHEDRAL.0>
22.5778

>  <SCORE.INTRA.POLAR>
0

>  <SCORE.INTRA.POLAR.0>
0

>  <SCORE.INTRA.REPUL>
0

>  <SCORE.INTRA.REPUL.0>
0

>  <SCORE.INTRA.SOLV>
2.07524

>  <SCORE.INTRA.SOLV.lig_0>
-102.332

>  <SCORE.INTRA.VDW>
1.08138

>  <SCORE.INTRA.VDW.0>
-5.08747

>  <SCORE.INTRA.norm>
-0.155995

>  <SCORE.RESTR>
0

>  <SCORE.RESTR.CAVITY>
0

>  <SCORE.RESTR.norm>
0

>  <SCORE.SYSTEM>
0

>  <SCORE.SYSTEM.CONST>
0

>  <SCORE.SYSTEM.DIHEDRAL>
0

>  <SCORE.SYSTEM.SOLV>
0

>  <SCORE.SYSTEM.norm>
0

>  <SCORE.heavy>
40

>  <SCORE.norm>
-0.485266

>  <RMSD>
7.365

$$$$
2g5q_lig
 OpenBabel11021811433D
libRbt.so/2013.1/901 2013/11/27
 40 42  0  0  0  0  0  0  0  0999 V2000
   -4.4452   -9.6226   17.0343 C   0  0  2  0  0  0  0  0  0  0  0  0
   -3.3499   -8.7367   16.9633 O   0  0  0  0  0  0  0  0  0  0  0  0
   -5.7315   -8.8673   16.5874 C   0  0  1  0  0  0  0  0  0  0  0  0
   -6.1221   -7.7390   17.5914 C   0  0  2  0  0  0  0  0  0  0  0  0
   -6.3570   -8.3967   18.9760 C   0  0  2  0  0  0  0  0  0  0  0  0
   -6.7425   -7.3902   19.9260 O   0  0  0  0  0  0  0  0  0  0  0  0
   -5.0179   -9.1149   19.4176 C   0  0  2  0  0  0  0  0  0  0  0  0
   -4.6368  -10.1475   18.4120 O   0  0  0  0  0  0  0  0  0  0  0  0
   -5.1399   -9.8119   20.7685 C   0  0  0  0  0  0  0  0  0  0  0  0
   -3.8361  -10.3925   21.2209 N   0  0  0  0  0  0  0  0  0  0  0  0
    0.9402   -9.0979   16.2269 C   0  0  2  0  0  0  0  0  0  0  0  0
    2.3302   -9.5222   16.3441 N   0  0  0  0  0  0  0  0  0  0  0  0
    0.4540   -8.4311   17.5815 C   0  0  0  0  0  0  0  0  0  0  0  0
   -1.0494   -7.9634   17.4564 C   0  0  2  0  0  0  0  0  0  0  0  0
   -1.4894   -7.3301   18.7289 N   0  0  0  0  0  0  0  0  0  0  0  0
   -1.9580   -9.2024   17.0858 C   0  0  2  0  0  0  0  0  0  0  0  0
   -1.4413   -9.8412   15.7361 C   0  0  2  0  0  0  0  0  0  0  0  0
   -2.2615  -10.9665   15.4059 O   0  0  0  0  0  0  0  0  0  0  0  0
    0.0547  -10.3147   15.8876 C   0  0  1  0  0  0  0  0  0  0  0  0
    0.5319  -10.8915   14.6394 O   0  0  0  0  0  0  0  0  0  0  0  0
   -0.2078  -11.7909   13.8508 C   0  0  2  0  0  0  0  0  0  0  0  0
   -0.1162  -13.1981   14.5324 C   0  0  2  0  0  0  0  0  0  0  0  0
   -0.6452  -13.1274   15.8176 O   0  0  0  0  0  0  0  0  0  0  0  0
    1.3702  -13.7200   14.5629 C   0  0  1  0  0  0  0  0  0  0  0  0
    1.4678  -15.0698   15.2101 N   0  0  0  0  0  0  0  0  0  0  0  0
    1.9091  -13.7701   13.0782 C   0  0  2  0  0  0  0  0  0  0  0  0
    3.2564  -14.2451   13.0406 O   0  0  0  0  0  0  0  0  0  0  0  0
    1.7925  -12.3376   12.4561 C   0  0  2  0  0  0  0  0  0  0  0  0
    0.3724  -11.8464   12.4971 O   0  0  0  0  0  0  0  0  0  0  0  0
    2.2586  -12.3111   11.0294 C   0  0  0  0  0  0  0  0  0  0  0  0
    2.7480  -11.0102   10.6645 O   0  0  0  0  0  0  0  0  0  0  0  0
   -5.5032   -8.3221   15.2425 O   0  0  0  0  0  0  0  0  0  0  0  0
   -7.2701   -7.1150   17.1552 O   0  0  0  0  0  0  0  0  0  0  0  0
    4.6212  -12.2295   15.1651 N   0  0  0  0  0  0  0  0  0  0  0  0
    3.4084   -8.6788   16.5724 C   0  0  0  0  0  0  0  0  0  0  0  0
    3.3112   -7.4627   16.6953 O   0  0  0  0  0  0  0  0  0  0  0  0
    4.7514   -9.4422   16.6375 C   0  0  1  0  0  0  0  0  0  0  0  0
    5.2145   -9.8191   15.2156 C   0  0  0  0  0  0  0  0  0  0  0  0
    4.4155  -10.9312   14.5264 C   0  0  0  0  0  0  0  0  0  0  0  0
    5.7348   -8.6142   17.2982 O   0  0  0  0  0  0  0  0  0  0  0  0
  1  2  1  1  0  0  0
  1  3  1  0  0  0  0
  1  8  1  0  0  0  0
  3  4  1  0  0  0  0
  3 32  1  6  0  0  0
  4  5  1  0  0  0  0
  4 33  1  6  0  0  0
  5  6  1  1  0  0  0
  5  7  1  0  0  0  0
  7  8  1  0  0  0  0
  7  9  1  1  0  0  0
  9 10  1  0  0  0  0
 11 12  1  1  0  0  0
 11 13  1  0  0  0  0
 11 19  1  0  0  0  0
 12 35  1  0  0  0  0
 13 14  1  0  0  0  0
 14 15  1  1  0  0  0
 14 16  1  0  0  0  0
 16  2  1  6  0  0  0
 16 17  1  0  0  0  0
 17 18  1  1  0  0  0
 17 19  1  0  0  0  0
 19 20  1  6  0  0  0
 21 20  1  1  0  0  0
 21 22  1  0  0  0  0
 21 29  1  0  0  0  0
 22 23  1  1  0  0  0
 22 24  1  0  0  0  0
 24 25  1  6  0  0  0
 24 26  1  0  0  0  0
 26 27  1  1  0  0  0
 26 28  1  0  0  0  0
 28 29  1  0  0  0  0
 28 30  1  6  0  0  0
 30 31  1  0  0  0  0
 34 39  1  0  0  0  0
 35 36  2  0  0  0  0
 37 35  1  6  0  0  0
 37 38  1  0  0  0  0
 37 40  1  0  0  0  0
 38 39  1  0  0  0  0
M  END
>  <CHROM.1>
-168.75794120,-175.47147252,-62.20245646,-160.84597148,-163.61895543,-77.82514177
-152.70168882,76.84402074,-71.91063535,-68.44873131,-0.57617540,-10.21392827
16.06092038,2.58576532,0.08211492,0.81980181

>  <Name>
2g5q_lig

>  <RI>
2.47104e+07

>  <Rbt.Current_Directory>
/home/itssahil/PROJECTS/Mol_Feturizer/New_Systems/rnas/2g5q

>  <Rbt.Executable>
rbdock ($Id: //depot/dev/client3/rdock/2013.1/src/exe/rbdock.cxx#4 $)

>  <Rbt.Library>
libRbt.so (2013.1, Build901 2013/11/27)

>  <Rbt.Parameter_File>
/export/apps/rDock/src/rDock_2013.1_src/data/scripts/dock_solv.prm

>  <Rbt.Receptor>
prm/pocket_docking_7.prm

>  <SCORE>
-16.5801

>  <SCORE.INTER>
-11.866

>  <SCORE.INTER.CONST>
1

>  <SCORE.INTER.POLAR>
-0.913193

>  <SCORE.INTER.ROT>
10

>  <SCORE.INTER.SOLV>
14.2905

>  <SCORE.INTER.VDW>
-19.8968

>  <SCORE.INTER.norm>
-0.296649

>  <SCORE.INTRA>
-4.71411

>  <SCORE.INTRA.DIHEDRAL>
-13.3784

>  <SCORE.INTRA.DIHEDRAL.0>
22.5778

>  <SCORE.INTRA.POLAR>
0

>  <SCORE.INTRA.POLAR.0>
0

>  <SCORE.INTRA.REPUL>
0

>  <SCORE.INTRA.REPUL.0>
0

>  <SCORE.INTRA.SOLV>
3.37828

>  <SCORE.INTRA.SOLV.lig_0>
-102.332

>  <SCORE.INTRA.VDW>
0.285942

>  <SCORE.INTRA.VDW.0>
-5.08747

>  <SCORE.INTRA.norm>
-0.117853

>  <SCORE.RESTR>
0

>  <SCORE.RESTR.CAVITY>
0

>  <SCORE.RESTR.norm>
0

>  <SCORE.SYSTEM>
0

>  <SCORE.SYSTEM.CONST>
0

>  <SCORE.SYSTEM.DIHEDRAL>
0

>  <SCORE.SYSTEM.SOLV>
0

>  <SCORE.SYSTEM.norm>
0

>  <SCORE.heavy>
40

>  <SCORE.norm>
-0.414502

>  <RMSD>
7.425

$$$$
2g5q_lig
 OpenBabel11021811433D
libRbt.so/2013.1/901 2013/11/27
 40 42  0  0  0  0  0  0  0  0999 V2000
    3.4419   -2.0346   21.3279 C   0  0  2  0  0  0  0  0  0  0  0  0
    4.2483   -2.8904   22.1069 O   0  0  0  0  0  0  0  0  0  0  0  0
    3.7120   -0.5622   21.7568 C   0  0  1  0  0  0  0  0  0  0  0  0
    3.2246   -0.2814   23.2119 C   0  0  2  0  0  0  0  0  0  0  0  0
    1.7019   -0.5704   23.2660 C   0  0  2  0  0  0  0  0  0  0  0  0
    1.2091   -0.3006   24.5884 O   0  0  0  0  0  0  0  0  0  0  0  0
    1.4699   -2.0845   22.8688 C   0  0  2  0  0  0  0  0  0  0  0  0
    1.9967   -2.3390   21.4975 O   0  0  0  0  0  0  0  0  0  0  0  0
   -0.0037   -2.4771   22.8753 C   0  0  0  0  0  0  0  0  0  0  0  0
   -0.8260   -1.5872   21.9957 N   0  0  0  0  0  0  0  0  0  0  0  0
    5.0849   -7.1377   21.5260 C   0  0  2  0  0  0  0  0  0  0  0  0
    4.9383   -8.5883   21.5405 N   0  0  0  0  0  0  0  0  0  0  0  0
    5.0376   -6.5667   23.0050 C   0  0  0  0  0  0  0  0  0  0  0  0
    5.2033   -4.9961   22.9944 C   0  0  2  0  0  0  0  0  0  0  0  0
    5.1685   -4.4745   24.3875 N   0  0  0  0  0  0  0  0  0  0  0  0
    4.0630   -4.3515   22.1099 C   0  0  2  0  0  0  0  0  0  0  0  0
    4.1394   -4.9468   20.6482 C   0  0  2  0  0  0  0  0  0  0  0  0
    3.1022   -4.3665   19.8509 O   0  0  0  0  0  0  0  0  0  0  0  0
    3.9564   -6.5122   20.6802 C   0  0  1  0  0  0  0  0  0  0  0  0
    4.0394   -7.0592   19.3340 O   0  0  0  0  0  0  0  0  0  0  0  0
    2.9910   -7.0160   18.3975 C   0  0  2  0  0  0  0  0  0  0  0  0
    1.9740   -8.1444   18.7791 C   0  0  2  0  0  0  0  0  0  0  0  0
    1.4897   -7.9187   20.0640 O   0  0  0  0  0  0  0  0  0  0  0  0
    2.6374   -9.5694   18.6693 C   0  0  1  0  0  0  0  0  0  0  0  0
    1.6694  -10.6577   19.0286 N   0  0  0  0  0  0  0  0  0  0  0  0
    3.1688   -9.7570   17.1929 C   0  0  2  0  0  0  0  0  0  0  0  0
    3.7772  -11.0397   17.0292 O   0  0  0  0  0  0  0  0  0  0  0  0
    4.1786   -8.6029   16.8754 C   0  0  2  0  0  0  0  0  0  0  0  0
    3.5305   -7.2574   17.0474 O   0  0  0  0  0  0  0  0  0  0  0  0
    4.7059   -8.6953   15.4729 C   0  0  0  0  0  0  0  0  0  0  0  0
    5.2438   -7.4372   15.0338 O   0  0  0  0  0  0  0  0  0  0  0  0
    5.1507   -0.2981   21.6213 O   0  0  0  0  0  0  0  0  0  0  0  0
    3.4753    1.0344   23.5330 O   0  0  0  0  0  0  0  0  0  0  0  0
    6.0447  -14.1230   18.8741 N   0  0  0  0  0  0  0  0  0  0  0  0
    5.4824   -9.4576   20.6054 C   0  0  0  0  0  0  0  0  0  0  0  0
    6.1512   -9.0959   19.6435 O   0  0  0  0  0  0  0  0  0  0  0  0
    5.1365  -10.9351   20.9018 C   0  0  1  0  0  0  0  0  0  0  0  0
    5.7781  -11.8513   19.8401 C   0  0  0  0  0  0  0  0  0  0  0  0
    5.3941  -13.3335   19.9179 C   0  0  0  0  0  0  0  0  0  0  0  0
    5.6044  -11.2739   22.2268 O   0  0  0  0  0  0  0  0  0  0  0  0
  1  2  1  1  0  0  0
  1  3  1  0  0  0  0
  1  8  1  0  0  0  0
  3  4  1  0  0  0  0
  3 32  1  1  0  0  0
  4  5  1  0  0  0  0
  4 33  1  6  0  0  0
  5  6  1  1  0  0  0
  5  7  1  0  0  0  0
  7  8  1  0  0  0  0
  7  9  1  6  0  0  0
  9 10  1  0  0  0  0
 11 12  1  1  0  0  0
 11 13  1  0  0  0  0
 11 19  1  0  0  0  0
 12 35  1  0  0  0  0
 13 14  1  0  0  0  0
 14 15  1  1  0  0  0
 14 16  1  0  0  0  0
 16  2  1  6  0  0  0
 16 17  1  0  0  0  0
 17 18  1  6  0  0  0
 17 19  1  0  0  0  0
 19 20  1  6  0  0  0
 21 20  1  1  0  0  0
 21 22  1  0  0  0  0
 21 29  1  0  0  0  0
 22 23  1  1  0  0  0
 22 24  1  0  0  0  0
 24 25  1  6  0  0  0
 24 26  1  0  0  0  0
 26 27  1  1  0  0  0
 26 28  1  0  0  0  0
 28 29  1  0  0  0  0
 28 30  1  6  0  0  0
 30 31  1  0  0  0  0
 34 39  1  0  0  0  0
 35 36  2  0  0  0  0
 37 35  1  6  0  0  0
 37 38  1  0  0  0  0
 37 40  1  0  0  0  0
 38 39  1  0  0  0  0
M  END
>  <CHROM.1>
169.27850164,55.35681747,-150.33361396,175.49834132,161.92128732,-78.30260718
160.14658892,-179.45060761,-173.57536859,179.85989519,3.71456074,-6.21134997
20.54106816,1.98874672,-1.07870725,0.78269668

>  <Name>
2g5q_lig

>  <RI>
2.90231e+07

>  <Rbt.Current_Directory>
/home/itssahil/PROJECTS/Mol_Feturizer/New_Systems/rnas/2g5q

>  <Rbt.Executable>
rbdock ($Id: //depot/dev/client3/rdock/2013.1/src/exe/rbdock.cxx#4 $)

>  <Rbt.Library>
libRbt.so (2013.1, Build901 2013/11/27)

>  <Rbt.Parameter_File>
/export/apps/rDock/src/rDock_2013.1_src/data/scripts/dock_solv.prm

>  <Rbt.Receptor>
prm/pocket_docking_6.prm

>  <SCORE>
-22.9403

>  <SCORE.INTER>
-15.5018

>  <SCORE.INTER.CONST>
1

>  <SCORE.INTER.POLAR>
-0.624531

>  <SCORE.INTER.ROT>
10

>  <SCORE.INTER.SOLV>
16.5975

>  <SCORE.INTER.VDW>
-24.0519

>  <SCORE.INTER.norm>
-0.387545

>  <SCORE.INTRA>
-7.43852

>  <SCORE.INTRA.DIHEDRAL>
-15.9916

>  <SCORE.INTRA.DIHEDRAL.0>
22.5778

>  <SCORE.INTRA.POLAR>
0

>  <SCORE.INTRA.POLAR.0>
0

>  <SCORE.INTRA.REPUL>
0

>  <SCORE.INTRA.REPUL.0>
0

>  <SCORE.INTRA.SOLV>
2.09244

>  <SCORE.INTRA.SOLV.lig_0>
-102.332

>  <SCORE.INTRA.VDW>
-0.488936

>  <SCORE.INTRA.VDW.0>
-5.08747

>  <SCORE.INTRA.norm>
-0.185963

>  <SCORE.RESTR>
0

>  <SCORE.RESTR.CAVITY>
0

>  <SCORE.RESTR.norm>
0

>  <SCORE.SYSTEM>
0

>  <SCORE.SYSTEM.CONST>
0

>  <SCORE.SYSTEM.DIHEDRAL>
0

>  <SCORE.SYSTEM.SOLV>
0

>  <SCORE.SYSTEM.norm>
0

>  <SCORE.heavy>
40

>  <SCORE.norm>
-0.573508

>  <RMSD>
7.435

$$$$
2g5q_lig
 OpenBabel11021811433D
libRbt.so/2013.1/901 2013/11/27
 40 42  0  0  0  0  0  0  0  0999 V2000
   -4.1899  -10.2903   17.2317 C   0  0  2  0  0  0  0  0  0  0  0  0
   -3.3985   -9.1231   17.2607 O   0  0  0  0  0  0  0  0  0  0  0  0
   -5.6418   -9.9025   16.8237 C   0  0  1  0  0  0  0  0  0  0  0  0
   -6.3382   -9.0287   17.9123 C   0  0  2  0  0  0  0  0  0  0  0  0
   -6.3665   -9.8461   19.2299 C   0  0  2  0  0  0  0  0  0  0  0  0
   -7.0230   -9.0820   20.2544 O   0  0  0  0  0  0  0  0  0  0  0  0
   -4.8749  -10.1829   19.6369 C   0  0  2  0  0  0  0  0  0  0  0  0
   -4.2153  -10.9680   18.5546 O   0  0  0  0  0  0  0  0  0  0  0  0
   -4.7839  -11.0022   20.9199 C   0  0  0  0  0  0  0  0  0  0  0  0
   -3.3651  -11.2450   21.3319 N   0  0  0  0  0  0  0  0  0  0  0  0
    0.8750   -8.4590   16.6495 C   0  0  2  0  0  0  0  0  0  0  0  0
    2.3176   -8.4682   16.8605 N   0  0  0  0  0  0  0  0  0  0  0  0
    0.1507   -7.7056   17.8426 C   0  0  0  0  0  0  0  0  0  0  0  0
   -1.4120   -7.6871   17.6143 C   0  0  2  0  0  0  0  0  0  0  0  0
   -2.0781   -6.9683   18.7339 N   0  0  0  0  0  0  0  0  0  0  0  0
   -1.9436   -9.1699   17.4851 C   0  0  2  0  0  0  0  0  0  0  0  0
   -1.1975   -9.8879   16.2915 C   0  0  2  0  0  0  0  0  0  0  0  0
   -1.6758  -11.2321   16.1805 O   0  0  0  0  0  0  0  0  0  0  0  0
    0.3580   -9.9089   16.5468 C   0  0  1  0  0  0  0  0  0  0  0  0
    1.0438  -10.5598   15.4403 O   0  0  0  0  0  0  0  0  0  0  0  0
    0.8363  -10.2426   14.0859 C   0  0  2  0  0  0  0  0  0  0  0  0
    0.5673  -11.5851   13.3253 C   0  0  2  0  0  0  0  0  0  0  0  0
   -0.5588  -12.2042   13.8591 O   0  0  0  0  0  0  0  0  0  0  0  0
    1.8199  -12.5386   13.3931 C   0  0  1  0  0  0  0  0  0  0  0  0
    1.5736  -13.8258   12.6632 N   0  0  0  0  0  0  0  0  0  0  0  0
    3.0592  -11.7744   12.7788 C   0  0  2  0  0  0  0  0  0  0  0  0
    4.2288  -12.5950   12.8061 O   0  0  0  0  0  0  0  0  0  0  0  0
    3.2755  -10.4473   13.5818 C   0  0  2  0  0  0  0  0  0  0  0  0
    2.0419   -9.5889   13.5462 O   0  0  0  0  0  0  0  0  0  0  0  0
    4.4218   -9.6469   13.0351 C   0  0  0  0  0  0  0  0  0  0  0  0
    4.2731   -8.2497   13.3364 O   0  0  0  0  0  0  0  0  0  0  0  0
   -5.5870   -9.1977   15.5359 O   0  0  0  0  0  0  0  0  0  0  0  0
   -7.6196   -8.7269   17.5068 O   0  0  0  0  0  0  0  0  0  0  0  0
    5.6999  -11.6153   17.7790 N   0  0  0  0  0  0  0  0  0  0  0  0
    2.9549   -8.8915   18.0185 C   0  0  0  0  0  0  0  0  0  0  0  0
    2.3657   -9.3044   19.0112 O   0  0  0  0  0  0  0  0  0  0  0  0
    4.4932   -8.7682   17.9242 C   0  0  1  0  0  0  0  0  0  0  0  0
    5.0065   -9.5047   16.6702 C   0  0  0  0  0  0  0  0  0  0  0  0
    4.8992  -11.0337   16.7036 C   0  0  0  0  0  0  0  0  0  0  0  0
    4.8543   -7.3692   17.8851 O   0  0  0  0  0  0  0  0  0  0  0  0
  1  2  1  1  0  0  0
  1  3  1  0  0  0  0
  1  8  1  0  0  0  0
  3  4  1  0  0  0  0
  3 32  1  6  0  0  0
  4  5  1  0  0  0  0
  4 33  1  6  0  0  0
  5  6  1  1  0  0  0
  5  7  1  0  0  0  0
  7  8  1  0  0  0  0
  7  9  1  1  0  0  0
  9 10  1  0  0  0  0
 11 12  1  1  0  0  0
 11 13  1  0  0  0  0
 11 19  1  0  0  0  0
 12 35  1  0  0  0  0
 13 14  1  0  0  0  0
 14 15  1  1  0  0  0
 14 16  1  0  0  0  0
 16  2  1  6  0  0  0
 16 17  1  0  0  0  0
 17 18  1  1  0  0  0
 17 19  1  0  0  0  0
 19 20  1  6  0  0  0
 21 20  1  1  0  0  0
 21 22  1  0  0  0  0
 21 29  1  0  0  0  0
 22 23  1  1  0  0  0
 22 24  1  0  0  0  0
 24 25  1  6  0  0  0
 24 26  1  0  0  0  0
 26 27  1  1  0  0  0
 26 28  1  0  0  0  0
 28 29  1  0  0  0  0
 28 30  1  6  0  0  0
 30 31  1  0  0  0  0
 34 39  1  0  0  0  0
 35 36  2  0  0  0  0
 37 35  1  6  0  0  0
 37 38  1  0  0  0  0
 37 40  1  0  0  0  0
 38 39  1  0  0  0  0
M  END
>  <CHROM.1>
-173.95962671,-176.75107444,51.92198405,-173.80073562,-69.57149690,-129.60922818
154.72005807,-53.97682940,-69.25082099,-62.22908136,-0.29536711,-9.94450648
16.54453854,2.76179483,0.11106322,1.09611739

>  <Name>
2g5q_lig

>  <RI>
2.47104e+07

>  <Rbt.Current_Directory>
/home/itssahil/PROJECTS/Mol_Feturizer/New_Systems/rnas/2g5q

>  <Rbt.Executable>
rbdock ($Id: //depot/dev/client3/rdock/2013.1/src/exe/rbdock.cxx#4 $)

>  <Rbt.Library>
libRbt.so (2013.1, Build901 2013/11/27)

>  <Rbt.Parameter_File>
/export/apps/rDock/src/rDock_2013.1_src/data/scripts/dock_solv.prm

>  <Rbt.Receptor>
prm/pocket_docking_7.prm

>  <SCORE>
-19.6329

>  <SCORE.INTER>
-13.9574

>  <SCORE.INTER.CONST>
1

>  <SCORE.INTER.POLAR>
-2.93138

>  <SCORE.INTER.ROT>
10

>  <SCORE.INTER.SOLV>
14.1396

>  <SCORE.INTER.VDW>
-14.5135

>  <SCORE.INTER.norm>
-0.348935

>  <SCORE.INTRA>
-5.67547

>  <SCORE.INTRA.DIHEDRAL>
-11.7819

>  <SCORE.INTRA.DIHEDRAL.0>
22.5778

>  <SCORE.INTRA.POLAR>
0

>  <SCORE.INTRA.POLAR.0>
0

>  <SCORE.INTRA.REPUL>
0

>  <SCORE.INTRA.REPUL.0>
0

>  <SCORE.INTRA.SOLV>
0.80395

>  <SCORE.INTRA.SOLV.lig_0>
-102.332

>  <SCORE.INTRA.VDW>
-0.186488

>  <SCORE.INTRA.VDW.0>
-5.08747

>  <SCORE.INTRA.norm>
-0.141887

>  <SCORE.RESTR>
0

>  <SCORE.RESTR.CAVITY>
0

>  <SCORE.RESTR.norm>
0

>  <SCORE.SYSTEM>
0

>  <SCORE.SYSTEM.CONST>
0

>  <SCORE.SYSTEM.DIHEDRAL>
0

>  <SCORE.SYSTEM.SOLV>
0

>  <SCORE.SYSTEM.norm>
0

>  <SCORE.heavy>
40

>  <SCORE.norm>
-0.490822

>  <RMSD>
7.452

$$$$
2g5q_lig
 OpenBabel11021811433D
libRbt.so/2013.1/901 2013/11/27
 40 42  0  0  0  0  0  0  0  0999 V2000
   -3.9014   -9.8050   17.1881 C   0  0  2  0  0  0  0  0  0  0  0  0
   -2.8891   -8.8313   17.0598 O   0  0  0  0  0  0  0  0  0  0  0  0
   -5.2610   -9.1745   16.7653 C   0  0  1  0  0  0  0  0  0  0  0  0
   -5.7166   -8.0570   17.7538 C   0  0  2  0  0  0  0  0  0  0  0  0
   -5.8516   -8.6947   19.1609 C   0  0  2  0  0  0  0  0  0  0  0  0
   -6.2932   -7.6994   20.0984 O   0  0  0  0  0  0  0  0  0  0  0  0
   -4.4428   -9.2839   19.5759 C   0  0  2  0  0  0  0  0  0  0  0  0
   -4.0051  -10.3070   18.5836 O   0  0  0  0  0  0  0  0  0  0  0  0
   -4.4632   -9.9521   20.9465 C   0  0  0  0  0  0  0  0  0  0  0  0
   -3.1018  -10.4116   21.3677 N   0  0  0  0  0  0  0  0  0  0  0  0
    1.4729   -8.7405   16.8560 C   0  0  2  0  0  0  0  0  0  0  0  0
    2.8751   -8.9882   17.1696 N   0  0  0  0  0  0  0  0  0  0  0  0
    0.7534   -8.0340   18.0803 C   0  0  0  0  0  0  0  0  0  0  0  0
   -0.7643   -7.7574   17.7421 C   0  0  2  0  0  0  0  0  0  0  0  0
   -1.4246   -7.0848   18.8935 N   0  0  0  0  0  0  0  0  0  0  0  0
   -1.4813   -9.1192   17.3826 C   0  0  2  0  0  0  0  0  0  0  0  0
   -0.7352   -9.7941   16.1641 C   0  0  2  0  0  0  0  0  0  0  0  0
   -1.3822  -11.0300   15.8446 O   0  0  0  0  0  0  0  0  0  0  0  0
    0.7725  -10.0754   16.5282 C   0  0  1  0  0  0  0  0  0  0  0  0
    1.4603  -10.6857   15.4000 O   0  0  0  0  0  0  0  0  0  0  0  0
    1.4787  -10.1474   14.1007 C   0  0  2  0  0  0  0  0  0  0  0  0
    1.7516  -11.3274   13.1075 C   0  0  2  0  0  0  0  0  0  0  0  0
    0.7428  -12.2784   13.2271 O   0  0  0  0  0  0  0  0  0  0  0  0
    3.1665  -11.9715   13.3642 C   0  0  1  0  0  0  0  0  0  0  0  0
    3.4392  -13.1002   12.4144 N   0  0  0  0  0  0  0  0  0  0  0  0
    4.2605  -10.8404   13.2191 C   0  0  2  0  0  0  0  0  0  0  0  0
    5.5710  -11.3680   13.4346 O   0  0  0  0  0  0  0  0  0  0  0  0
    3.9328   -9.6957   14.2364 C   0  0  2  0  0  0  0  0  0  0  0  0
    2.5541   -9.1445   14.0016 O   0  0  0  0  0  0  0  0  0  0  0  0
    4.9150   -8.5648   14.1365 C   0  0  0  0  0  0  0  0  0  0  0  0
    4.4724   -7.4216   14.8863 O   0  0  0  0  0  0  0  0  0  0  0  0
   -5.1217   -8.6483   15.4008 O   0  0  0  0  0  0  0  0  0  0  0  0
   -6.9268   -7.5452   17.3404 O   0  0  0  0  0  0  0  0  0  0  0  0
    5.0340   -9.5424   21.6082 N   0  0  0  0  0  0  0  0  0  0  0  0
    3.7816   -8.0285   17.5979 C   0  0  0  0  0  0  0  0  0  0  0  0
    3.5013   -6.8453   17.7554 O   0  0  0  0  0  0  0  0  0  0  0  0
    5.1919   -8.6146   17.8384 C   0  0  1  0  0  0  0  0  0  0  0  0
    5.5073   -8.6304   19.3479 C   0  0  0  0  0  0  0  0  0  0  0  0
    4.6379   -9.5610   20.2015 C   0  0  0  0  0  0  0  0  0  0  0  0
    5.2508   -9.9485   17.2847 O   0  0  0  0  0  0  0  0  0  0  0  0
  1  2  1  1  0  0  0
  1  3  1  0  0  0  0
  1  8  1  0  0  0  0
  3  4  1  0  0  0  0
  3 32  1  6  0  0  0
  4  5  1  0  0  0  0
  4 33  1  6  0  0  0
  5  6  1  1  0  0  0
  5  7  1  0  0  0  0
  7  8  1  0  0  0  0
  7  9  1  1  0  0  0
  9 10  1  0  0  0  0
 11 12  1  1  0  0  0
 11 13  1  0  0  0  0
 11 19  1  0  0  0  0
 12 35  1  0  0  0  0
 13 14  1  0  0  0  0
 14 15  1  1  0  0  0
 14 16  1  0  0  0  0
 16  2  1  6  0  0  0
 16 17  1  0  0  0  0
 17 18  1  1  0  0  0
 17 19  1  0  0  0  0
 19 20  1  6  0  0  0
 21 20  1  1  0  0  0
 21 22  1  0  0  0  0
 21 29  1  0  0  0  0
 22 23  1  1  0  0  0
 22 24  1  0  0  0  0
 24 25  1  6  0  0  0
 24 26  1  0  0  0  0
 26 27  1  1  0  0  0
 26 28  1  0  0  0  0
 28 29  1  0  0  0  0
 28 30  1  6  0  0  0
 30 31  1  0  0  0  0
 34 39  1  0  0  0  0
 35 36  2  0  0  0  0
 37 35  1  1  0  0  0
 37 38  1  0  0  0  0
 37 40  1  0  0  0  0
 38 39  1  0  0  0  0
M  END
>  <CHROM.1>
-179.87058587,-175.68360912,-54.08368343,-155.62331926,-66.23720957,-156.06322101
169.28088464,-110.05182922,65.57480407,178.22121886,0.30145771,-9.41695586
16.80899323,2.80043931,0.00771215,1.20531041

>  <Name>
2g5q_lig

>  <RI>
9.52566e+06

>  <Rbt.Current_Directory>
/home/itssahil/PROJECTS/Mol_Feturizer/New_Systems/rnas/2g5q

>  <Rbt.Executable>
rbdock ($Id: //depot/dev/client3/rdock/2013.1/src/exe/rbdock.cxx#4 $)

>  <Rbt.Library>
libRbt.so (2013.1, Build901 2013/11/27)

>  <Rbt.Parameter_File>
/export/apps/rDock/src/rDock_2013.1_src/data/scripts/dock_solv.prm

>  <Rbt.Receptor>
prm/pocket_docking_4.prm

>  <SCORE>
-21.4456

>  <SCORE.INTER>
-14.2744

>  <SCORE.INTER.CONST>
1

>  <SCORE.INTER.POLAR>
-2.39289

>  <SCORE.INTER.ROT>
10

>  <SCORE.INTER.SOLV>
13.6503

>  <SCORE.INTER.VDW>
-16.3567

>  <SCORE.INTER.norm>
-0.35686

>  <SCORE.INTRA>
-7.17123

>  <SCORE.INTRA.DIHEDRAL>
-14.3963

>  <SCORE.INTRA.DIHEDRAL.0>
22.5778

>  <SCORE.INTRA.POLAR>
0

>  <SCORE.INTRA.POLAR.0>
0

>  <SCORE.INTRA.REPUL>
0

>  <SCORE.INTRA.REPUL.0>
0

>  <SCORE.INTRA.SOLV>
1.55184

>  <SCORE.INTRA.SOLV.lig_0>
-102.332

>  <SCORE.INTRA.VDW>
-0.748991

>  <SCORE.INTRA.VDW.0>
-5.08747

>  <SCORE.INTRA.norm>
-0.179281

>  <SCORE.RESTR>
0

>  <SCORE.RESTR.CAVITY>
0

>  <SCORE.RESTR.norm>
0

>  <SCORE.SYSTEM>
0

>  <SCORE.SYSTEM.CONST>
0

>  <SCORE.SYSTEM.DIHEDRAL>
0

>  <SCORE.SYSTEM.SOLV>
0

>  <SCORE.SYSTEM.norm>
0

>  <SCORE.heavy>
40

>  <SCORE.norm>
-0.53614

>  <RMSD>
7.466

$$$$
2g5q_lig
 OpenBabel11021811433D
libRbt.so/2013.1/901 2013/11/27
 40 42  0  0  0  0  0  0  0  0999 V2000
    1.5244  -10.5794   14.0342 C   0  0  2  0  0  0  0  0  0  0  0  0
    1.4688  -11.3390   15.2214 O   0  0  0  0  0  0  0  0  0  0  0  0
    1.9454  -11.5123   12.8606 C   0  0  1  0  0  0  0  0  0  0  0  0
    3.4096  -12.0256   13.0220 C   0  0  2  0  0  0  0  0  0  0  0  0
    4.3436  -10.7885   13.0669 C   0  0  2  0  0  0  0  0  0  0  0  0
    5.7079  -11.2216   13.1921 O   0  0  0  0  0  0  0  0  0  0  0  0
    3.9159   -9.8883   14.2960 C   0  0  2  0  0  0  0  0  0  0  0  0
    2.4959   -9.4597   14.1452 O   0  0  0  0  0  0  0  0  0  0  0  0
    4.7648   -8.6283   14.4283 C   0  0  0  0  0  0  0  0  0  0  0  0
    6.1824   -8.9418   14.7939 N   0  0  0  0  0  0  0  0  0  0  0  0
   -0.9435  -11.0119   18.8478 C   0  0  2  0  0  0  0  0  0  0  0  0
   -1.4880  -10.5080   20.1029 N   0  0  0  0  0  0  0  0  0  0  0  0
    0.6144  -11.2728   18.9911 C   0  0  0  0  0  0  0  0  0  0  0  0
    1.2071  -11.8257   17.6356 C   0  0  2  0  0  0  0  0  0  0  0  0
    2.6660  -12.0766   17.7866 N   0  0  0  0  0  0  0  0  0  0  0  0
    0.9178  -10.7939   16.4738 C   0  0  2  0  0  0  0  0  0  0  0  0
   -0.6406  -10.5569   16.3647 C   0  0  2  0  0  0  0  0  0  0  0  0
   -0.8997   -9.6177   15.3164 O   0  0  0  0  0  0  0  0  0  0  0  0
   -1.2085   -9.9910   17.7220 C   0  0  1  0  0  0  0  0  0  0  0  0
   -2.6459   -9.7852   17.6227 O   0  0  0  0  0  0  0  0  0  0  0  0
   -3.2486   -8.7853   16.8385 C   0  0  2  0  0  0  0  0  0  0  0  0
   -4.0571   -7.8546   17.8046 C   0  0  2  0  0  0  0  0  0  0  0  0
   -3.1924   -7.2884   18.7364 O   0  0  0  0  0  0  0  0  0  0  0  0
   -5.2162   -8.6465   18.5201 C   0  0  1  0  0  0  0  0  0  0  0  0
   -5.9996   -7.7622   19.4446 N   0  0  0  0  0  0  0  0  0  0  0  0
   -6.1538   -9.2657   17.4088 C   0  0  2  0  0  0  0  0  0  0  0  0
   -7.2329   -9.9930   17.9994 O   0  0  0  0  0  0  0  0  0  0  0  0
   -5.2886  -10.1838   16.4807 C   0  0  2  0  0  0  0  0  0  0  0  0
   -4.1575   -9.4111   15.8615 O   0  0  0  0  0  0  0  0  0  0  0  0
   -6.1068  -10.7869   15.3760 C   0  0  0  0  0  0  0  0  0  0  0  0
   -6.6214   -9.7745   14.4954 O   0  0  0  0  0  0  0  0  0  0  0  0
    0.9968  -12.6322   12.7976 O   0  0  0  0  0  0  0  0  0  0  0  0
    3.7326  -12.8325   11.9533 O   0  0  0  0  0  0  0  0  0  0  0  0
   -6.4327   -9.1355   23.5911 N   0  0  0  0  0  0  0  0  0  0  0  0
   -2.7815  -10.7221   20.5581 C   0  0  0  0  0  0  0  0  0  0  0  0
   -3.6258  -11.3630   19.9419 O   0  0  0  0  0  0  0  0  0  0  0  0
   -3.0459  -10.0470   21.9237 C   0  0  1  0  0  0  0  0  0  0  0  0
   -4.5619   -9.9909   22.2008 C   0  0  0  0  0  0  0  0  0  0  0  0
   -4.9803   -9.2498   23.4760 C   0  0  0  0  0  0  0  0  0  0  0  0
   -2.3591  -10.7869   22.9582 O   0  0  0  0  0  0  0  0  0  0  0  0
  1  2  1  1  0  0  0
  1  3  1  0  0  0  0
  1  8  1  0  0  0  0
  3  4  1  0  0  0  0
  3 32  1  1  0  0  0
  4  5  1  0  0  0  0
  4 33  1  6  0  0  0
  5  6  1  1  0  0  0
  5  7  1  0  0  0  0
  7  8  1  0  0  0  0
  7  9  1  6  0  0  0
  9 10  1  0  0  0  0
 11 12  1  1  0  0  0
 11 13  1  0  0  0  0
 11 19  1  0  0  0  0
 12 35  1  0  0  0  0
 13 14  1  0  0  0  0
 14 15  1  1  0  0  0
 14 16  1  0  0  0  0
 16  2  1  6  0  0  0
 16 17  1  0  0  0  0
 17 18  1  6  0  0  0
 17 19  1  0  0  0  0
 19 20  1  6  0  0  0
 21 20  1  1  0  0  0
 21 22  1  0  0  0  0
 21 29  1  0  0  0  0
 22 23  1  1  0  0  0
 22 24  1  0  0  0  0
 24 25  1  1  0  0  0
 24 26  1  0  0  0  0
 26 27  1  1  0  0  0
 26 28  1  0  0  0  0
 28 29  1  0  0  0  0
 28 30  1  6  0  0  0
 30 31  1  0  0  0  0
 34 39  1  0  0  0  0
 35 36  2  0  0  0  0
 37 35  1  6  0  0  0
 37 38  1  0  0  0  0
 37 40  1  0  0  0  0
 38 39  1  0  0  0  0
M  END
>  <CHROM.1>
-171.15214291,-67.24621254,-149.58426339,-171.71066696,170.60092085,-119.05505119
63.79491432,164.99289877,-175.54882391,174.52382252,-1.18397334,-10.21562755
17.07096849,0.61973007,0.14561166,-1.59706897

>  <Name>
2g5q_lig

>  <RI>
2.90231e+07

>  <Rbt.Current_Directory>
/home/itssahil/PROJECTS/Mol_Feturizer/New_Systems/rnas/2g5q

>  <Rbt.Executable>
rbdock ($Id: //depot/dev/client3/rdock/2013.1/src/exe/rbdock.cxx#4 $)

>  <Rbt.Library>
libRbt.so (2013.1, Build901 2013/11/27)

>  <Rbt.Parameter_File>
/export/apps/rDock/src/rDock_2013.1_src/data/scripts/dock_solv.prm

>  <Rbt.Receptor>
prm/pocket_docking_6.prm

>  <SCORE>
-12.4251

>  <SCORE.INTER>
-6.67777

>  <SCORE.INTER.CONST>
1

>  <SCORE.INTER.POLAR>
-1.71597

>  <SCORE.INTER.ROT>
10

>  <SCORE.INTER.SOLV>
7.74432

>  <SCORE.INTER.VDW>
-11.5801

>  <SCORE.INTER.norm>
-0.166944

>  <SCORE.INTRA>
-5.74729

>  <SCORE.INTRA.DIHEDRAL>
-12.1647

>  <SCORE.INTRA.DIHEDRAL.0>
22.5778

>  <SCORE.INTRA.POLAR>
0

>  <SCORE.INTRA.POLAR.0>
0

>  <SCORE.INTRA.REPUL>
0

>  <SCORE.INTRA.REPUL.0>
0

>  <SCORE.INTRA.SOLV>
1.15205

>  <SCORE.INTRA.SOLV.lig_0>
-102.332

>  <SCORE.INTRA.VDW>
-0.240952

>  <SCORE.INTRA.VDW.0>
-5.08747

>  <SCORE.INTRA.norm>
-0.143682

>  <SCORE.RESTR>
0

>  <SCORE.RESTR.CAVITY>
0

>  <SCORE.RESTR.norm>
0

>  <SCORE.SYSTEM>
0

>  <SCORE.SYSTEM.CONST>
0

>  <SCORE.SYSTEM.DIHEDRAL>
0

>  <SCORE.SYSTEM.SOLV>
0

>  <SCORE.SYSTEM.norm>
0

>  <SCORE.heavy>
40

>  <SCORE.norm>
-0.310626

>  <RMSD>
7.470

$$$$
2g5q_lig
 OpenBabel11021811433D
libRbt.so/2013.1/901 2013/11/27
 40 42  0  0  0  0  0  0  0  0999 V2000
   -3.9572   -9.7957   17.1819 C   0  0  2  0  0  0  0  0  0  0  0  0
   -2.9460   -8.8204   17.0565 O   0  0  0  0  0  0  0  0  0  0  0  0
   -5.3184   -9.1638   16.7667 C   0  0  1  0  0  0  0  0  0  0  0  0
   -5.7720   -8.0525   17.7631 C   0  0  2  0  0  0  0  0  0  0  0  0
   -5.9026   -8.6987   19.1667 C   0  0  2  0  0  0  0  0  0  0  0  0
   -6.3422   -7.7094   20.1114 O   0  0  0  0  0  0  0  0  0  0  0  0
   -4.4922   -9.2893   19.5742 C   0  0  2  0  0  0  0  0  0  0  0  0
   -4.0565  -10.3061   18.5746 O   0  0  0  0  0  0  0  0  0  0  0  0
   -4.5081   -9.9657   20.9409 C   0  0  0  0  0  0  0  0  0  0  0  0
   -5.4341  -11.1418   20.9748 N   0  0  0  0  0  0  0  0  0  0  0  0
    1.4057   -8.7902   16.6830 C   0  0  2  0  0  0  0  0  0  0  0  0
    2.8158   -9.0513   16.9462 N   0  0  0  0  0  0  0  0  0  0  0  0
    0.7431   -8.0553   17.9227 C   0  0  0  0  0  0  0  0  0  0  0  0
   -0.7830   -7.7640   17.6389 C   0  0  2  0  0  0  0  0  0  0  0  0
   -1.3896   -7.0650   18.8039 N   0  0  0  0  0  0  0  0  0  0  0  0
   -1.5304   -9.1218   17.3293 C   0  0  2  0  0  0  0  0  0  0  0  0
   -0.8407   -9.8254   16.0939 C   0  0  2  0  0  0  0  0  0  0  0  0
   -1.5150  -11.0575   15.8196 O   0  0  0  0  0  0  0  0  0  0  0  0
    0.6764  -10.1207   16.4040 C   0  0  1  0  0  0  0  0  0  0  0  0
    1.3122  -10.7575   15.2601 O   0  0  0  0  0  0  0  0  0  0  0  0
    1.4132  -10.1723   13.9852 C   0  0  2  0  0  0  0  0  0  0  0  0
    1.7021  -11.3226   12.9622 C   0  0  2  0  0  0  0  0  0  0  0  0
    0.6609  -12.2453   12.9940 O   0  0  0  0  0  0  0  0  0  0  0  0
    3.0823  -12.0198   13.2646 C   0  0  1  0  0  0  0  0  0  0  0  0
    3.3703  -13.1205   12.2869 N   0  0  0  0  0  0  0  0  0  0  0  0
    4.2151  -10.9189   13.2186 C   0  0  2  0  0  0  0  0  0  0  0  0
    5.4967  -11.4949   13.4791 O   0  0  0  0  0  0  0  0  0  0  0  0
    3.8694   -9.8030   14.2615 C   0  0  2  0  0  0  0  0  0  0  0  0
    2.5213   -9.2006   13.9792 O   0  0  0  0  0  0  0  0  0  0  0  0
    4.8882   -8.7005   14.2549 C   0  0  0  0  0  0  0  0  0  0  0  0
    4.9921   -8.0939   12.9564 O   0  0  0  0  0  0  0  0  0  0  0  0
   -5.1833   -8.6294   15.4049 O   0  0  0  0  0  0  0  0  0  0  0  0
   -6.9838   -7.5391   17.3562 O   0  0  0  0  0  0  0  0  0  0  0  0
    3.8893   -7.8994   20.3225 N   0  0  0  0  0  0  0  0  0  0  0  0
    3.3086   -9.7782   18.0208 C   0  0  0  0  0  0  0  0  0  0  0  0
    2.6020  -10.2833   18.8863 O   0  0  0  0  0  0  0  0  0  0  0  0
    4.8522   -9.8663   18.0155 C   0  0  1  0  0  0  0  0  0  0  0  0
    5.3981   -9.6646   19.4436 C   0  0  0  0  0  0  0  0  0  0  0  0
    5.2746   -8.2457   20.0110 C   0  0  0  0  0  0  0  0  0  0  0  0
    5.2510  -11.1512   17.4871 O   0  0  0  0  0  0  0  0  0  0  0  0
  1  2  1  1  0  0  0
  1  3  1  0  0  0  0
  1  8  1  0  0  0  0
  3  4  1  0  0  0  0
  3 32  1  6  0  0  0
  4  5  1  0  0  0  0
  4 33  1  6  0  0  0
  5  6  1  1  0  0  0
  5  7  1  0  0  0  0
  7  8  1  0  0  0  0
  7  9  1  1  0  0  0
  9 10  1  0  0  0  0
 11 12  1  1  0  0  0
 11 13  1  0  0  0  0
 11 19  1  0  0  0  0
 12 35  1  0  0  0  0
 13 14  1  0  0  0  0
 14 15  1  1  0  0  0
 14 16  1  0  0  0  0
 16  2  1  6  0  0  0
 16 17  1  0  0  0  0
 17 18  1  1  0  0  0
 17 19  1  0  0  0  0
 19 20  1  6  0  0  0
 21 20  1  1  0  0  0
 21 22  1  0  0  0  0
 21 29  1  0  0  0  0
 22 23  1  1  0  0  0
 22 24  1  0  0  0  0
 24 25  1  6  0  0  0
 24 26  1  0  0  0  0
 26 27  1  1  0  0  0
 26 28  1  0  0  0  0
 28 29  1  0  0  0  0
 28 30  1  6  0  0  0
 30 31  1  0  0  0  0
 34 39  1  0  0  0  0
 35 36  2  0  0  0  0
 37 35  1  1  0  0  0
 37 38  1  0  0  0  0
 37 40  1  0  0  0  0
 38 39  1  0  0  0  0
M  END
>  <CHROM.1>
-177.73606254,62.29349857,57.31969284,-158.52514834,-58.99662466,-161.13726295
58.55435213,137.82002642,-70.40713014,71.11839711,0.15412754,-9.62331226
16.72003071,2.76229181,-0.02686254,1.25886626

>  <Name>
2g5q_lig

>  <RI>
2.90231e+07

>  <Rbt.Current_Directory>
/home/itssahil/PROJECTS/Mol_Feturizer/New_Systems/rnas/2g5q

>  <Rbt.Executable>
rbdock ($Id: //depot/dev/client3/rdock/2013.1/src/exe/rbdock.cxx#4 $)

>  <Rbt.Library>
libRbt.so (2013.1, Build901 2013/11/27)

>  <Rbt.Parameter_File>
/export/apps/rDock/src/rDock_2013.1_src/data/scripts/dock_solv.prm

>  <Rbt.Receptor>
prm/pocket_docking_6.prm

>  <SCORE>
-16.8347

>  <SCORE.INTER>
-10.8134

>  <SCORE.INTER.CONST>
1

>  <SCORE.INTER.POLAR>
-1.76504

>  <SCORE.INTER.ROT>
10

>  <SCORE.INTER.SOLV>
11.0438

>  <SCORE.INTER.VDW>
-15.2734

>  <SCORE.INTER.norm>
-0.270335

>  <SCORE.INTRA>
-6.02128

>  <SCORE.INTRA.DIHEDRAL>
-15.9124

>  <SCORE.INTRA.DIHEDRAL.0>
22.5778

>  <SCORE.INTRA.POLAR>
0

>  <SCORE.INTRA.POLAR.0>
0

>  <SCORE.INTRA.REPUL>
0

>  <SCORE.INTRA.REPUL.0>
0

>  <SCORE.INTRA.SOLV>
5.19905

>  <SCORE.INTRA.SOLV.lig_0>
-102.332

>  <SCORE.INTRA.VDW>
-0.664618

>  <SCORE.INTRA.VDW.0>
-5.08747

>  <SCORE.INTRA.norm>
-0.150532

>  <SCORE.RESTR>
0

>  <SCORE.RESTR.CAVITY>
0

>  <SCORE.RESTR.norm>
0

>  <SCORE.SYSTEM>
0

>  <SCORE.SYSTEM.CONST>
0

>  <SCORE.SYSTEM.DIHEDRAL>
0

>  <SCORE.SYSTEM.SOLV>
0

>  <SCORE.SYSTEM.norm>
0

>  <SCORE.heavy>
40

>  <SCORE.norm>
-0.420867

>  <RMSD>
7.470

$$$$
2g5q_lig
 OpenBabel11021811433D
libRbt.so/2013.1/901 2013/11/27
 40 42  0  0  0  0  0  0  0  0999 V2000
   -4.0800   -9.7227   17.0683 C   0  0  2  0  0  0  0  0  0  0  0  0
   -3.0177   -8.8011   16.9591 O   0  0  0  0  0  0  0  0  0  0  0  0
   -5.4035   -9.0146   16.6540 C   0  0  1  0  0  0  0  0  0  0  0  0
   -5.8028   -7.8920   17.6610 C   0  0  2  0  0  0  0  0  0  0  0  0
   -5.9751   -8.5463   19.0564 C   0  0  2  0  0  0  0  0  0  0  0  0
   -6.3666   -7.5456   20.0103 O   0  0  0  0  0  0  0  0  0  0  0  0
   -4.6003   -9.2155   19.4638 C   0  0  2  0  0  0  0  0  0  0  0  0
   -4.2138  -10.2427   18.4546 O   0  0  0  0  0  0  0  0  0  0  0  0
   -4.6595   -9.9055   20.8225 C   0  0  0  0  0  0  0  0  0  0  0  0
   -3.3164  -10.4028   21.2590 N   0  0  0  0  0  0  0  0  0  0  0  0
    1.3479   -8.8887   16.8531 C   0  0  2  0  0  0  0  0  0  0  0  0
    2.7308   -9.2086   17.1862 N   0  0  0  0  0  0  0  0  0  0  0  0
    0.6302   -8.2024   18.0900 C   0  0  0  0  0  0  0  0  0  0  0  0
   -0.8663   -7.8476   17.7310 C   0  0  2  0  0  0  0  0  0  0  0  0
   -1.5245   -7.1948   18.8949 N   0  0  0  0  0  0  0  0  0  0  0  0
   -1.6311   -9.1619   17.2999 C   0  0  2  0  0  0  0  0  0  0  0  0
   -0.8858   -9.8180   16.0707 C   0  0  2  0  0  0  0  0  0  0  0  0
   -1.5762  -11.0111   15.6862 O   0  0  0  0  0  0  0  0  0  0  0  0
    0.6000  -10.1780   16.4551 C   0  0  1  0  0  0  0  0  0  0  0  0
    1.2877  -10.7708   15.3176 O   0  0  0  0  0  0  0  0  0  0  0  0
    1.3874  -10.1660   14.0517 C   0  0  2  0  0  0  0  0  0  0  0  0
    1.6617  -11.3020   13.0089 C   0  0  2  0  0  0  0  0  0  0  0  0
    0.6130  -12.2165   13.0311 O   0  0  0  0  0  0  0  0  0  0  0  0
    3.0375  -12.0154   13.2932 C   0  0  1  0  0  0  0  0  0  0  0  0
    3.3115  -13.1026   12.2965 N   0  0  0  0  0  0  0  0  0  0  0  0
    4.1792  -10.9233   13.2592 C   0  0  2  0  0  0  0  0  0  0  0  0
    5.4572  -11.5140   13.5041 O   0  0  0  0  0  0  0  0  0  0  0  0
    3.8479   -9.8215   14.3217 C   0  0  2  0  0  0  0  0  0  0  0  0
    2.5036   -9.2035   14.0558 O   0  0  0  0  0  0  0  0  0  0  0  0
    4.8759   -8.7275   14.3277 C   0  0  0  0  0  0  0  0  0  0  0  0
    4.8604   -7.9903   13.0944 O   0  0  0  0  0  0  0  0  0  0  0  0
   -5.2328   -8.4727   15.2992 O   0  0  0  0  0  0  0  0  0  0  0  0
   -6.9834   -7.3104   17.2543 O   0  0  0  0  0  0  0  0  0  0  0  0
    4.0502   -7.3854   20.3954 N   0  0  0  0  0  0  0  0  0  0  0  0
    3.7027   -8.2847   17.5438 C   0  0  0  0  0  0  0  0  0  0  0  0
    3.5051   -7.0766   17.6131 O   0  0  0  0  0  0  0  0  0  0  0  0
    5.0702   -8.9472   17.8291 C   0  0  1  0  0  0  0  0  0  0  0  0
    5.1754   -9.3207   19.3216 C   0  0  0  0  0  0  0  0  0  0  0  0
    5.2954   -8.1441   20.2971 C   0  0  0  0  0  0  0  0  0  0  0  0
    5.2127  -10.1175   16.9927 O   0  0  0  0  0  0  0  0  0  0  0  0
  1  2  1  1  0  0  0
  1  3  1  0  0  0  0
  1  8  1  0  0  0  0
  3  4  1  0  0  0  0
  3 32  1  6  0  0  0
  4  5  1  0  0  0  0
  4 33  1  6  0  0  0
  5  6  1  1  0  0  0
  5  7  1  0  0  0  0
  7  8  1  0  0  0  0
  7  9  1  1  0  0  0
  9 10  1  0  0  0  0
 11 12  1  1  0  0  0
 11 13  1  0  0  0  0
 11 19  1  0  0  0  0
 12 35  1  0  0  0  0
 13 14  1  0  0  0  0
 14 15  1  1  0  0  0
 14 16  1  0  0  0  0
 16  2  1  6  0  0  0
 16 17  1  0  0  0  0
 17 18  1  1  0  0  0
 17 19  1  0  0  0  0
 19 20  1  6  0  0  0
 21 20  1  1  0  0  0
 21 22  1  0  0  0  0
 21 29  1  0  0  0  0
 22 23  1  1  0  0  0
 22 24  1  0  0  0  0
 24 25  1  6  0  0  0
 24 26  1  0  0  0  0
 26 27  1  1  0  0  0
 26 28  1  0  0  0  0
 28 29  1  0  0  0  0
 28 30  1  6  0  0  0
 30 31  1  0  0  0  0
 34 39  1  0  0  0  0
 35 36  2  0  0  0  0
 37 35  1  1  0  0  0
 37 38  1  0  0  0  0
 37 40  1  0  0  0  0
 38 39  1  0  0  0  0
M  END
>  <CHROM.1>
179.14535514,-173.78605806,-60.98287777,-153.43326195,-64.56978179,-157.67908148
65.88373980,-90.33670141,-69.84608377,70.27086938,0.18988787,-9.38921556
16.66996164,2.78087489,0.02516373,1.14445015

>  <Name>
2g5q_lig

>  <RI>
9.52566e+06

>  <Rbt.Current_Directory>
/home/itssahil/PROJECTS/Mol_Feturizer/New_Systems/rnas/2g5q

>  <Rbt.Executable>
rbdock ($Id: //depot/dev/client3/rdock/2013.1/src/exe/rbdock.cxx#4 $)

>  <Rbt.Library>
libRbt.so (2013.1, Build901 2013/11/27)

>  <Rbt.Parameter_File>
/export/apps/rDock/src/rDock_2013.1_src/data/scripts/dock_solv.prm

>  <Rbt.Receptor>
prm/pocket_docking_4.prm

>  <SCORE>
-20.194

>  <SCORE.INTER>
-13.9648

>  <SCORE.INTER.CONST>
1

>  <SCORE.INTER.POLAR>
-2.00888

>  <SCORE.INTER.ROT>
10

>  <SCORE.INTER.SOLV>
12.6888

>  <SCORE.INTER.VDW>
-17.1098

>  <SCORE.INTER.norm>
-0.349119

>  <SCORE.INTRA>
-6.22923

>  <SCORE.INTRA.DIHEDRAL>
-14.6977

>  <SCORE.INTRA.DIHEDRAL.0>
22.5778

>  <SCORE.INTRA.POLAR>
0

>  <SCORE.INTRA.POLAR.0>
0

>  <SCORE.INTRA.REPUL>
0

>  <SCORE.INTRA.REPUL.0>
0

>  <SCORE.INTRA.SOLV>
4.45449

>  <SCORE.INTRA.SOLV.lig_0>
-102.332

>  <SCORE.INTRA.VDW>
-1.10764

>  <SCORE.INTRA.VDW.0>
-5.08747

>  <SCORE.INTRA.norm>
-0.155731

>  <SCORE.RESTR>
0

>  <SCORE.RESTR.CAVITY>
0

>  <SCORE.RESTR.norm>
0

>  <SCORE.SYSTEM>
0

>  <SCORE.SYSTEM.CONST>
0

>  <SCORE.SYSTEM.DIHEDRAL>
0

>  <SCORE.SYSTEM.SOLV>
0

>  <SCORE.SYSTEM.norm>
0

>  <SCORE.heavy>
40

>  <SCORE.norm>
-0.50485

>  <RMSD>
7.486

$$$$
2g5q_lig
 OpenBabel11021811433D
libRbt.so/2013.1/901 2013/11/27
 40 42  0  0  0  0  0  0  0  0999 V2000
    4.8930   -2.2845   23.4950 C   0  0  2  0  0  0  0  0  0  0  0  0
    4.5188   -2.9736   22.3226 O   0  0  0  0  0  0  0  0  0  0  0  0
    3.6053   -1.8153   24.2342 C   0  0  1  0  0  0  0  0  0  0  0  0
    2.8282   -0.7348   23.4204 C   0  0  2  0  0  0  0  0  0  0  0  0
    3.7778    0.4727   23.2079 C   0  0  2  0  0  0  0  0  0  0  0  0
    3.0892    1.5022   22.4797 O   0  0  0  0  0  0  0  0  0  0  0  0
    5.0517   -0.0314   22.4159 C   0  0  2  0  0  0  0  0  0  0  0  0
    5.7421   -1.1032   23.1888 O   0  0  0  0  0  0  0  0  0  0  0  0
    6.0663    1.0786   22.1623 C   0  0  0  0  0  0  0  0  0  0  0  0
    6.7023    1.5587   23.4298 N   0  0  0  0  0  0  0  0  0  0  0  0
    4.9265   -7.2593   21.5849 C   0  0  2  0  0  0  0  0  0  0  0  0
    4.6626   -8.6931   21.5951 N   0  0  0  0  0  0  0  0  0  0  0  0
    5.0983   -6.7225   23.0676 C   0  0  0  0  0  0  0  0  0  0  0  0
    5.3916   -5.1706   23.0608 C   0  0  2  0  0  0  0  0  0  0  0  0
    5.5616   -4.6820   24.4559 N   0  0  0  0  0  0  0  0  0  0  0  0
    4.2143   -4.4146   22.3257 C   0  0  2  0  0  0  0  0  0  0  0  0
    4.0714   -4.9783   20.8564 C   0  0  2  0  0  0  0  0  0  0  0  0
    3.0008   -4.2968   20.1949 O   0  0  0  0  0  0  0  0  0  0  0  0
    3.7638   -6.5241   20.8866 C   0  0  1  0  0  0  0  0  0  0  0  0
    3.6449   -7.0431   19.5320 O   0  0  0  0  0  0  0  0  0  0  0  0
    2.7175   -6.5736   18.5846 C   0  0  2  0  0  0  0  0  0  0  0  0
    1.2867   -6.9355   19.1089 C   0  0  2  0  0  0  0  0  0  0  0  0
    1.0753   -6.3257   20.3418 O   0  0  0  0  0  0  0  0  0  0  0  0
    1.0964   -8.4962   19.2123 C   0  0  1  0  0  0  0  0  0  0  0  0
   -0.2732   -8.8533   19.7095 N   0  0  0  0  0  0  0  0  0  0  0  0
    1.3555   -9.1234   17.7851 C   0  0  2  0  0  0  0  0  0  0  0  0
    1.1896  -10.5425   17.8141 O   0  0  0  0  0  0  0  0  0  0  0  0
    2.7978   -8.7279   17.3204 C   0  0  2  0  0  0  0  0  0  0  0  0
    2.9634   -7.2340   17.2902 O   0  0  0  0  0  0  0  0  0  0  0  0
    3.1081   -9.2635   15.9528 C   0  0  0  0  0  0  0  0  0  0  0  0
    4.4487   -8.9329   15.5548 O   0  0  0  0  0  0  0  0  0  0  0  0
    2.7636   -2.9923   24.4880 O   0  0  0  0  0  0  0  0  0  0  0  0
    1.7094   -0.3477   24.1246 O   0  0  0  0  0  0  0  0  0  0  0  0
    2.2648  -12.1063   25.5666 N   0  0  0  0  0  0  0  0  0  0  0  0
    3.7387   -9.3316   22.4105 C   0  0  0  0  0  0  0  0  0  0  0  0
    3.0359   -8.7524   23.2315 O   0  0  0  0  0  0  0  0  0  0  0  0
    3.7059  -10.8602   22.1809 C   0  0  1  0  0  0  0  0  0  0  0  0
    2.7657  -11.5283   23.2045 C   0  0  0  0  0  0  0  0  0  0  0  0
    3.1683  -11.3804   24.6763 C   0  0  0  0  0  0  0  0  0  0  0  0
    3.2697  -11.1263   20.8288 O   0  0  0  0  0  0  0  0  0  0  0  0
  1  2  1  6  0  0  0
  1  3  1  0  0  0  0
  1  8  1  0  0  0  0
  3  4  1  0  0  0  0
  3 32  1  6  0  0  0
  4  5  1  0  0  0  0
  4 33  1  1  0  0  0
  5  6  1  6  0  0  0
  5  7  1  0  0  0  0
  7  8  1  0  0  0  0
  7  9  1  1  0  0  0
  9 10  1  0  0  0  0
 11 12  1  1  0  0  0
 11 13  1  0  0  0  0
 11 19  1  0  0  0  0
 12 35  1  0  0  0  0
 13 14  1  0  0  0  0
 14 15  1  1  0  0  0
 14 16  1  0  0  0  0
 16  2  1  6  0  0  0
 16 17  1  0  0  0  0
 17 18  1  1  0  0  0
 17 19  1  0  0  0  0
 19 20  1  6  0  0  0
 21 20  1  1  0  0  0
 21 22  1  0  0  0  0
 21 29  1  0  0  0  0
 22 23  1  1  0  0  0
 22 24  1  0  0  0  0
 24 25  1  6  0  0  0
 24 26  1  0  0  0  0
 26 27  1  1  0  0  0
 26 28  1  0  0  0  0
 28 29  1  0  0  0  0
 28 30  1  6  0  0  0
 30 31  1  0  0  0  0
 34 39  1  0  0  0  0
 35 36  2  0  0  0  0
 37 35  1  1  0  0  0
 37 38  1  0  0  0  0
 37 40  1  0  0  0  0
 38 39  1  0  0  0  0
M  END
>  <CHROM.1>
-86.53898467,67.35642056,47.15851570,-49.91343031,-177.79814180,-65.84980357
-178.07521573,174.53113248,-62.33196012,-176.76397228,3.45284979,-5.82397395
21.40947740,-0.52376441,1.35849513,2.44756679

>  <Name>
2g5q_lig

>  <RI>
2.47104e+07

>  <Rbt.Current_Directory>
/home/itssahil/PROJECTS/Mol_Feturizer/New_Systems/rnas/2g5q

>  <Rbt.Executable>
rbdock ($Id: //depot/dev/client3/rdock/2013.1/src/exe/rbdock.cxx#4 $)

>  <Rbt.Library>
libRbt.so (2013.1, Build901 2013/11/27)

>  <Rbt.Parameter_File>
/export/apps/rDock/src/rDock_2013.1_src/data/scripts/dock_solv.prm

>  <Rbt.Receptor>
prm/pocket_docking_7.prm

>  <SCORE>
-21.0385

>  <SCORE.INTER>
-16.8279

>  <SCORE.INTER.CONST>
1

>  <SCORE.INTER.POLAR>
-0.467112

>  <SCORE.INTER.ROT>
10

>  <SCORE.INTER.SOLV>
15.8282

>  <SCORE.INTER.VDW>
-25.2043

>  <SCORE.INTER.norm>
-0.420697

>  <SCORE.INTRA>
-4.21056

>  <SCORE.INTRA.DIHEDRAL>
-17.7006

>  <SCORE.INTRA.DIHEDRAL.0>
22.5778

>  <SCORE.INTRA.POLAR>
0

>  <SCORE.INTRA.POLAR.0>
0

>  <SCORE.INTRA.REPUL>
0

>  <SCORE.INTRA.REPUL.0>
0

>  <SCORE.INTRA.SOLV>
3.41689

>  <SCORE.INTRA.SOLV.lig_0>
-102.332

>  <SCORE.INTRA.VDW>
2.93131

>  <SCORE.INTRA.VDW.0>
-5.08747

>  <SCORE.INTRA.norm>
-0.105264

>  <SCORE.RESTR>
0

>  <SCORE.RESTR.CAVITY>
0

>  <SCORE.RESTR.norm>
0

>  <SCORE.SYSTEM>
0

>  <SCORE.SYSTEM.CONST>
0

>  <SCORE.SYSTEM.DIHEDRAL>
0

>  <SCORE.SYSTEM.SOLV>
0

>  <SCORE.SYSTEM.norm>
0

>  <SCORE.heavy>
40

>  <SCORE.norm>
-0.525961

>  <RMSD>
7.516

$$$$
2g5q_lig
 OpenBabel11021811433D
libRbt.so/2013.1/901 2013/11/27
 40 42  0  0  0  0  0  0  0  0999 V2000
    5.7715   -3.4921   23.8391 C   0  0  2  0  0  0  0  0  0  0  0  0
    4.7272   -4.4063   23.5878 O   0  0  0  0  0  0  0  0  0  0  0  0
    5.9526   -3.3476   25.3789 C   0  0  1  0  0  0  0  0  0  0  0  0
    4.7181   -2.6688   26.0488 C   0  0  2  0  0  0  0  0  0  0  0  0
    4.5430   -1.2668   25.4096 C   0  0  2  0  0  0  0  0  0  0  0  0
    3.4263   -0.5981   26.0182 O   0  0  0  0  0  0  0  0  0  0  0  0
    4.3167   -1.4551   23.8548 C   0  0  2  0  0  0  0  0  0  0  0  0
    5.4847   -2.1574   23.2504 O   0  0  0  0  0  0  0  0  0  0  0  0
    4.1455   -0.1306   23.1187 C   0  0  0  0  0  0  0  0  0  0  0  0
    2.9416    0.6235   23.5917 N   0  0  0  0  0  0  0  0  0  0  0  0
    2.6717   -6.2999   20.2313 C   0  0  2  0  0  0  0  0  0  0  0  0
    2.4078   -6.8522   18.9080 N   0  0  0  0  0  0  0  0  0  0  0  0
    3.0608   -4.7664   20.1182 C   0  0  0  0  0  0  0  0  0  0  0  0
    3.3406   -4.1622   21.5504 C   0  0  2  0  0  0  0  0  0  0  0  0
    3.6933   -2.7216   21.4314 N   0  0  0  0  0  0  0  0  0  0  0  0
    4.4958   -4.9816   22.2519 C   0  0  2  0  0  0  0  0  0  0  0  0
    4.0743   -6.5018   22.3423 C   0  0  2  0  0  0  0  0  0  0  0  0
    5.1243   -7.2427   22.9721 O   0  0  0  0  0  0  0  0  0  0  0  0
    3.8152   -7.0886   20.9024 C   0  0  1  0  0  0  0  0  0  0  0  0
    3.4153   -8.4853   20.9894 O   0  0  0  0  0  0  0  0  0  0  0  0
    4.2649   -9.5260   21.4057 C   0  0  2  0  0  0  0  0  0  0  0  0
    3.9353  -10.7806   20.5279 C   0  0  2  0  0  0  0  0  0  0  0  0
    4.1536  -10.4800   19.1869 O   0  0  0  0  0  0  0  0  0  0  0  0
    2.4550  -11.2666   20.7627 C   0  0  1  0  0  0  0  0  0  0  0  0
    2.1311  -12.4712   19.9295 N   0  0  0  0  0  0  0  0  0  0  0  0
    2.2748  -11.5839   22.3003 C   0  0  2  0  0  0  0  0  0  0  0  0
    0.9481  -12.0384   22.5750 O   0  0  0  0  0  0  0  0  0  0  0  0
    2.6161  -10.2937   23.1197 C   0  0  2  0  0  0  0  0  0  0  0  0
    4.0137   -9.8237   22.8272 O   0  0  0  0  0  0  0  0  0  0  0  0
    2.4975  -10.5260   24.5981 C   0  0  0  0  0  0  0  0  0  0  0  0
    1.1462  -10.8436   24.9696 O   0  0  0  0  0  0  0  0  0  0  0  0
    6.1922   -4.6827   25.9431 O   0  0  0  0  0  0  0  0  0  0  0  0
    4.9372   -2.5547   27.4039 O   0  0  0  0  0  0  0  0  0  0  0  0
    5.7941   -9.2893   14.7505 N   0  0  0  0  0  0  0  0  0  0  0  0
    3.3718   -7.3406   18.0372 C   0  0  0  0  0  0  0  0  0  0  0  0
    4.5725   -7.3553   18.2850 O   0  0  0  0  0  0  0  0  0  0  0  0
    2.7643   -7.8496   16.7096 C   0  0  1  0  0  0  0  0  0  0  0  0
    3.7192   -8.8622   16.0454 C   0  0  0  0  0  0  0  0  0  0  0  0
    4.9948   -8.2732   15.4321 C   0  0  0  0  0  0  0  0  0  0  0  0
    1.4782   -8.4523   16.9781 O   0  0  0  0  0  0  0  0  0  0  0  0
  1  2  1  1  0  0  0
  1  3  1  0  0  0  0
  1  8  1  0  0  0  0
  3  4  1  0  0  0  0
  3 32  1  1  0  0  0
  4  5  1  0  0  0  0
  4 33  1  1  0  0  0
  5  6  1  1  0  0  0
  5  7  1  0  0  0  0
  7  8  1  0  0  0  0
  7  9  1  6  0  0  0
  9 10  1  0  0  0  0
 11 12  1  6  0  0  0
 11 13  1  0  0  0  0
 11 19  1  0  0  0  0
 12 35  1  0  0  0  0
 13 14  1  0  0  0  0
 14 15  1  6  0  0  0
 14 16  1  0  0  0  0
 16  2  1  1  0  0  0
 16 17  1  0  0  0  0
 17 18  1  6  0  0  0
 17 19  1  0  0  0  0
 19 20  1  1  0  0  0
 21 20  1  6  0  0  0
 21 22  1  0  0  0  0
 21 29  1  0  0  0  0
 22 23  1  6  0  0  0
 22 24  1  0  0  0  0
 24 25  1  6  0  0  0
 24 26  1  0  0  0  0
 26 27  1  6  0  0  0
 26 28  1  0  0  0  0
 28 29  1  0  0  0  0
 28 30  1  1  0  0  0
 30 31  1  0  0  0  0
 34 39  1  0  0  0  0
 35 36  2  0  0  0  0
 37 35  1  1  0  0  0
 37 38  1  0  0  0  0
 37 40  1  0  0  0  0
 38 39  1  0  0  0  0
M  END
>  <CHROM.1>
-166.60307270,-62.05522109,84.42488711,-98.35907887,172.48384308,-142.31998709
-63.48747580,-157.22250464,-72.16212899,-176.24729557,3.76040343,-6.57229323
21.73104034,-0.81839098,-1.35923525,-1.79300435

>  <Name>
2g5q_lig

>  <RI>
224

>  <Rbt.Current_Directory>
/home/itssahil/PROJECTS/Mol_Feturizer/New_Systems/rnas/2g5q

>  <Rbt.Executable>
rbdock ($Id: //depot/dev/client3/rdock/2013.1/src/exe/rbdock.cxx#4 $)

>  <Rbt.Library>
libRbt.so (2013.1, Build901 2013/11/27)

>  <Rbt.Parameter_File>
/export/apps/rDock/src/rDock_2013.1_src/data/scripts/dock_solv.prm

>  <Rbt.Receptor>
prm/pocket_docking_8.prm

>  <SCORE>
-17.6346

>  <SCORE.INTER>
-16.8561

>  <SCORE.INTER.CONST>
1

>  <SCORE.INTER.POLAR>
-1.33107

>  <SCORE.INTER.ROT>
10

>  <SCORE.INTER.SOLV>
13.867

>  <SCORE.INTER.VDW>
-21.6895

>  <SCORE.INTER.norm>
-0.421402

>  <SCORE.INTRA>
-0.795922

>  <SCORE.INTRA.DIHEDRAL>
-8.92947

>  <SCORE.INTRA.DIHEDRAL.0>
22.5778

>  <SCORE.INTRA.POLAR>
0

>  <SCORE.INTRA.POLAR.0>
0

>  <SCORE.INTRA.REPUL>
0

>  <SCORE.INTRA.REPUL.0>
0

>  <SCORE.INTRA.SOLV>
5.13559

>  <SCORE.INTRA.SOLV.lig_0>
-102.332

>  <SCORE.INTRA.VDW>
1.10102

>  <SCORE.INTRA.VDW.0>
-5.08747

>  <SCORE.INTRA.norm>
-0.0198981

>  <SCORE.RESTR>
0.0173923

>  <SCORE.RESTR.CAVITY>
0.0173923

>  <SCORE.RESTR.norm>
0.000434807

>  <SCORE.SYSTEM>
0

>  <SCORE.SYSTEM.CONST>
0

>  <SCORE.SYSTEM.DIHEDRAL>
0

>  <SCORE.SYSTEM.SOLV>
0

>  <SCORE.SYSTEM.norm>
0

>  <SCORE.heavy>
40

>  <SCORE.norm>
-0.440865

>  <RMSD>
7.540

$$$$
2g5q_lig
 OpenBabel11021811433D
libRbt.so/2013.1/901 2013/11/27
 40 42  0  0  0  0  0  0  0  0999 V2000
   -3.8792  -10.2440   16.5740 C   0  0  2  0  0  0  0  0  0  0  0  0
   -3.0852   -9.0835   16.6861 O   0  0  0  0  0  0  0  0  0  0  0  0
   -5.3596   -9.8191   16.3445 C   0  0  1  0  0  0  0  0  0  0  0  0
   -5.9583   -9.0988   17.5920 C   0  0  2  0  0  0  0  0  0  0  0  0
   -5.8761  -10.0794   18.7906 C   0  0  2  0  0  0  0  0  0  0  0  0
   -6.4407   -9.4594   19.9573 O   0  0  0  0  0  0  0  0  0  0  0  0
   -4.3560  -10.4532   19.0225 C   0  0  2  0  0  0  0  0  0  0  0  0
   -3.7932  -11.0867   17.7958 O   0  0  0  0  0  0  0  0  0  0  0  0
   -4.1579  -11.4302   20.1765 C   0  0  0  0  0  0  0  0  0  0  0  0
   -2.7097  -11.6368   20.4953 N   0  0  0  0  0  0  0  0  0  0  0  0
    1.1918   -8.2114   16.8410 C   0  0  2  0  0  0  0  0  0  0  0  0
    2.5898   -8.2270   17.2544 N   0  0  0  0  0  0  0  0  0  0  0  0
    0.2715   -7.7220   18.0366 C   0  0  0  0  0  0  0  0  0  0  0  0
   -1.2434   -7.6967   17.5906 C   0  0  2  0  0  0  0  0  0  0  0  0
   -2.0943   -7.2256   18.7167 N   0  0  0  0  0  0  0  0  0  0  0  0
   -1.6750   -9.1383   17.1072 C   0  0  2  0  0  0  0  0  0  0  0  0
   -0.7348   -9.5923   15.9211 C   0  0  2  0  0  0  0  0  0  0  0  0
   -1.1233  -10.9003   15.4893 O   0  0  0  0  0  0  0  0  0  0  0  0
    0.7693   -9.6255   16.3917 C   0  0  1  0  0  0  0  0  0  0  0  0
    1.6343  -10.0321   15.2941 O   0  0  0  0  0  0  0  0  0  0  0  0
    1.3823  -11.1327   14.4555 C   0  0  2  0  0  0  0  0  0  0  0  0
    2.1500  -12.3616   15.0503 C   0  0  2  0  0  0  0  0  0  0  0  0
    1.6923  -12.6160   16.3395 O   0  0  0  0  0  0  0  0  0  0  0  0
    3.7067  -12.1180   15.0429 C   0  0  1  0  0  0  0  0  0  0  0  0
    4.4515  -13.2917   15.6067 N   0  0  0  0  0  0  0  0  0  0  0  0
    4.1571  -11.8305   13.5556 C   0  0  2  0  0  0  0  0  0  0  0  0
    5.5668  -11.6080   13.4838 O   0  0  0  0  0  0  0  0  0  0  0  0
    3.3573  -10.5943   13.0220 C   0  0  2  0  0  0  0  0  0  0  0  0
    1.8757  -10.8371   13.0985 O   0  0  0  0  0  0  0  0  0  0  0  0
    3.7092  -10.2769   11.5975 C   0  0  0  0  0  0  0  0  0  0  0  0
    3.0686   -9.0677   11.1589 O   0  0  0  0  0  0  0  0  0  0  0  0
   -5.4132   -8.9539   15.1585 O   0  0  0  0  0  0  0  0  0  0  0  0
   -7.2689   -8.7583   17.3393 O   0  0  0  0  0  0  0  0  0  0  0  0
    5.7656  -11.1720   19.7585 N   0  0  0  0  0  0  0  0  0  0  0  0
    3.0538   -8.6443   18.4941 C   0  0  0  0  0  0  0  0  0  0  0  0
    2.3270   -9.0457   19.3964 O   0  0  0  0  0  0  0  0  0  0  0  0
    4.5907   -8.5306   18.6179 C   0  0  1  0  0  0  0  0  0  0  0  0
    5.2697   -9.6760   17.8400 C   0  0  0  0  0  0  0  0  0  0  0  0
    5.1233  -11.0752   18.4493 C   0  0  0  0  0  0  0  0  0  0  0  0
    5.0121   -7.2432   18.1135 O   0  0  0  0  0  0  0  0  0  0  0  0
  1  2  1  1  0  0  0
  1  3  1  0  0  0  0
  1  8  1  0  0  0  0
  3  4  1  0  0  0  0
  3 32  1  6  0  0  0
  4  5  1  0  0  0  0
  4 33  1  6  0  0  0
  5  6  1  1  0  0  0
  5  7  1  0  0  0  0
  7  8  1  0  0  0  0
  7  9  1  1  0  0  0
  9 10  1  0  0  0  0
 11 12  1  1  0  0  0
 11 13  1  0  0  0  0
 11 19  1  0  0  0  0
 12 35  1  0  0  0  0
 13 14  1  0  0  0  0
 14 15  1  1  0  0  0
 14 16  1  0  0  0  0
 16  2  1  6  0  0  0
 16 17  1  0  0  0  0
 17 18  1  1  0  0  0
 17 19  1  0  0  0  0
 19 20  1  6  0  0  0
 21 20  1  1  0  0  0
 21 22  1  0  0  0  0
 21 29  1  0  0  0  0
 22 23  1  1  0  0  0
 22 24  1  0  0  0  0
 24 25  1  6  0  0  0
 24 26  1  0  0  0  0
 26 27  1  1  0  0  0
 26 28  1  0  0  0  0
 28 29  1  0  0  0  0
 28 30  1  6  0  0  0
 30 31  1  0  0  0  0
 34 39  1  0  0  0  0
 35 36  2  0  0  0  0
 37 35  1  6  0  0  0
 37 38  1  0  0  0  0
 37 40  1  0  0  0  0
 38 39  1  0  0  0  0
M  END
>  <CHROM.1>
170.64395121,-172.67937377,40.10369991,-161.15585696,-166.55796840,-94.04419105
-174.44382599,-75.94880381,-70.70730519,-63.52289894,0.16827228,-9.98931543
16.66718602,2.84851591,-0.03674552,1.35429057

>  <Name>
2g5q_lig

>  <RI>
0

>  <Rbt.Current_Directory>
/home/itssahil/PROJECTS/Mol_Feturizer/New_Systems/rnas/2g5q

>  <Rbt.Executable>
rbdock ($Id: //depot/dev/client3/rdock/2013.1/src/exe/rbdock.cxx#4 $)

>  <Rbt.Library>
libRbt.so (2013.1, Build901 2013/11/27)

>  <Rbt.Parameter_File>
/export/apps/rDock/src/rDock_2013.1_src/data/scripts/dock_solv.prm

>  <Rbt.Receptor>
prm/pocket_docking_3.prm

>  <SCORE>
-9.94955

>  <SCORE.INTER>
-5.74595

>  <SCORE.INTER.CONST>
1

>  <SCORE.INTER.POLAR>
-1.66573

>  <SCORE.INTER.ROT>
10

>  <SCORE.INTER.SOLV>
10.4563

>  <SCORE.INTER.VDW>
-12.0303

>  <SCORE.INTER.norm>
-0.143649

>  <SCORE.INTRA>
-4.8293

>  <SCORE.INTRA.DIHEDRAL>
-13.2125

>  <SCORE.INTRA.DIHEDRAL.0>
22.5778

>  <SCORE.INTRA.POLAR>
0

>  <SCORE.INTRA.POLAR.0>
0

>  <SCORE.INTRA.REPUL>
0

>  <SCORE.INTRA.REPUL.0>
0

>  <SCORE.INTRA.SOLV>
1.58683

>  <SCORE.INTRA.SOLV.lig_0>
-102.332

>  <SCORE.INTRA.VDW>
0.983524

>  <SCORE.INTRA.VDW.0>
-5.08747

>  <SCORE.INTRA.norm>
-0.120733

>  <SCORE.RESTR>
0.625696

>  <SCORE.RESTR.CAVITY>
0.625696

>  <SCORE.RESTR.norm>
0.0156424

>  <SCORE.SYSTEM>
0

>  <SCORE.SYSTEM.CONST>
0

>  <SCORE.SYSTEM.DIHEDRAL>
0

>  <SCORE.SYSTEM.SOLV>
0

>  <SCORE.SYSTEM.norm>
0

>  <SCORE.heavy>
40

>  <SCORE.norm>
-0.248739

>  <RMSD>
7.545

$$$$
2g5q_lig
 OpenBabel11021811433D
libRbt.so/2013.1/901 2013/11/27
 40 42  0  0  0  0  0  0  0  0999 V2000
    2.8260  -13.0806   14.9970 C   0  0  2  0  0  0  0  0  0  0  0  0
    1.7756  -13.4449   14.1289 O   0  0  0  0  0  0  0  0  0  0  0  0
    4.1102  -13.8593   14.5856 C   0  0  1  0  0  0  0  0  0  0  0  0
    3.9639  -15.3931   14.8300 C   0  0  2  0  0  0  0  0  0  0  0  0
    3.6839  -15.6081   16.3400 C   0  0  2  0  0  0  0  0  0  0  0  0
    3.5653  -17.0143   16.6105 O   0  0  0  0  0  0  0  0  0  0  0  0
    2.3503  -14.8415   16.7113 C   0  0  2  0  0  0  0  0  0  0  0  0
    2.4973  -13.3880   16.4139 O   0  0  0  0  0  0  0  0  0  0  0  0
    1.9843  -14.9743   18.1858 C   0  0  0  0  0  0  0  0  0  0  0  0
    1.8385  -16.4052   18.6018 N   0  0  0  0  0  0  0  0  0  0  0  0
   -1.6307  -11.3022   15.8268 C   0  0  2  0  0  0  0  0  0  0  0  0
   -2.9609  -10.7257   15.9820 N   0  0  0  0  0  0  0  0  0  0  0  0
   -0.9210  -10.7055   14.5398 C   0  0  0  0  0  0  0  0  0  0  0  0
    0.5233  -11.3221   14.3718 C   0  0  2  0  0  0  0  0  0  0  0  0
    1.1821  -10.7464   13.1683 N   0  0  0  0  0  0  0  0  0  0  0  0
    0.4165  -12.8959   14.2720 C   0  0  2  0  0  0  0  0  0  0  0  0
   -0.2981  -13.4519   15.5670 C   0  0  2  0  0  0  0  0  0  0  0  0
   -0.3994  -14.8762   15.4716 O   0  0  0  0  0  0  0  0  0  0  0  0
   -1.7425  -12.8362   15.7069 C   0  0  1  0  0  0  0  0  0  0  0  0
   -2.3937  -13.3405   16.9069 O   0  0  0  0  0  0  0  0  0  0  0  0
   -2.2686  -14.6595   17.3788 C   0  0  2  0  0  0  0  0  0  0  0  0
   -3.6667  -15.0934   17.9358 C   0  0  2  0  0  0  0  0  0  0  0  0
   -4.6135  -15.0273   16.9181 O   0  0  0  0  0  0  0  0  0  0  0  0
   -4.0935  -14.1995   19.1612 C   0  0  1  0  0  0  0  0  0  0  0  0
   -5.4298  -14.6104   19.7049 N   0  0  0  0  0  0  0  0  0  0  0  0
   -2.9764  -14.3155   20.2730 C   0  0  2  0  0  0  0  0  0  0  0  0
   -3.3126  -13.5287   21.4176 O   0  0  0  0  0  0  0  0  0  0  0  0
   -1.6089  -13.8673   19.6553 C   0  0  2  0  0  0  0  0  0  0  0  0
   -1.2612  -14.7012   18.4538 O   0  0  0  0  0  0  0  0  0  0  0  0
   -0.4872  -13.9799   20.6467 C   0  0  0  0  0  0  0  0  0  0  0  0
   -0.6140  -13.0014   21.6914 O   0  0  0  0  0  0  0  0  0  0  0  0
    4.3906  -13.5738   13.1721 O   0  0  0  0  0  0  0  0  0  0  0  0
    5.1294  -16.0287   14.4625 O   0  0  0  0  0  0  0  0  0  0  0  0
   -5.7399   -8.7933   19.5933 N   0  0  0  0  0  0  0  0  0  0  0  0
   -3.2643   -9.6052   16.7428 C   0  0  0  0  0  0  0  0  0  0  0  0
   -2.4353   -8.9700   17.3851 O   0  0  0  0  0  0  0  0  0  0  0  0
   -4.7700   -9.2560   16.7045 C   0  0  1  0  0  0  0  0  0  0  0  0
   -5.0153   -7.8984   17.3936 C   0  0  0  0  0  0  0  0  0  0  0  0
   -4.8247   -7.8780   18.9147 C   0  0  0  0  0  0  0  0  0  0  0  0
   -5.2135   -9.2243   15.3291 O   0  0  0  0  0  0  0  0  0  0  0  0
  1  2  1  6  0  0  0
  1  3  1  0  0  0  0
  1  8  1  0  0  0  0
  3  4  1  0  0  0  0
  3 32  1  6  0  0  0
  4  5  1  0  0  0  0
  4 33  1  1  0  0  0
  5  6  1  6  0  0  0
  5  7  1  0  0  0  0
  7  8  1  0  0  0  0
  7  9  1  1  0  0  0
  9 10  1  0  0  0  0
 11 12  1  6  0  0  0
 11 13  1  0  0  0  0
 11 19  1  0  0  0  0
 12 35  1  0  0  0  0
 13 14  1  0  0  0  0
 14 15  1  6  0  0  0
 14 16  1  0  0  0  0
 16  2  1  1  0  0  0
 16 17  1  0  0  0  0
 17 18  1  6  0  0  0
 17 19  1  0  0  0  0
 19 20  1  1  0  0  0
 21 20  1  1  0  0  0
 21 22  1  0  0  0  0
 21 29  1  0  0  0  0
 22 23  1  6  0  0  0
 22 24  1  0  0  0  0
 24 25  1  1  0  0  0
 24 26  1  0  0  0  0
 26 27  1  1  0  0  0
 26 28  1  0  0  0  0
 28 29  1  0  0  0  0
 28 30  1  1  0  0  0
 30 31  1  0  0  0  0
 34 39  1  0  0  0  0
 35 36  2  0  0  0  0
 37 35  1  6  0  0  0
 37 38  1  0  0  0  0
 37 40  1  0  0  0  0
 38 39  1  0  0  0  0
M  END
>  <CHROM.1>
178.90227821,-57.36845343,-92.93930577,50.30632907,-157.17975305,-141.79374245
-69.47119806,-171.88708118,-69.81416786,-60.80518832,-0.77114506,-12.98383799
16.91036881,-0.09834372,0.57544852,-0.75984343

>  <Name>
2g5q_lig

>  <RI>
2.90231e+07

>  <Rbt.Current_Directory>
/home/itssahil/PROJECTS/Mol_Feturizer/New_Systems/rnas/2g5q

>  <Rbt.Executable>
rbdock ($Id: //depot/dev/client3/rdock/2013.1/src/exe/rbdock.cxx#4 $)

>  <Rbt.Library>
libRbt.so (2013.1, Build901 2013/11/27)

>  <Rbt.Parameter_File>
/export/apps/rDock/src/rDock_2013.1_src/data/scripts/dock_solv.prm

>  <Rbt.Receptor>
prm/pocket_docking_6.prm

>  <SCORE>
-14.3753

>  <SCORE.INTER>
-11.4105

>  <SCORE.INTER.CONST>
1

>  <SCORE.INTER.POLAR>
-1.73905

>  <SCORE.INTER.ROT>
10

>  <SCORE.INTER.SOLV>
11.2708

>  <SCORE.INTER.VDW>
-15.8337

>  <SCORE.INTER.norm>
-0.285262

>  <SCORE.INTRA>
-3.01067

>  <SCORE.INTRA.DIHEDRAL>
-12.4862

>  <SCORE.INTRA.DIHEDRAL.0>
22.5778

>  <SCORE.INTRA.POLAR>
0

>  <SCORE.INTRA.POLAR.0>
0

>  <SCORE.INTRA.REPUL>
0

>  <SCORE.INTRA.REPUL.0>
0

>  <SCORE.INTRA.SOLV>
3.59077

>  <SCORE.INTRA.SOLV.lig_0>
-102.332

>  <SCORE.INTRA.VDW>
1.43703

>  <SCORE.INTRA.VDW.0>
-5.08747

>  <SCORE.INTRA.norm>
-0.0752668

>  <SCORE.RESTR>
0.0458799

>  <SCORE.RESTR.CAVITY>
0.0458799

>  <SCORE.RESTR.norm>
0.001147

>  <SCORE.SYSTEM>
0

>  <SCORE.SYSTEM.CONST>
0

>  <SCORE.SYSTEM.DIHEDRAL>
0

>  <SCORE.SYSTEM.SOLV>
0

>  <SCORE.SYSTEM.norm>
0

>  <SCORE.heavy>
40

>  <SCORE.norm>
-0.359382

>  <RMSD>
7.582

$$$$
2g5q_lig
 OpenBabel11021811433D
libRbt.so/2013.1/901 2013/11/27
 40 42  0  0  0  0  0  0  0  0999 V2000
   -4.6495   -9.5647   17.0546 C   0  0  2  0  0  0  0  0  0  0  0  0
   -3.5575   -8.6740   16.9938 O   0  0  0  0  0  0  0  0  0  0  0  0
   -5.9387   -8.8090   16.6168 C   0  0  1  0  0  0  0  0  0  0  0  0
   -6.3334   -7.6940   17.6339 C   0  0  2  0  0  0  0  0  0  0  0  0
   -6.5656   -8.3688   19.0108 C   0  0  2  0  0  0  0  0  0  0  0  0
   -6.9546   -7.3749   19.9726 O   0  0  0  0  0  0  0  0  0  0  0  0
   -5.2238   -9.0872   19.4438 C   0  0  2  0  0  0  0  0  0  0  0  0
   -4.8390  -10.1064   18.4260 O   0  0  0  0  0  0  0  0  0  0  0  0
   -5.3430   -9.8005   20.7864 C   0  0  0  0  0  0  0  0  0  0  0  0
   -4.0329  -10.3654   21.2406 N   0  0  0  0  0  0  0  0  0  0  0  0
    0.7397   -9.0563   16.3116 C   0  0  2  0  0  0  0  0  0  0  0  0
    2.1293   -9.4720   16.4591 N   0  0  0  0  0  0  0  0  0  0  0  0
    0.2401   -8.3338   17.6323 C   0  0  0  0  0  0  0  0  0  0  0  0
   -1.2630   -7.8753   17.4742 C   0  0  2  0  0  0  0  0  0  0  0  0
   -1.7157   -7.1896   18.7147 N   0  0  0  0  0  0  0  0  0  0  0  0
   -2.1659   -9.1309   17.1484 C   0  0  2  0  0  0  0  0  0  0  0  0
   -1.6359   -9.8252   15.8316 C   0  0  2  0  0  0  0  0  0  0  0  0
   -2.4509  -10.9653   15.5422 O   0  0  0  0  0  0  0  0  0  0  0  0
   -0.1405  -10.2884   16.0164 C   0  0  1  0  0  0  0  0  0  0  0  0
    0.3491  -10.9164   14.7981 O   0  0  0  0  0  0  0  0  0  0  0  0
   -0.2977  -11.9792   14.1420 C   0  0  2  0  0  0  0  0  0  0  0  0
   -0.2088  -13.2322   15.0776 C   0  0  2  0  0  0  0  0  0  0  0  0
   -0.8348  -12.9535   16.2887 O   0  0  0  0  0  0  0  0  0  0  0  0
    1.2883  -13.6679   15.3044 C   0  0  1  0  0  0  0  0  0  0  0  0
    1.3839  -14.8706   16.1959 N   0  0  0  0  0  0  0  0  0  0  0  0
    1.9386  -13.9624   13.8945 C   0  0  2  0  0  0  0  0  0  0  0  0
    3.3006  -14.3711   14.0366 O   0  0  0  0  0  0  0  0  0  0  0  0
    1.8194  -12.6748   13.0111 C   0  0  2  0  0  0  0  0  0  0  0  0
    0.3840  -12.2530   12.8644 O   0  0  0  0  0  0  0  0  0  0  0  0
    2.3901  -12.8870   11.6389 C   0  0  0  0  0  0  0  0  0  0  0  0
    2.4145  -11.6615   10.8888 O   0  0  0  0  0  0  0  0  0  0  0  0
   -5.7127   -8.2472   15.2783 O   0  0  0  0  0  0  0  0  0  0  0  0
   -7.4838   -7.0693   17.2053 O   0  0  0  0  0  0  0  0  0  0  0  0
    5.3973   -8.7833   20.5381 N   0  0  0  0  0  0  0  0  0  0  0  0
    3.1994   -8.6202   16.6948 C   0  0  0  0  0  0  0  0  0  0  0  0
    3.0943   -7.4031   16.7993 O   0  0  0  0  0  0  0  0  0  0  0  0
    4.5446   -9.3760   16.7939 C   0  0  1  0  0  0  0  0  0  0  0  0
    5.3051   -8.9372   18.0617 C   0  0  0  0  0  0  0  0  0  0  0  0
    4.6264   -9.2695   19.3956 C   0  0  0  0  0  0  0  0  0  0  0  0
    4.2879  -10.7984   16.8122 O   0  0  0  0  0  0  0  0  0  0  0  0
  1  2  1  1  0  0  0
  1  3  1  0  0  0  0
  1  8  1  0  0  0  0
  3  4  1  0  0  0  0
  3 32  1  6  0  0  0
  4  5  1  0  0  0  0
  4 33  1  6  0  0  0
  5  6  1  1  0  0  0
  5  7  1  0  0  0  0
  7  8  1  0  0  0  0
  7  9  1  1  0  0  0
  9 10  1  0  0  0  0
 11 12  1  1  0  0  0
 11 13  1  0  0  0  0
 11 19  1  0  0  0  0
 12 35  1  0  0  0  0
 13 14  1  0  0  0  0
 14 15  1  1  0  0  0
 14 16  1  0  0  0  0
 16  2  1  6  0  0  0
 16 17  1  0  0  0  0
 17 18  1  1  0  0  0
 17 19  1  0  0  0  0
 19 20  1  6  0  0  0
 21 20  1  1  0  0  0
 21 22  1  0  0  0  0
 21 29  1  0  0  0  0
 22 23  1  1  0  0  0
 22 24  1  0  0  0  0
 24 25  1  1  0  0  0
 24 26  1  0  0  0  0
 26 27  1  1  0  0  0
 26 28  1  0  0  0  0
 28 29  1  0  0  0  0
 28 30  1  6  0  0  0
 30 31  1  0  0  0  0
 34 39  1  0  0  0  0
 35 36  2  0  0  0  0
 37 35  1  1  0  0  0
 37 38  1  0  0  0  0
 37 40  1  0  0  0  0
 38 39  1  0  0  0  0
M  END
>  <CHROM.1>
-170.50479493,-174.69671871,-60.47105419,-162.69637141,-172.67604210,-67.33922108
-173.44157986,-130.47845885,63.86536907,-178.32923423,-0.73481410,-10.15239020
16.57428666,2.66383587,-0.05003399,0.90209178

>  <Name>
2g5q_lig

>  <RI>
0

>  <Rbt.Current_Directory>
/home/itssahil/PROJECTS/Mol_Feturizer/New_Systems/rnas/2g5q

>  <Rbt.Executable>
rbdock ($Id: //depot/dev/client3/rdock/2013.1/src/exe/rbdock.cxx#4 $)

>  <Rbt.Library>
libRbt.so (2013.1, Build901 2013/11/27)

>  <Rbt.Parameter_File>
/export/apps/rDock/src/rDock_2013.1_src/data/scripts/dock_solv.prm

>  <Rbt.Receptor>
prm/pocket_docking_5.prm

>  <SCORE>
-17.5518

>  <SCORE.INTER>
-10.4859

>  <SCORE.INTER.CONST>
1

>  <SCORE.INTER.POLAR>
-0.911298

>  <SCORE.INTER.ROT>
10

>  <SCORE.INTER.SOLV>
15.4396

>  <SCORE.INTER.VDW>
-19.3661

>  <SCORE.INTER.norm>
-0.262147

>  <SCORE.INTRA>
-7.06588

>  <SCORE.INTRA.DIHEDRAL>
-17.5573

>  <SCORE.INTRA.DIHEDRAL.0>
22.5778

>  <SCORE.INTRA.POLAR>
0

>  <SCORE.INTRA.POLAR.0>
0

>  <SCORE.INTRA.REPUL>
0

>  <SCORE.INTRA.REPUL.0>
0

>  <SCORE.INTRA.SOLV>
-0.793266

>  <SCORE.INTRA.SOLV.lig_0>
-102.332

>  <SCORE.INTRA.VDW>
2.10942

>  <SCORE.INTRA.VDW.0>
-5.08747

>  <SCORE.INTRA.norm>
-0.176647

>  <SCORE.RESTR>
0

>  <SCORE.RESTR.CAVITY>
0

>  <SCORE.RESTR.norm>
0

>  <SCORE.SYSTEM>
0

>  <SCORE.SYSTEM.CONST>
0

>  <SCORE.SYSTEM.DIHEDRAL>
0

>  <SCORE.SYSTEM.SOLV>
0

>  <SCORE.SYSTEM.norm>
0

>  <SCORE.heavy>
40

>  <SCORE.norm>
-0.438794

>  <RMSD>
7.591

$$$$
2g5q_lig
 OpenBabel11021811433D
libRbt.so/2013.1/901 2013/11/27
 40 42  0  0  0  0  0  0  0  0999 V2000
   -4.4454   -9.6965   17.0101 C   0  0  2  0  0  0  0  0  0  0  0  0
   -3.3039   -8.8718   16.9303 O   0  0  0  0  0  0  0  0  0  0  0  0
   -5.7003   -8.8546   16.6346 C   0  0  1  0  0  0  0  0  0  0  0  0
   -5.9918   -7.7425   17.6891 C   0  0  2  0  0  0  0  0  0  0  0  0
   -6.2178   -8.4349   19.0582 C   0  0  2  0  0  0  0  0  0  0  0  0
   -6.5129   -7.4427   20.0546 O   0  0  0  0  0  0  0  0  0  0  0  0
   -4.9082   -9.2426   19.4279 C   0  0  2  0  0  0  0  0  0  0  0  0
   -4.6208  -10.2585   18.3752 O   0  0  0  0  0  0  0  0  0  0  0  0
   -5.0251   -9.9793   20.7580 C   0  0  0  0  0  0  0  0  0  0  0  0
   -3.7394  -10.6393   21.1494 N   0  0  0  0  0  0  0  0  0  0  0  0
    0.9847   -9.3759   16.2736 C   0  0  2  0  0  0  0  0  0  0  0  0
    2.3499   -9.8743   16.3897 N   0  0  0  0  0  0  0  0  0  0  0  0
    0.4905   -8.8000   17.6665 C   0  0  0  0  0  0  0  0  0  0  0  0
   -0.9857   -8.2523   17.5433 C   0  0  2  0  0  0  0  0  0  0  0  0
   -1.4330   -7.7051   18.8528 N   0  0  0  0  0  0  0  0  0  0  0  0
   -1.9388   -9.4119   17.0483 C   0  0  2  0  0  0  0  0  0  0  0  0
   -1.4131   -9.9619   15.6634 C   0  0  2  0  0  0  0  0  0  0  0  0
   -2.2738  -11.0158   15.2203 O   0  0  0  0  0  0  0  0  0  0  0  0
    0.0548  -10.5171   15.8122 C   0  0  1  0  0  0  0  0  0  0  0  0
    0.5410  -11.0117   14.5327 O   0  0  0  0  0  0  0  0  0  0  0  0
   -0.1674  -11.9064   13.7105 C   0  0  2  0  0  0  0  0  0  0  0  0
    0.0348  -13.3442   14.2980 C   0  0  2  0  0  0  0  0  0  0  0  0
   -0.4540  -13.3873   15.6001 O   0  0  0  0  0  0  0  0  0  0  0  0
    1.5510  -13.7702   14.2508 C   0  0  1  0  0  0  0  0  0  0  0  0
    1.7544  -15.1484   14.8073 N   0  0  0  0  0  0  0  0  0  0  0  0
    2.0417  -13.6937   12.7506 C   0  0  2  0  0  0  0  0  0  0  0  0
    3.4139  -14.0777   12.6428 O   0  0  0  0  0  0  0  0  0  0  0  0
    1.8150  -12.2360   12.2250 C   0  0  2  0  0  0  0  0  0  0  0  0
    0.3692  -11.8406   12.3395 O   0  0  0  0  0  0  0  0  0  0  0  0
    2.2302  -12.0913   10.7896 C   0  0  0  0  0  0  0  0  0  0  0  0
    2.8486  -10.8162   10.5513 O   0  0  0  0  0  0  0  0  0  0  0  0
   -5.4861   -8.2756   15.3015 O   0  0  0  0  0  0  0  0  0  0  0  0
   -7.1159   -7.0398   17.3150 O   0  0  0  0  0  0  0  0  0  0  0  0
    6.7438   -9.9494   19.1816 N   0  0  0  0  0  0  0  0  0  0  0  0
    3.3741   -9.6216   15.4879 C   0  0  0  0  0  0  0  0  0  0  0  0
    3.2405   -8.9466   14.4731 O   0  0  0  0  0  0  0  0  0  0  0  0
    4.7012  -10.3016   15.8965 C   0  0  1  0  0  0  0  0  0  0  0  0
    5.1179   -9.8417   17.3082 C   0  0  0  0  0  0  0  0  0  0  0  0
    6.4767  -10.3517   17.8022 C   0  0  0  0  0  0  0  0  0  0  0  0
    4.5317  -11.7363   15.8499 O   0  0  0  0  0  0  0  0  0  0  0  0
  1  2  1  1  0  0  0
  1  3  1  0  0  0  0
  1  8  1  0  0  0  0
  3  4  1  0  0  0  0
  3 32  1  6  0  0  0
  4  5  1  0  0  0  0
  4 33  1  6  0  0  0
  5  6  1  1  0  0  0
  5  7  1  0  0  0  0
  7  8  1  0  0  0  0
  7  9  1  1  0  0  0
  9 10  1  0  0  0  0
 11 12  1  1  0  0  0
 11 13  1  0  0  0  0
 11 19  1  0  0  0  0
 12 35  1  0  0  0  0
 13 14  1  0  0  0  0
 14 15  1  1  0  0  0
 14 16  1  0  0  0  0
 16  2  1  6  0  0  0
 16 17  1  0  0  0  0
 17 18  1  1  0  0  0
 17 19  1  0  0  0  0
 19 20  1  6  0  0  0
 21 20  1  1  0  0  0
 21 22  1  0  0  0  0
 21 29  1  0  0  0  0
 22 23  1  1  0  0  0
 22 24  1  0  0  0  0
 24 25  1  6  0  0  0
 24 26  1  0  0  0  0
 26 27  1  1  0  0  0
 26 28  1  0  0  0  0
 28 29  1  0  0  0  0
 28 30  1  6  0  0  0
 30 31  1  0  0  0  0
 34 39  1  0  0  0  0
 35 36  2  0  0  0  0
 37 35  1  1  0  0  0
 37 38  1  0  0  0  0
 37 40  1  0  0  0  0
 38 39  1  0  0  0  0
M  END
>  <CHROM.1>
-171.55272653,-175.03330577,-134.26114626,-155.53543397,-169.74347324,-79.55791808
-142.30425623,-57.07624205,-175.37240752,-175.76071361,-0.44824615,-10.38724288
16.08739169,2.61281072,-0.09324971,1.07656000

>  <Name>
2g5q_lig

>  <RI>
9.52566e+06

>  <Rbt.Current_Directory>
/home/itssahil/PROJECTS/Mol_Feturizer/New_Systems/rnas/2g5q

>  <Rbt.Executable>
rbdock ($Id: //depot/dev/client3/rdock/2013.1/src/exe/rbdock.cxx#4 $)

>  <Rbt.Library>
libRbt.so (2013.1, Build901 2013/11/27)

>  <Rbt.Parameter_File>
/export/apps/rDock/src/rDock_2013.1_src/data/scripts/dock_solv.prm

>  <Rbt.Receptor>
prm/pocket_docking_4.prm

>  <SCORE>
-21.2104

>  <SCORE.INTER>
-15.4573

>  <SCORE.INTER.CONST>
1

>  <SCORE.INTER.POLAR>
-1.76504

>  <SCORE.INTER.ROT>
10

>  <SCORE.INTER.SOLV>
14.7661

>  <SCORE.INTER.VDW>
-19.6101

>  <SCORE.INTER.norm>
-0.386432

>  <SCORE.INTRA>
-5.77271

>  <SCORE.INTRA.DIHEDRAL>
-11.6544

>  <SCORE.INTRA.DIHEDRAL.0>
22.5778

>  <SCORE.INTRA.POLAR>
0

>  <SCORE.INTRA.POLAR.0>
0

>  <SCORE.INTRA.REPUL>
0

>  <SCORE.INTRA.REPUL.0>
0

>  <SCORE.INTRA.SOLV>
-0.774278

>  <SCORE.INTRA.SOLV.lig_0>
-102.332

>  <SCORE.INTRA.VDW>
0.441638

>  <SCORE.INTRA.VDW.0>
-5.08747

>  <SCORE.INTRA.norm>
-0.144318

>  <SCORE.RESTR>
0.0195771

>  <SCORE.RESTR.CAVITY>
0.0195771

>  <SCORE.RESTR.norm>
0.000489427

>  <SCORE.SYSTEM>
0

>  <SCORE.SYSTEM.CONST>
0

>  <SCORE.SYSTEM.DIHEDRAL>
0

>  <SCORE.SYSTEM.SOLV>
0

>  <SCORE.SYSTEM.norm>
0

>  <SCORE.heavy>
40

>  <SCORE.norm>
-0.53026

>  <RMSD>
7.606

$$$$
2g5q_lig
 OpenBabel11021811433D
libRbt.so/2013.1/901 2013/11/27
 40 42  0  0  0  0  0  0  0  0999 V2000
    3.5040   -3.5723   22.6644 C   0  0  2  0  0  0  0  0  0  0  0  0
    4.2978   -4.2273   21.6999 O   0  0  0  0  0  0  0  0  0  0  0  0
    3.1273   -2.1594   22.1290 C   0  0  1  0  0  0  0  0  0  0  0  0
    4.3755   -1.2315   22.0074 C   0  0  2  0  0  0  0  0  0  0  0  0
    5.0106   -1.1040   23.4164 C   0  0  2  0  0  0  0  0  0  0  0  0
    6.1536   -0.2358   23.3506 O   0  0  0  0  0  0  0  0  0  0  0  0
    5.4211   -2.5509   23.9083 C   0  0  2  0  0  0  0  0  0  0  0  0
    4.2198   -3.4325   23.9598 O   0  0  0  0  0  0  0  0  0  0  0  0
    6.0475   -2.5459   25.2987 C   0  0  0  0  0  0  0  0  0  0  0  0
    5.1219   -1.9784   26.3297 N   0  0  0  0  0  0  0  0  0  0  0  0
    5.6314   -8.3290   21.0107 C   0  0  2  0  0  0  0  0  0  0  0  0
    5.6115   -9.7767   20.8389 N   0  0  0  0  0  0  0  0  0  0  0  0
    5.0792   -7.9392   22.4456 C   0  0  0  0  0  0  0  0  0  0  0  0
    5.1058   -6.3719   22.6387 C   0  0  2  0  0  0  0  0  0  0  0  0
    4.5963   -6.0204   23.9918 N   0  0  0  0  0  0  0  0  0  0  0  0
    4.2457   -5.6861   21.5038 C   0  0  2  0  0  0  0  0  0  0  0  0
    4.8221   -6.1005   20.0921 C   0  0  2  0  0  0  0  0  0  0  0  0
    4.0380   -5.4836   19.0662 O   0  0  0  0  0  0  0  0  0  0  0  0
    4.7721   -7.6660   19.9143 C   0  0  1  0  0  0  0  0  0  0  0  0
    5.3148   -8.0458   18.6184 O   0  0  0  0  0  0  0  0  0  0  0  0
    4.6564   -7.8354   17.3935 C   0  0  2  0  0  0  0  0  0  0  0  0
    3.5617   -8.9465   17.2520 C   0  0  2  0  0  0  0  0  0  0  0  0
    2.6637   -8.8519   18.3108 O   0  0  0  0  0  0  0  0  0  0  0  0
    4.2111  -10.3808   17.1905 C   0  0  1  0  0  0  0  0  0  0  0  0
    3.1705  -11.4521   17.0503 N   0  0  0  0  0  0  0  0  0  0  0  0
    5.2200  -10.4170   15.9746 C   0  0  2  0  0  0  0  0  0  0  0  0
    5.8376  -11.7008   15.8627 O   0  0  0  0  0  0  0  0  0  0  0  0
    6.2860   -9.2877   16.1766 C   0  0  2  0  0  0  0  0  0  0  0  0
    5.6287   -7.9405   16.2909 O   0  0  0  0  0  0  0  0  0  0  0  0
    7.2661   -9.2382   15.0406 C   0  0  0  0  0  0  0  0  0  0  0  0
    8.3172   -8.2931   15.2992 O   0  0  0  0  0  0  0  0  0  0  0  0
    2.4601   -2.3203   20.8301 O   0  0  0  0  0  0  0  0  0  0  0  0
    3.9837    0.0050   21.5436 O   0  0  0  0  0  0  0  0  0  0  0  0
    6.2315  -14.0464   24.5073 N   0  0  0  0  0  0  0  0  0  0  0  0
    6.3915  -10.6783   21.5494 C   0  0  0  0  0  0  0  0  0  0  0  0
    7.2023  -10.3517   22.4092 O   0  0  0  0  0  0  0  0  0  0  0  0
    6.1366  -12.1427   21.1238 C   0  0  1  0  0  0  0  0  0  0  0  0
    6.5944  -13.1045   22.2389 C   0  0  0  0  0  0  0  0  0  0  0  0
    5.8166  -13.0164   23.5571 C   0  0  0  0  0  0  0  0  0  0  0  0
    4.7299  -12.3147   20.8390 O   0  0  0  0  0  0  0  0  0  0  0  0
  1  2  1  6  0  0  0
  1  3  1  0  0  0  0
  1  8  1  0  0  0  0
  3  4  1  0  0  0  0
  3 32  1  6  0  0  0
  4  5  1  0  0  0  0
  4 33  1  1  0  0  0
  5  6  1  6  0  0  0
  5  7  1  0  0  0  0
  7  8  1  0  0  0  0
  7  9  1  1  0  0  0
  9 10  1  0  0  0  0
 11 12  1  6  0  0  0
 11 13  1  0  0  0  0
 11 19  1  0  0  0  0
 12 35  1  0  0  0  0
 13 14  1  0  0  0  0
 14 15  1  1  0  0  0
 14 16  1  0  0  0  0
 16  2  1  1  0  0  0
 16 17  1  0  0  0  0
 17 18  1  6  0  0  0
 17 19  1  0  0  0  0
 19 20  1  6  0  0  0
 21 20  1  1  0  0  0
 21 22  1  0  0  0  0
 21 29  1  0  0  0  0
 22 23  1  1  0  0  0
 22 24  1  0  0  0  0
 24 25  1  6  0  0  0
 24 26  1  0  0  0  0
 26 27  1  1  0  0  0
 26 28  1  0  0  0  0
 28 29  1  0  0  0  0
 28 30  1  6  0  0  0
 30 31  1  0  0  0  0
 34 39  1  0  0  0  0
 35 36  2  0  0  0  0
 37 35  1  1  0  0  0
 37 38  1  0  0  0  0
 37 40  1  0  0  0  0
 38 39  1  0  0  0  0
M  END
>  <CHROM.1>
-147.06718302,59.17023809,-66.34188930,-79.20930153,167.87367915,-78.04620644
-174.11082307,-159.14598376,65.05807884,174.51374994,5.07208672,-7.14122160
20.60447136,-2.29780342,1.41318646,-1.93907143

>  <Name>
2g5q_lig

>  <RI>
224

>  <Rbt.Current_Directory>
/home/itssahil/PROJECTS/Mol_Feturizer/New_Systems/rnas/2g5q

>  <Rbt.Executable>
rbdock ($Id: //depot/dev/client3/rdock/2013.1/src/exe/rbdock.cxx#4 $)

>  <Rbt.Library>
libRbt.so (2013.1, Build901 2013/11/27)

>  <Rbt.Parameter_File>
/export/apps/rDock/src/rDock_2013.1_src/data/scripts/dock_solv.prm

>  <Rbt.Receptor>
prm/pocket_docking_8.prm

>  <SCORE>
-19.6146

>  <SCORE.INTER>
-15.7969

>  <SCORE.INTER.CONST>
1

>  <SCORE.INTER.POLAR>
-0.856114

>  <SCORE.INTER.ROT>
10

>  <SCORE.INTER.SOLV>
17.7051

>  <SCORE.INTER.VDW>
-23.846

>  <SCORE.INTER.norm>
-0.394923

>  <SCORE.INTRA>
-3.81766

>  <SCORE.INTRA.DIHEDRAL>
-12.9174

>  <SCORE.INTRA.DIHEDRAL.0>
22.5778

>  <SCORE.INTRA.POLAR>
0

>  <SCORE.INTRA.POLAR.0>
0

>  <SCORE.INTRA.REPUL>
0

>  <SCORE.INTRA.REPUL.0>
0

>  <SCORE.INTRA.SOLV>
2.76617

>  <SCORE.INTRA.SOLV.lig_0>
-102.332

>  <SCORE.INTRA.VDW>
1.25797

>  <SCORE.INTRA.VDW.0>
-5.08747

>  <SCORE.INTRA.norm>
-0.0954415

>  <SCORE.RESTR>
0

>  <SCORE.RESTR.CAVITY>
0

>  <SCORE.RESTR.norm>
0

>  <SCORE.SYSTEM>
0

>  <SCORE.SYSTEM.CONST>
0

>  <SCORE.SYSTEM.DIHEDRAL>
0

>  <SCORE.SYSTEM.SOLV>
0

>  <SCORE.SYSTEM.norm>
0

>  <SCORE.heavy>
40

>  <SCORE.norm>
-0.490365

>  <RMSD>
7.607

$$$$
2g5q_lig
 OpenBabel11021811433D
libRbt.so/2013.1/901 2013/11/27
 40 42  0  0  0  0  0  0  0  0999 V2000
    4.2293  -11.5337   13.7913 C   0  0  2  0  0  0  0  0  0  0  0  0
    3.5254  -11.9160   14.9523 O   0  0  0  0  0  0  0  0  0  0  0  0
    3.5914  -12.2435   12.5609 C   0  0  1  0  0  0  0  0  0  0  0  0
    3.7988  -13.7889   12.6086 C   0  0  2  0  0  0  0  0  0  0  0  0
    5.3251  -14.0619   12.6359 C   0  0  2  0  0  0  0  0  0  0  0  0
    5.5586  -15.4795   12.6568 O   0  0  0  0  0  0  0  0  0  0  0  0
    5.9308  -13.3651   13.9210 C   0  0  2  0  0  0  0  0  0  0  0  0
    5.6680  -11.8981   13.8780 O   0  0  0  0  0  0  0  0  0  0  0  0
    7.4387  -13.5585   14.0418 C   0  0  0  0  0  0  0  0  0  0  0  0
    7.9780  -12.9867   15.3161 N   0  0  0  0  0  0  0  0  0  0  0  0
   -0.1359  -10.2941   16.6963 C   0  0  2  0  0  0  0  0  0  0  0  0
   -1.5408   -9.9554   16.8895 N   0  0  0  0  0  0  0  0  0  0  0  0
    0.3935   -9.6818   15.3322 C   0  0  0  0  0  0  0  0  0  0  0  0
    1.9173  -10.0402   15.1224 C   0  0  2  0  0  0  0  0  0  0  0  0
    2.4042   -9.4511   13.8458 N   0  0  0  0  0  0  0  0  0  0  0  0
    2.0965  -11.6105   15.1369 C   0  0  2  0  0  0  0  0  0  0  0  0
    1.5553  -12.1832   16.5066 C   0  0  2  0  0  0  0  0  0  0  0  0
    1.7127  -13.6056   16.5149 O   0  0  0  0  0  0  0  0  0  0  0  0
    0.0303  -11.8278   16.6885 C   0  0  1  0  0  0  0  0  0  0  0  0
   -0.4624  -12.3458   17.9563 O   0  0  0  0  0  0  0  0  0  0  0  0
   -0.5169  -13.7125   18.2838 C   0  0  2  0  0  0  0  0  0  0  0  0
   -1.6880  -14.3465   17.4593 C   0  0  2  0  0  0  0  0  0  0  0  0
   -1.4425  -14.1804   16.0997 O   0  0  0  0  0  0  0  0  0  0  0  0
   -3.0745  -13.7160   17.8627 C   0  0  1  0  0  0  0  0  0  0  0  0
   -4.2035  -14.3202   17.0814 N   0  0  0  0  0  0  0  0  0  0  0  0
   -3.2865  -13.9339   19.4135 C   0  0  2  0  0  0  0  0  0  0  0  0
   -4.5363  -13.3871   19.8390 O   0  0  0  0  0  0  0  0  0  0  0  0
   -2.0877  -13.2777   20.1782 C   0  0  2  0  0  0  0  0  0  0  0  0
   -0.7772  -13.8598   19.7269 O   0  0  0  0  0  0  0  0  0  0  0  0
   -2.2022  -13.4710   21.6626 C   0  0  0  0  0  0  0  0  0  0  0  0
   -2.1102  -14.8606   22.0164 O   0  0  0  0  0  0  0  0  0  0  0  0
    2.1629  -11.9031   12.5205 O   0  0  0  0  0  0  0  0  0  0  0  0
    3.2283  -14.3623   11.4936 O   0  0  0  0  0  0  0  0  0  0  0  0
   -5.9440   -8.4945   19.3203 N   0  0  0  0  0  0  0  0  0  0  0  0
   -2.0267   -8.6878   17.1780 C   0  0  0  0  0  0  0  0  0  0  0  0
   -1.3164   -7.6974   17.3119 O   0  0  0  0  0  0  0  0  0  0  0  0
   -3.5653   -8.6659   17.3291 C   0  0  1  0  0  0  0  0  0  0  0  0
   -3.9951   -7.4569   18.1846 C   0  0  0  0  0  0  0  0  0  0  0  0
   -5.4908   -7.3668   18.5087 C   0  0  0  0  0  0  0  0  0  0  0  0
   -4.1689   -8.6105   16.0169 O   0  0  0  0  0  0  0  0  0  0  0  0
  1  2  1  1  0  0  0
  1  3  1  0  0  0  0
  1  8  1  0  0  0  0
  3  4  1  0  0  0  0
  3 32  1  1  0  0  0
  4  5  1  0  0  0  0
  4 33  1  6  0  0  0
  5  6  1  1  0  0  0
  5  7  1  0  0  0  0
  7  8  1  0  0  0  0
  7  9  1  6  0  0  0
  9 10  1  0  0  0  0
 11 12  1  6  0  0  0
 11 13  1  0  0  0  0
 11 19  1  0  0  0  0
 12 35  1  0  0  0  0
 13 14  1  0  0  0  0
 14 15  1  6  0  0  0
 14 16  1  0  0  0  0
 16  2  1  1  0  0  0
 16 17  1  0  0  0  0
 17 18  1  6  0  0  0
 17 19  1  0  0  0  0
 19 20  1  1  0  0  0
 21 20  1  1  0  0  0
 21 22  1  0  0  0  0
 21 29  1  0  0  0  0
 22 23  1  6  0  0  0
 22 24  1  0  0  0  0
 24 25  1  6  0  0  0
 24 26  1  0  0  0  0
 26 27  1  1  0  0  0
 26 28  1  0  0  0  0
 28 29  1  0  0  0  0
 28 30  1  1  0  0  0
 30 31  1  0  0  0  0
 34 39  1  0  0  0  0
 35 36  2  0  0  0  0
 37 35  1  6  0  0  0
 37 38  1  0  0  0  0
 37 40  1  0  0  0  0
 38 39  1  0  0  0  0
M  END
>  <CHROM.1>
-62.12238720,-175.49327349,-70.43822823,-61.18683279,177.38940179,-73.07841026
64.65357878,156.79975199,-175.51690347,63.41935752,0.35142735,-11.98241099
16.36448833,0.06448423,0.58972232,-0.48541711

>  <Name>
2g5q_lig

>  <RI>
224

>  <Rbt.Current_Directory>
/home/itssahil/PROJECTS/Mol_Feturizer/New_Systems/rnas/2g5q

>  <Rbt.Executable>
rbdock ($Id: //depot/dev/client3/rdock/2013.1/src/exe/rbdock.cxx#4 $)

>  <Rbt.Library>
libRbt.so (2013.1, Build901 2013/11/27)

>  <Rbt.Parameter_File>
/export/apps/rDock/src/rDock_2013.1_src/data/scripts/dock_solv.prm

>  <Rbt.Receptor>
prm/pocket_docking_8.prm

>  <SCORE>
-15.1855

>  <SCORE.INTER>
-9.41678

>  <SCORE.INTER.CONST>
1

>  <SCORE.INTER.POLAR>
-2.48042

>  <SCORE.INTER.ROT>
10

>  <SCORE.INTER.SOLV>
15.3958

>  <SCORE.INTER.VDW>
-13.4084

>  <SCORE.INTER.norm>
-0.235419

>  <SCORE.INTRA>
-5.76872

>  <SCORE.INTRA.DIHEDRAL>
-20.0083

>  <SCORE.INTRA.DIHEDRAL.0>
22.5778

>  <SCORE.INTRA.POLAR>
0

>  <SCORE.INTRA.POLAR.0>
0

>  <SCORE.INTRA.REPUL>
0

>  <SCORE.INTRA.REPUL.0>
0

>  <SCORE.INTRA.SOLV>
2.77825

>  <SCORE.INTRA.SOLV.lig_0>
-102.332

>  <SCORE.INTRA.VDW>
2.84629

>  <SCORE.INTRA.VDW.0>
-5.08747

>  <SCORE.INTRA.norm>
-0.144218

>  <SCORE.RESTR>
0

>  <SCORE.RESTR.CAVITY>
0

>  <SCORE.RESTR.norm>
0

>  <SCORE.SYSTEM>
0

>  <SCORE.SYSTEM.CONST>
0

>  <SCORE.SYSTEM.DIHEDRAL>
0

>  <SCORE.SYSTEM.SOLV>
0

>  <SCORE.SYSTEM.norm>
0

>  <SCORE.heavy>
40

>  <SCORE.norm>
-0.379638

>  <RMSD>
7.610

$$$$
2g5q_lig
 OpenBabel11021811433D
libRbt.so/2013.1/901 2013/11/27
 40 42  0  0  0  0  0  0  0  0999 V2000
   -2.5804  -10.0228   17.4216 C   0  0  2  0  0  0  0  0  0  0  0  0
   -2.2867   -9.6357   16.0974 O   0  0  0  0  0  0  0  0  0  0  0  0
   -4.0232   -9.5542   17.7733 C   0  0  1  0  0  0  0  0  0  0  0  0
   -4.1333   -7.9990   17.8256 C   0  0  2  0  0  0  0  0  0  0  0  0
   -3.1413   -7.4894   18.9032 C   0  0  2  0  0  0  0  0  0  0  0  0
   -3.2298   -6.0585   18.9983 O   0  0  0  0  0  0  0  0  0  0  0  0
   -1.6832   -7.9445   18.4901 C   0  0  2  0  0  0  0  0  0  0  0  0
   -1.6212   -9.4308   18.3909 O   0  0  0  0  0  0  0  0  0  0  0  0
   -0.6217   -7.5061   19.4934 C   0  0  0  0  0  0  0  0  0  0  0  0
    0.7511   -7.9430   19.0857 N   0  0  0  0  0  0  0  0  0  0  0  0
    1.5918  -11.5270   15.4208 C   0  0  2  0  0  0  0  0  0  0  0  0
    2.8068  -11.9868   14.7590 N   0  0  0  0  0  0  0  0  0  0  0  0
    0.3135  -12.1345   14.7046 C   0  0  0  0  0  0  0  0  0  0  0  0
   -1.0050  -11.6447   15.4229 C   0  0  2  0  0  0  0  0  0  0  0  0
   -2.1954  -12.2300   14.7489 N   0  0  0  0  0  0  0  0  0  0  0  0
   -1.0560  -10.0650   15.4117 C   0  0  2  0  0  0  0  0  0  0  0  0
    0.2329   -9.4978   16.1284 C   0  0  2  0  0  0  0  0  0  0  0  0
    0.1877   -8.0675   16.1114 O   0  0  0  0  0  0  0  0  0  0  0  0
    1.5357   -9.9857   15.3869 C   0  0  1  0  0  0  0  0  0  0  0  0
    2.7216   -9.4720   16.0563 O   0  0  0  0  0  0  0  0  0  0  0  0
    2.9650   -9.5935   17.4362 C   0  0  2  0  0  0  0  0  0  0  0  0
    4.2444   -8.7511   17.7632 C   0  0  2  0  0  0  0  0  0  0  0  0
    4.0242   -7.4200   17.4223 O   0  0  0  0  0  0  0  0  0  0  0  0
    5.5083   -9.3224   17.0158 C   0  0  1  0  0  0  0  0  0  0  0  0
    6.7402   -8.5247   17.3263 N   0  0  0  0  0  0  0  0  0  0  0  0
    5.6965  -10.8325   17.4420 C   0  0  2  0  0  0  0  0  0  0  0  0
    6.8369  -11.4054   16.7991 O   0  0  0  0  0  0  0  0  0  0  0  0
    4.3885  -11.6178   17.0879 C   0  0  2  0  0  0  0  0  0  0  0  0
    3.1943  -11.0106   17.7698 O   0  0  0  0  0  0  0  0  0  0  0  0
    4.4789  -13.0604   17.4932 C   0  0  0  0  0  0  0  0  0  0  0  0
    4.6220  -13.1945   18.9167 O   0  0  0  0  0  0  0  0  0  0  0  0
   -4.9466  -10.1162   16.7785 O   0  0  0  0  0  0  0  0  0  0  0  0
   -5.4228   -7.6419   18.1528 O   0  0  0  0  0  0  0  0  0  0  0  0
    6.3327  -14.8335   13.4044 N   0  0  0  0  0  0  0  0  0  0  0  0
    3.1758  -11.6777   13.4573 C   0  0  0  0  0  0  0  0  0  0  0  0
    2.5064  -10.9785   12.7046 O   0  0  0  0  0  0  0  0  0  0  0  0
    4.5192  -12.3283   13.0543 C   0  0  1  0  0  0  0  0  0  0  0  0
    4.2769  -13.7556   12.5232 C   0  0  0  0  0  0  0  0  0  0  0  0
    5.5351  -14.5728   12.2078 C   0  0  0  0  0  0  0  0  0  0  0  0
    5.1612  -11.5069   12.0531 O   0  0  0  0  0  0  0  0  0  0  0  0
  1  2  1  6  0  0  0
  1  3  1  0  0  0  0
  1  8  1  0  0  0  0
  3  4  1  0  0  0  0
  3 32  1  6  0  0  0
  4  5  1  0  0  0  0
  4 33  1  1  0  0  0
  5  6  1  6  0  0  0
  5  7  1  0  0  0  0
  7  8  1  0  0  0  0
  7  9  1  1  0  0  0
  9 10  1  0  0  0  0
 11 12  1  6  0  0  0
 11 13  1  0  0  0  0
 11 19  1  0  0  0  0
 12 35  1  0  0  0  0
 13 14  1  0  0  0  0
 14 15  1  6  0  0  0
 14 16  1  0  0  0  0
 16  2  1  1  0  0  0
 16 17  1  0  0  0  0
 17 18  1  6  0  0  0
 17 19  1  0  0  0  0
 19 20  1  1  0  0  0
 21 20  1  6  0  0  0
 21 22  1  0  0  0  0
 21 29  1  0  0  0  0
 22 23  1  6  0  0  0
 22 24  1  0  0  0  0
 24 25  1  1  0  0  0
 24 26  1  0  0  0  0
 26 27  1  6  0  0  0
 26 28  1  0  0  0  0
 28 29  1  0  0  0  0
 28 30  1  1  0  0  0
 30 31  1  0  0  0  0
 34 39  1  0  0  0  0
 35 36  2  0  0  0  0
 37 35  1  6  0  0  0
 37 38  1  0  0  0  0
 37 40  1  0  0  0  0
 38 39  1  0  0  0  0
M  END
>  <CHROM.1>
-172.86828829,-179.91076865,65.02189666,56.70043300,-68.34427941,-172.77449780
62.85264391,86.32511018,-174.48144585,64.01653427,1.39749881,-10.28746333
16.34802772,2.62610081,-0.10301463,0.85926975

>  <Name>
2g5q_lig

>  <RI>
224

>  <Rbt.Current_Directory>
/home/itssahil/PROJECTS/Mol_Feturizer/New_Systems/rnas/2g5q

>  <Rbt.Executable>
rbdock ($Id: //depot/dev/client3/rdock/2013.1/src/exe/rbdock.cxx#4 $)

>  <Rbt.Library>
libRbt.so (2013.1, Build901 2013/11/27)

>  <Rbt.Parameter_File>
/export/apps/rDock/src/rDock_2013.1_src/data/scripts/dock_solv.prm

>  <Rbt.Receptor>
prm/pocket_docking_8.prm

>  <SCORE>
-9.5779

>  <SCORE.INTER>
-1.716

>  <SCORE.INTER.CONST>
1

>  <SCORE.INTER.POLAR>
-0.334871

>  <SCORE.INTER.ROT>
10

>  <SCORE.INTER.SOLV>
15.7012

>  <SCORE.INTER.VDW>
-15.5282

>  <SCORE.INTER.norm>
-0.0429

>  <SCORE.INTRA>
-7.88807

>  <SCORE.INTRA.DIHEDRAL>
-19.9588

>  <SCORE.INTRA.DIHEDRAL.0>
22.5778

>  <SCORE.INTRA.POLAR>
0

>  <SCORE.INTRA.POLAR.0>
0

>  <SCORE.INTRA.REPUL>
0

>  <SCORE.INTRA.REPUL.0>
0

>  <SCORE.INTRA.SOLV>
5.9383

>  <SCORE.INTRA.SOLV.lig_0>
-102.332

>  <SCORE.INTRA.VDW>
-0.877818

>  <SCORE.INTRA.VDW.0>
-5.08747

>  <SCORE.INTRA.norm>
-0.197202

>  <SCORE.RESTR>
0.0261646

>  <SCORE.RESTR.CAVITY>
0.0261646

>  <SCORE.RESTR.norm>
0.000654115

>  <SCORE.SYSTEM>
0

>  <SCORE.SYSTEM.CONST>
0

>  <SCORE.SYSTEM.DIHEDRAL>
0

>  <SCORE.SYSTEM.SOLV>
0

>  <SCORE.SYSTEM.norm>
0

>  <SCORE.heavy>
40

>  <SCORE.norm>
-0.239448

>  <RMSD>
7.623

$$$$
2g5q_lig
 OpenBabel11021811433D
libRbt.so/2013.1/901 2013/11/27
 40 42  0  0  0  0  0  0  0  0999 V2000
   -3.1547   -9.2829   17.1479 C   0  0  2  0  0  0  0  0  0  0  0  0
   -2.1009   -8.3459   17.1775 O   0  0  0  0  0  0  0  0  0  0  0  0
   -3.8077   -9.3488   18.5601 C   0  0  1  0  0  0  0  0  0  0  0  0
   -2.8341   -9.9433   19.6241 C   0  0  2  0  0  0  0  0  0  0  0  0
   -2.4420  -11.3710   19.1629 C   0  0  2  0  0  0  0  0  0  0  0  0
   -1.5612  -11.9631   20.1314 O   0  0  0  0  0  0  0  0  0  0  0  0
   -1.7422  -11.2605   17.7479 C   0  0  2  0  0  0  0  0  0  0  0  0
   -2.6736  -10.6365   16.7651 O   0  0  0  0  0  0  0  0  0  0  0  0
   -1.3247  -12.6164   17.1885 C   0  0  0  0  0  0  0  0  0  0  0  0
   -0.7748  -12.5062   15.8003 N   0  0  0  0  0  0  0  0  0  0  0  0
    1.9996   -7.8271   18.5895 C   0  0  2  0  0  0  0  0  0  0  0  0
    3.2665   -8.0684   19.2697 N   0  0  0  0  0  0  0  0  0  0  0  0
    0.8166   -7.7522   19.6434 C   0  0  0  0  0  0  0  0  0  0  0  0
   -0.5569   -7.4837   18.9113 C   0  0  2  0  0  0  0  0  0  0  0  0
   -1.6559   -7.4046   19.9112 N   0  0  0  0  0  0  0  0  0  0  0  0
   -0.8227   -8.6271   17.8530 C   0  0  2  0  0  0  0  0  0  0  0  0
    0.3764   -8.6736   16.8250 C   0  0  2  0  0  0  0  0  0  0  0  0
    0.1366   -9.7136   15.8717 O   0  0  0  0  0  0  0  0  0  0  0  0
    1.7340   -8.9578   17.5742 C   0  0  1  0  0  0  0  0  0  0  0  0
    2.8383   -8.9879   16.6266 O   0  0  0  0  0  0  0  0  0  0  0  0
    3.5326  -10.1545   16.2592 C   0  0  2  0  0  0  0  0  0  0  0  0
    4.8697   -9.7094   15.5756 C   0  0  2  0  0  0  0  0  0  0  0  0
    5.6218   -8.9563   16.4721 O   0  0  0  0  0  0  0  0  0  0  0  0
    4.5907   -8.8984   14.2538 C   0  0  1  0  0  0  0  0  0  0  0  0
    5.8658   -8.4714   13.5890 N   0  0  0  0  0  0  0  0  0  0  0  0
    3.7312   -9.8059   13.2868 C   0  0  2  0  0  0  0  0  0  0  0  0
    3.4514   -9.1241   12.0625 O   0  0  0  0  0  0  0  0  0  0  0  0
    2.4123  -10.2138   14.0261 C   0  0  2  0  0  0  0  0  0  0  0  0
    2.7151  -10.9325   15.3113 O   0  0  0  0  0  0  0  0  0  0  0  0
    1.5530  -11.1068   13.1788 C   0  0  0  0  0  0  0  0  0  0  0  0
    0.1671  -10.9945   13.5415 O   0  0  0  0  0  0  0  0  0  0  0  0
   -4.2363   -7.9944   18.9343 O   0  0  0  0  0  0  0  0  0  0  0  0
   -3.4658   -9.9904   20.8473 O   0  0  0  0  0  0  0  0  0  0  0  0
    5.3749   -5.7273   22.7709 N   0  0  0  0  0  0  0  0  0  0  0  0
    4.0778   -7.0878   19.8233 C   0  0  0  0  0  0  0  0  0  0  0  0
    3.8187   -5.8897   19.7947 O   0  0  0  0  0  0  0  0  0  0  0  0
    5.3561   -7.6733   20.4664 C   0  0  1  0  0  0  0  0  0  0  0  0
    5.0836   -8.0479   21.9374 C   0  0  0  0  0  0  0  0  0  0  0  0
    4.5351   -6.9223   22.8220 C   0  0  0  0  0  0  0  0  0  0  0  0
    5.7799   -8.8293   19.7093 O   0  0  0  0  0  0  0  0  0  0  0  0
  1  2  1  1  0  0  0
  1  3  1  0  0  0  0
  1  8  1  0  0  0  0
  3  4  1  0  0  0  0
  3 32  1  1  0  0  0
  4  5  1  0  0  0  0
  4 33  1  1  0  0  0
  5  6  1  1  0  0  0
  5  7  1  0  0  0  0
  7  8  1  0  0  0  0
  7  9  1  6  0  0  0
  9 10  1  0  0  0  0
 11 12  1  1  0  0  0
 11 13  1  0  0  0  0
 11 19  1  0  0  0  0
 12 35  1  0  0  0  0
 13 14  1  0  0  0  0
 14 15  1  1  0  0  0
 14 16  1  0  0  0  0
 16  2  1  6  0  0  0
 16 17  1  0  0  0  0
 17 18  1  6  0  0  0
 17 19  1  0  0  0  0
 19 20  1  6  0  0  0
 21 20  1  6  0  0  0
 21 22  1  0  0  0  0
 21 29  1  0  0  0  0
 22 23  1  1  0  0  0
 22 24  1  0  0  0  0
 24 25  1  6  0  0  0
 24 26  1  0  0  0  0
 26 27  1  6  0  0  0
 26 28  1  0  0  0  0
 28 29  1  0  0  0  0
 28 30  1  6  0  0  0
 30 31  1  0  0  0  0
 34 39  1  0  0  0  0
 35 36  2  0  0  0  0
 37 35  1  6  0  0  0
 37 38  1  0  0  0  0
 37 40  1  0  0  0  0
 38 39  1  0  0  0  0
M  END
>  <CHROM.1>
73.23593921,174.97831690,-85.36086406,-124.28944545,131.35001430,-163.72557552
-153.80420725,-88.33441284,-55.18165334,-53.49817253,1.24536431,-9.19633144
17.60864627,-3.10621292,0.24896553,1.20076049

>  <Name>
2g5q_lig

>  <RI>
9.52566e+06

>  <Rbt.Current_Directory>
/home/itssahil/PROJECTS/Mol_Feturizer/New_Systems/rnas/2g5q

>  <Rbt.Executable>
rbdock ($Id: //depot/dev/client3/rdock/2013.1/src/exe/rbdock.cxx#4 $)

>  <Rbt.Library>
libRbt.so (2013.1, Build901 2013/11/27)

>  <Rbt.Parameter_File>
/export/apps/rDock/src/rDock_2013.1_src/data/scripts/dock_solv.prm

>  <Rbt.Receptor>
prm/pocket_docking_4.prm

>  <SCORE>
-2.71488

>  <SCORE.INTER>
-6.27517

>  <SCORE.INTER.CONST>
1

>  <SCORE.INTER.POLAR>
0

>  <SCORE.INTER.ROT>
10

>  <SCORE.INTER.SOLV>
15.5486

>  <SCORE.INTER.VDW>
-19.633

>  <SCORE.INTER.norm>
-0.156879

>  <SCORE.INTRA>
3.56029

>  <SCORE.INTRA.DIHEDRAL>
-2.37332

>  <SCORE.INTRA.DIHEDRAL.0>
22.5778

>  <SCORE.INTRA.POLAR>
0

>  <SCORE.INTRA.POLAR.0>
0

>  <SCORE.INTRA.REPUL>
0.0405575

>  <SCORE.INTRA.REPUL.0>
0

>  <SCORE.INTRA.SOLV>
10.5426

>  <SCORE.INTRA.SOLV.lig_0>
-102.332

>  <SCORE.INTRA.VDW>
-0.72712

>  <SCORE.INTRA.VDW.0>
-5.08747

>  <SCORE.INTRA.norm>
0.0890072

>  <SCORE.RESTR>
0

>  <SCORE.RESTR.CAVITY>
0

>  <SCORE.RESTR.norm>
0

>  <SCORE.SYSTEM>
0

>  <SCORE.SYSTEM.CONST>
0

>  <SCORE.SYSTEM.DIHEDRAL>
0

>  <SCORE.SYSTEM.SOLV>
0

>  <SCORE.SYSTEM.norm>
0

>  <SCORE.heavy>
40

>  <SCORE.norm>
-0.067872

>  <RMSD>
7.640

$$$$
2g5q_lig
 OpenBabel11021811433D
libRbt.so/2013.1/901 2013/11/27
 40 42  0  0  0  0  0  0  0  0999 V2000
    3.3048   -9.5392   12.2928 C   0  0  2  0  0  0  0  0  0  0  0  0
    3.3720  -10.5698   13.2535 O   0  0  0  0  0  0  0  0  0  0  0  0
    3.8856  -10.0677   10.9481 C   0  0  1  0  0  0  0  0  0  0  0  0
    5.4148  -10.3591   11.0493 C   0  0  2  0  0  0  0  0  0  0  0  0
    6.1245   -9.0371   11.4411 C   0  0  2  0  0  0  0  0  0  0  0  0
    7.5417   -9.2591   11.5222 O   0  0  0  0  0  0  0  0  0  0  0  0
    5.5424   -8.5547   12.8313 C   0  0  2  0  0  0  0  0  0  0  0  0
    4.0711   -8.3397   12.7217 O   0  0  0  0  0  0  0  0  0  0  0  0
    6.1637   -7.2466   13.3093 C   0  0  0  0  0  0  0  0  0  0  0  0
    5.5731   -6.7847   14.6053 N   0  0  0  0  0  0  0  0  0  0  0  0
    1.0331   -8.9155   16.5504 C   0  0  2  0  0  0  0  0  0  0  0  0
    0.3267   -8.8009   17.8207 N   0  0  0  0  0  0  0  0  0  0  0  0
    0.3970  -10.0725   15.6714 C   0  0  0  0  0  0  0  0  0  0  0  0
    1.1547  -10.1954   14.2911 C   0  0  2  0  0  0  0  0  0  0  0  0
    0.5416  -11.2758   13.4721 N   0  0  0  0  0  0  0  0  0  0  0  0
    2.6883  -10.4724   14.5543 C   0  0  2  0  0  0  0  0  0  0  0  0
    3.2846   -9.3035   15.4346 C   0  0  2  0  0  0  0  0  0  0  0  0
    4.6716   -9.5597   15.6769 O   0  0  0  0  0  0  0  0  0  0  0  0
    2.5249   -9.2085   16.8126 C   0  0  1  0  0  0  0  0  0  0  0  0
    3.0678   -8.1233   17.6162 O   0  0  0  0  0  0  0  0  0  0  0  0
    4.4273   -7.9925   17.9521 C   0  0  2  0  0  0  0  0  0  0  0  0
    4.7773   -9.1470   18.9510 C   0  0  2  0  0  0  0  0  0  0  0  0
    4.5415  -10.3759   18.3421 O   0  0  0  0  0  0  0  0  0  0  0  0
    3.9531   -9.0129   20.2871 C   0  0  1  0  0  0  0  0  0  0  0  0
    4.2848  -10.1121   21.2526 N   0  0  0  0  0  0  0  0  0  0  0  0
    4.2617   -7.5985   20.9208 C   0  0  2  0  0  0  0  0  0  0  0  0
    3.5451   -7.4207   22.1444 O   0  0  0  0  0  0  0  0  0  0  0  0
    3.8897   -6.4919   19.8768 C   0  0  2  0  0  0  0  0  0  0  0  0
    4.6492   -6.6844   18.5939 O   0  0  0  0  0  0  0  0  0  0  0  0
    4.1852   -5.1149   20.3966 C   0  0  0  0  0  0  0  0  0  0  0  0
    3.2796   -4.7496   21.4507 O   0  0  0  0  0  0  0  0  0  0  0  0
    3.1416  -11.2757   10.5667 O   0  0  0  0  0  0  0  0  0  0  0  0
    5.8768  -10.8097    9.8324 O   0  0  0  0  0  0  0  0  0  0  0  0
   -3.9475   -7.2106   18.3756 N   0  0  0  0  0  0  0  0  0  0  0  0
    0.4002   -7.7157   18.6829 C   0  0  0  0  0  0  0  0  0  0  0  0
    1.0842   -6.7202   18.4721 O   0  0  0  0  0  0  0  0  0  0  0  0
   -0.4645   -7.9090   19.9499 C   0  0  1  0  0  0  0  0  0  0  0  0
   -1.9457   -8.0829   19.5573 C   0  0  0  0  0  0  0  0  0  0  0  0
   -2.5555   -6.9440   18.7319 C   0  0  0  0  0  0  0  0  0  0  0  0
    0.0151   -9.0614   20.6788 O   0  0  0  0  0  0  0  0  0  0  0  0
  1  2  1  1  0  0  0
  1  3  1  0  0  0  0
  1  8  1  0  0  0  0
  3  4  1  0  0  0  0
  3 32  1  1  0  0  0
  4  5  1  0  0  0  0
  4 33  1  6  0  0  0
  5  6  1  1  0  0  0
  5  7  1  0  0  0  0
  7  8  1  0  0  0  0
  7  9  1  6  0  0  0
  9 10  1  0  0  0  0
 11 12  1  1  0  0  0
 11 13  1  0  0  0  0
 11 19  1  0  0  0  0
 12 35  1  0  0  0  0
 13 14  1  0  0  0  0
 14 15  1  6  0  0  0
 14 16  1  0  0  0  0
 16  2  1  6  0  0  0
 16 17  1  0  0  0  0
 17 18  1  1  0  0  0
 17 19  1  0  0  0  0
 19 20  1  1  0  0  0
 21 20  1  1  0  0  0
 21 22  1  0  0  0  0
 21 29  1  0  0  0  0
 22 23  1  6  0  0  0
 22 24  1  0  0  0  0
 24 25  1  1  0  0  0
 24 26  1  0  0  0  0
 26 27  1  1  0  0  0
 26 28  1  0  0  0  0
 28 29  1  0  0  0  0
 28 30  1  1  0  0  0
 30 31  1  0  0  0  0
 34 39  1  0  0  0  0
 35 36  2  0  0  0  0
 37 35  1  6  0  0  0
 37 38  1  0  0  0  0
 37 40  1  0  0  0  0
 38 39  1  0  0  0  0
M  END
>  <CHROM.1>
-168.90789339,178.32791024,-163.88690993,55.53975466,-174.26692891,-69.02333028
-70.12510779,-60.47169768,-56.98794347,178.43467233,2.98259044,-8.64826365
16.42031687,1.19446898,-0.14666702,-1.90608260

>  <Name>
2g5q_lig

>  <RI>
224

>  <Rbt.Current_Directory>
/home/itssahil/PROJECTS/Mol_Feturizer/New_Systems/rnas/2g5q

>  <Rbt.Executable>
rbdock ($Id: //depot/dev/client3/rdock/2013.1/src/exe/rbdock.cxx#4 $)

>  <Rbt.Library>
libRbt.so (2013.1, Build901 2013/11/27)

>  <Rbt.Parameter_File>
/export/apps/rDock/src/rDock_2013.1_src/data/scripts/dock_solv.prm

>  <Rbt.Receptor>
prm/pocket_docking_8.prm

>  <SCORE>
-31.0668

>  <SCORE.INTER>
-23.0018

>  <SCORE.INTER.CONST>
1

>  <SCORE.INTER.POLAR>
-2.51175

>  <SCORE.INTER.ROT>
10

>  <SCORE.INTER.SOLV>
20.6921

>  <SCORE.INTER.VDW>
-24.126

>  <SCORE.INTER.norm>
-0.575044

>  <SCORE.INTRA>
-8.06503

>  <SCORE.INTRA.DIHEDRAL>
-19.9132

>  <SCORE.INTRA.DIHEDRAL.0>
22.5778

>  <SCORE.INTRA.POLAR>
0

>  <SCORE.INTRA.POLAR.0>
0

>  <SCORE.INTRA.REPUL>
0.00536337

>  <SCORE.INTRA.REPUL.0>
0

>  <SCORE.INTRA.SOLV>
4.27294

>  <SCORE.INTRA.SOLV.lig_0>
-102.332

>  <SCORE.INTRA.VDW>
-0.271724

>  <SCORE.INTRA.VDW.0>
-5.08747

>  <SCORE.INTRA.norm>
-0.201626

>  <SCORE.RESTR>
0

>  <SCORE.RESTR.CAVITY>
0

>  <SCORE.RESTR.norm>
0

>  <SCORE.SYSTEM>
0

>  <SCORE.SYSTEM.CONST>
0

>  <SCORE.SYSTEM.DIHEDRAL>
0

>  <SCORE.SYSTEM.SOLV>
0

>  <SCORE.SYSTEM.norm>
0

>  <SCORE.heavy>
40

>  <SCORE.norm>
-0.77667

>  <RMSD>
7.651

$$$$
2g5q_lig
 OpenBabel11021811433D
libRbt.so/2013.1/901 2013/11/27
 40 42  0  0  0  0  0  0  0  0999 V2000
   -4.6269   -9.7139   16.7901 C   0  0  2  0  0  0  0  0  0  0  0  0
   -3.5037   -8.8607   16.7854 O   0  0  0  0  0  0  0  0  0  0  0  0
   -5.9002   -8.8691   16.4904 C   0  0  1  0  0  0  0  0  0  0  0  0
   -6.2145   -7.8625   17.6400 C   0  0  2  0  0  0  0  0  0  0  0  0
   -6.4240   -8.6794   18.9414 C   0  0  2  0  0  0  0  0  0  0  0  0
   -6.7394   -7.7870   20.0224 O   0  0  0  0  0  0  0  0  0  0  0  0
   -5.0968   -9.4883   19.2384 C   0  0  2  0  0  0  0  0  0  0  0  0
   -4.7886  -10.3995   18.0993 O   0  0  0  0  0  0  0  0  0  0  0  0
   -5.1962  -10.3436   20.4971 C   0  0  0  0  0  0  0  0  0  0  0  0
   -3.8866  -10.9776   20.8503 N   0  0  0  0  0  0  0  0  0  0  0  0
    0.8108   -9.3239   16.2874 C   0  0  2  0  0  0  0  0  0  0  0  0
    2.1796   -9.7908   16.4722 N   0  0  0  0  0  0  0  0  0  0  0  0
    0.2644   -8.6812   17.6307 C   0  0  0  0  0  0  0  0  0  0  0  0
   -1.2159   -8.1674   17.4329 C   0  0  2  0  0  0  0  0  0  0  0  0
   -1.7125   -7.5572   18.6958 N   0  0  0  0  0  0  0  0  0  0  0  0
   -2.1344   -9.3692   16.9744 C   0  0  2  0  0  0  0  0  0  0  0  0
   -1.5570   -9.9850   15.6386 C   0  0  2  0  0  0  0  0  0  0  0  0
   -2.3865  -11.0768   15.2288 O   0  0  0  0  0  0  0  0  0  0  0  0
   -0.0858  -10.5051   15.8622 C   0  0  1  0  0  0  0  0  0  0  0  0
    0.4479  -11.0605   14.6273 O   0  0  0  0  0  0  0  0  0  0  0  0
   -0.0718  -12.1975   13.9828 C   0  0  2  0  0  0  0  0  0  0  0  0
    0.0371  -13.3961   14.9851 C   0  0  2  0  0  0  0  0  0  0  0  0
   -0.6946  -13.1096   16.1336 O   0  0  0  0  0  0  0  0  0  0  0  0
    1.5406  -13.7081   15.3381 C   0  0  1  0  0  0  0  0  0  0  0  0
    1.6557  -14.8581   16.2944 N   0  0  0  0  0  0  0  0  0  0  0  0
    2.3121  -14.0176   13.9940 C   0  0  2  0  0  0  0  0  0  0  0  0
    3.6855  -14.3167   14.2517 O   0  0  0  0  0  0  0  0  0  0  0  0
    2.1668  -12.7844   13.0397 C   0  0  2  0  0  0  0  0  0  0  0  0
    0.7197  -12.4780   12.7716 O   0  0  0  0  0  0  0  0  0  0  0  0
    2.8505  -13.0161   11.7234 C   0  0  0  0  0  0  0  0  0  0  0  0
    2.3227  -14.1755   11.0583 O   0  0  0  0  0  0  0  0  0  0  0  0
   -5.7000   -8.1686   15.2147 O   0  0  0  0  0  0  0  0  0  0  0  0
   -7.3540   -7.1536   17.3294 O   0  0  0  0  0  0  0  0  0  0  0  0
    6.1203  -10.1338   13.4040 N   0  0  0  0  0  0  0  0  0  0  0  0
    3.2375   -9.5305   15.6124 C   0  0  0  0  0  0  0  0  0  0  0  0
    3.1352   -8.8747   14.5815 O   0  0  0  0  0  0  0  0  0  0  0  0
    4.5590  -10.1751   16.0906 C   0  0  1  0  0  0  0  0  0  0  0  0
    4.9192  -11.3732   15.1889 C   0  0  0  0  0  0  0  0  0  0  0  0
    5.0350  -11.0698   13.6907 C   0  0  0  0  0  0  0  0  0  0  0  0
    5.6064   -9.1792   16.0686 O   0  0  0  0  0  0  0  0  0  0  0  0
  1  2  1  1  0  0  0
  1  3  1  0  0  0  0
  1  8  1  0  0  0  0
  3  4  1  0  0  0  0
  3 32  1  6  0  0  0
  4  5  1  0  0  0  0
  4 33  1  6  0  0  0
  5  6  1  1  0  0  0
  5  7  1  0  0  0  0
  7  8  1  0  0  0  0
  7  9  1  1  0  0  0
  9 10  1  0  0  0  0
 11 12  1  1  0  0  0
 11 13  1  0  0  0  0
 11 19  1  0  0  0  0
 12 35  1  0  0  0  0
 13 14  1  0  0  0  0
 14 15  1  1  0  0  0
 14 16  1  0  0  0  0
 16  2  1  6  0  0  0
 16 17  1  0  0  0  0
 17 18  1  1  0  0  0
 17 19  1  0  0  0  0
 19 20  1  6  0  0  0
 21 20  1  1  0  0  0
 21 22  1  0  0  0  0
 21 29  1  0  0  0  0
 22 23  1  1  0  0  0
 22 24  1  0  0  0  0
 24 25  1  1  0  0  0
 24 26  1  0  0  0  0
 26 27  1  1  0  0  0
 26 28  1  0  0  0  0
 28 29  1  0  0  0  0
 28 30  1  6  0  0  0
 30 31  1  0  0  0  0
 34 39  1  0  0  0  0
 35 36  2  0  0  0  0
 37 35  1  6  0  0  0
 37 38  1  0  0  0  0
 37 40  1  0  0  0  0
 38 39  1  0  0  0  0
M  END
>  <CHROM.1>
-177.03130817,-173.45172262,-131.88690602,-159.73639405,176.43178450,-60.06485006
58.37799917,107.68049760,56.29203377,63.49896056,-0.56075189,-10.55811798
15.99976480,2.62736633,0.17045066,0.62298291

>  <Name>
2g5q_lig

>  <RI>
9.52566e+06

>  <Rbt.Current_Directory>
/home/itssahil/PROJECTS/Mol_Feturizer/New_Systems/rnas/2g5q

>  <Rbt.Executable>
rbdock ($Id: //depot/dev/client3/rdock/2013.1/src/exe/rbdock.cxx#4 $)

>  <Rbt.Library>
libRbt.so (2013.1, Build901 2013/11/27)

>  <Rbt.Parameter_File>
/export/apps/rDock/src/rDock_2013.1_src/data/scripts/dock_solv.prm

>  <Rbt.Receptor>
prm/pocket_docking_4.prm

>  <SCORE>
-17.5114

>  <SCORE.INTER>
-10.324

>  <SCORE.INTER.CONST>
1

>  <SCORE.INTER.POLAR>
-1.72548

>  <SCORE.INTER.ROT>
10

>  <SCORE.INTER.SOLV>
11.3115

>  <SCORE.INTER.VDW>
-15.1682

>  <SCORE.INTER.norm>
-0.258101

>  <SCORE.INTRA>
-7.21252

>  <SCORE.INTRA.DIHEDRAL>
-16.9724

>  <SCORE.INTRA.DIHEDRAL.0>
22.5778

>  <SCORE.INTRA.POLAR>
0

>  <SCORE.INTRA.POLAR.0>
0

>  <SCORE.INTRA.REPUL>
0

>  <SCORE.INTRA.REPUL.0>
0

>  <SCORE.INTRA.SOLV>
3.27032

>  <SCORE.INTRA.SOLV.lig_0>
-102.332

>  <SCORE.INTRA.VDW>
-0.361498

>  <SCORE.INTRA.VDW.0>
-5.08747

>  <SCORE.INTRA.norm>
-0.180313

>  <SCORE.RESTR>
0.0251017

>  <SCORE.RESTR.CAVITY>
0.0251017

>  <SCORE.RESTR.norm>
0.000627541

>  <SCORE.SYSTEM>
0

>  <SCORE.SYSTEM.CONST>
0

>  <SCORE.SYSTEM.DIHEDRAL>
0

>  <SCORE.SYSTEM.SOLV>
0

>  <SCORE.SYSTEM.norm>
0

>  <SCORE.heavy>
40

>  <SCORE.norm>
-0.437786

>  <RMSD>
7.655

$$$$
2g5q_lig
 OpenBabel11021811433D
libRbt.so/2013.1/901 2013/11/27
 40 42  0  0  0  0  0  0  0  0999 V2000
   -4.1702   -9.6470   17.0780 C   0  0  2  0  0  0  0  0  0  0  0  0
   -3.0923   -8.7467   16.9466 O   0  0  0  0  0  0  0  0  0  0  0  0
   -5.4815   -8.9265   16.6467 C   0  0  1  0  0  0  0  0  0  0  0  0
   -5.8611   -7.7733   17.6264 C   0  0  2  0  0  0  0  0  0  0  0  0
   -6.0440   -8.3907   19.0372 C   0  0  2  0  0  0  0  0  0  0  0  0
   -6.4179   -7.3608   19.9667 O   0  0  0  0  0  0  0  0  0  0  0  0
   -4.6806   -9.0734   19.4605 C   0  0  2  0  0  0  0  0  0  0  0  0
   -4.3122  -10.1310   18.4765 O   0  0  0  0  0  0  0  0  0  0  0  0
   -4.7510   -9.7292   20.8355 C   0  0  0  0  0  0  0  0  0  0  0  0
   -5.7860  -10.8098   20.8901 N   0  0  0  0  0  0  0  0  0  0  0  0
    1.2679   -8.9274   16.7664 C   0  0  2  0  0  0  0  0  0  0  0  0
    2.6495   -9.2718   17.0801 N   0  0  0  0  0  0  0  0  0  0  0  0
    0.5866   -8.2094   18.0058 C   0  0  0  0  0  0  0  0  0  0  0  0
   -0.9084   -7.8281   17.6677 C   0  0  2  0  0  0  0  0  0  0  0  0
   -1.5323   -7.1458   18.8336 N   0  0  0  0  0  0  0  0  0  0  0  0
   -1.7077   -9.1318   17.2684 C   0  0  2  0  0  0  0  0  0  0  0  0
   -0.9979   -9.8202   16.0358 C   0  0  2  0  0  0  0  0  0  0  0  0
   -1.7197  -11.0036   15.6801 O   0  0  0  0  0  0  0  0  0  0  0  0
    0.4866  -10.2061   16.3995 C   0  0  1  0  0  0  0  0  0  0  0  0
    1.1418  -10.8286   15.2587 O   0  0  0  0  0  0  0  0  0  0  0  0
    1.0282  -10.3687   13.9344 C   0  0  2  0  0  0  0  0  0  0  0  0
    0.8622  -11.6249   13.0138 C   0  0  2  0  0  0  0  0  0  0  0  0
   -0.2805  -12.3263   13.3860 O   0  0  0  0  0  0  0  0  0  0  0  0
    2.1365  -12.5495   13.0774 C   0  0  1  0  0  0  0  0  0  0  0  0
    1.9890  -13.7536   12.1950 N   0  0  0  0  0  0  0  0  0  0  0  0
    3.3935  -11.6923   12.6501 C   0  0  2  0  0  0  0  0  0  0  0  0
    4.5838  -12.4824   12.6813 O   0  0  0  0  0  0  0  0  0  0  0  0
    3.5042  -10.4574   13.6069 C   0  0  2  0  0  0  0  0  0  0  0  0
    2.2495   -9.6303   13.5665 O   0  0  0  0  0  0  0  0  0  0  0  0
    4.6621   -9.5739   13.2432 C   0  0  0  0  0  0  0  0  0  0  0  0
    4.3890   -8.1991   13.5596 O   0  0  0  0  0  0  0  0  0  0  0  0
   -5.3023   -8.4205   15.2792 O   0  0  0  0  0  0  0  0  0  0  0  0
   -7.0317   -7.1816   17.2058 O   0  0  0  0  0  0  0  0  0  0  0  0
    7.5289  -10.4908   16.6608 N   0  0  0  0  0  0  0  0  0  0  0  0
    3.6437   -8.3648   17.4196 C   0  0  0  0  0  0  0  0  0  0  0  0
    3.4695   -7.1530   17.4872 O   0  0  0  0  0  0  0  0  0  0  0  0
    5.0028   -9.0516   17.6870 C   0  0  1  0  0  0  0  0  0  0  0  0
    6.0800   -8.4763   16.7452 C   0  0  0  0  0  0  0  0  0  0  0  0
    7.4908   -9.0520   16.9144 C   0  0  0  0  0  0  0  0  0  0  0  0
    5.3686   -8.8541   19.0714 O   0  0  0  0  0  0  0  0  0  0  0  0
  1  2  1  1  0  0  0
  1  3  1  0  0  0  0
  1  8  1  0  0  0  0
  3  4  1  0  0  0  0
  3 32  1  6  0  0  0
  4  5  1  0  0  0  0
  4 33  1  6  0  0  0
  5  6  1  1  0  0  0
  5  7  1  0  0  0  0
  7  8  1  0  0  0  0
  7  9  1  1  0  0  0
  9 10  1  0  0  0  0
 11 12  1  1  0  0  0
 11 13  1  0  0  0  0
 11 19  1  0  0  0  0
 12 35  1  0  0  0  0
 13 14  1  0  0  0  0
 14 15  1  1  0  0  0
 14 16  1  0  0  0  0
 16  2  1  6  0  0  0
 16 17  1  0  0  0  0
 17 18  1  1  0  0  0
 17 19  1  0  0  0  0
 19 20  1  6  0  0  0
 21 20  1  1  0  0  0
 21 22  1  0  0  0  0
 21 29  1  0  0  0  0
 22 23  1  1  0  0  0
 22 24  1  0  0  0  0
 24 25  1  6  0  0  0
 24 26  1  0  0  0  0
 26 27  1  1  0  0  0
 26 28  1  0  0  0  0
 28 29  1  0  0  0  0
 28 30  1  6  0  0  0
 30 31  1  0  0  0  0
 34 39  1  0  0  0  0
 35 36  2  0  0  0  0
 37 35  1  6  0  0  0
 37 38  1  0  0  0  0
 37 40  1  0  0  0  0
 38 39  1  0  0  0  0
M  END
>  <CHROM.1>
-179.51140632,60.59695634,-60.36995340,-153.88967834,-76.60366986,-138.12838610
148.89436522,122.29647838,179.06862423,60.88560169,0.06916708,-9.55936585
16.37188966,2.78094323,0.05646321,1.02345268

>  <Name>
2g5q_lig

>  <RI>
0

>  <Rbt.Current_Directory>
/home/itssahil/PROJECTS/Mol_Feturizer/New_Systems/rnas/2g5q

>  <Rbt.Executable>
rbdock ($Id: //depot/dev/client3/rdock/2013.1/src/exe/rbdock.cxx#4 $)

>  <Rbt.Library>
libRbt.so (2013.1, Build901 2013/11/27)

>  <Rbt.Parameter_File>
/export/apps/rDock/src/rDock_2013.1_src/data/scripts/dock_solv.prm

>  <Rbt.Receptor>
prm/pocket_docking_5.prm

>  <SCORE>
-20.5648

>  <SCORE.INTER>
-17.9617

>  <SCORE.INTER.CONST>
1

>  <SCORE.INTER.POLAR>
-2.61856

>  <SCORE.INTER.ROT>
10

>  <SCORE.INTER.SOLV>
16.1154

>  <SCORE.INTER.VDW>
-18.8844

>  <SCORE.INTER.norm>
-0.449042

>  <SCORE.INTRA>
-2.60306

>  <SCORE.INTRA.DIHEDRAL>
-7.50847

>  <SCORE.INTRA.DIHEDRAL.0>
22.5778

>  <SCORE.INTRA.POLAR>
0

>  <SCORE.INTRA.POLAR.0>
0

>  <SCORE.INTRA.REPUL>
0

>  <SCORE.INTRA.REPUL.0>
0

>  <SCORE.INTRA.SOLV>
2.37491

>  <SCORE.INTRA.SOLV.lig_0>
-102.332

>  <SCORE.INTRA.VDW>
-0.0362752

>  <SCORE.INTRA.VDW.0>
-5.08747

>  <SCORE.INTRA.norm>
-0.0650764

>  <SCORE.RESTR>
0

>  <SCORE.RESTR.CAVITY>
0

>  <SCORE.RESTR.norm>
0

>  <SCORE.SYSTEM>
0

>  <SCORE.SYSTEM.CONST>
0

>  <SCORE.SYSTEM.DIHEDRAL>
0

>  <SCORE.SYSTEM.SOLV>
0

>  <SCORE.SYSTEM.norm>
0

>  <SCORE.heavy>
40

>  <SCORE.norm>
-0.514119

>  <RMSD>
7.673

$$$$
2g5q_lig
 OpenBabel11021811433D
libRbt.so/2013.1/901 2013/11/27
 40 42  0  0  0  0  0  0  0  0999 V2000
   -3.8321   -8.9259   17.6314 C   0  0  2  0  0  0  0  0  0  0  0  0
   -2.7651   -8.1410   18.1162 O   0  0  0  0  0  0  0  0  0  0  0  0
   -5.1714   -8.1857   17.9198 C   0  0  1  0  0  0  0  0  0  0  0  0
   -5.4665   -8.0916   19.4488 C   0  0  2  0  0  0  0  0  0  0  0  0
   -5.5372   -9.5364   20.0079 C   0  0  2  0  0  0  0  0  0  0  0  0
   -5.8313   -9.4929   21.4136 O   0  0  0  0  0  0  0  0  0  0  0  0
   -4.1466  -10.2415   19.7376 C   0  0  2  0  0  0  0  0  0  0  0  0
   -3.8626  -10.2660   18.2742 O   0  0  0  0  0  0  0  0  0  0  0  0
   -4.1082  -11.6817   20.2375 C   0  0  0  0  0  0  0  0  0  0  0  0
   -4.2226  -11.7622   21.7282 N   0  0  0  0  0  0  0  0  0  0  0  0
    1.5757   -8.4766   17.7677 C   0  0  2  0  0  0  0  0  0  0  0  0
    2.9385   -8.9726   17.9178 N   0  0  0  0  0  0  0  0  0  0  0  0
    0.9489   -8.1561   19.1890 C   0  0  0  0  0  0  0  0  0  0  0  0
   -0.5252   -7.6116   19.0306 C   0  0  2  0  0  0  0  0  0  0  0  0
   -1.0975   -7.3044   20.3693 N   0  0  0  0  0  0  0  0  0  0  0  0
   -1.4015   -8.6784   18.2611 C   0  0  2  0  0  0  0  0  0  0  0  0
   -0.7446   -8.9744   16.8548 C   0  0  2  0  0  0  0  0  0  0  0  0
   -1.5361   -9.9451   16.1626 O   0  0  0  0  0  0  0  0  0  0  0  0
    0.7191   -9.5309   17.0364 C   0  0  1  0  0  0  0  0  0  0  0  0
    1.3262   -9.7911   15.7395 O   0  0  0  0  0  0  0  0  0  0  0  0
    2.5683  -10.4265   15.5616 C   0  0  2  0  0  0  0  0  0  0  0  0
    2.8312  -10.5205   14.0205 C   0  0  2  0  0  0  0  0  0  0  0  0
    2.8554   -9.2409   13.4741 O   0  0  0  0  0  0  0  0  0  0  0  0
    1.7453  -11.4154   13.3115 C   0  0  1  0  0  0  0  0  0  0  0  0
    1.9912  -11.5153   11.8350 N   0  0  0  0  0  0  0  0  0  0  0  0
    1.7671  -12.8465   13.9813 C   0  0  2  0  0  0  0  0  0  0  0  0
    0.8041  -13.7091   13.3726 O   0  0  0  0  0  0  0  0  0  0  0  0
    1.4971  -12.6838   15.5153 C   0  0  2  0  0  0  0  0  0  0  0  0
    2.5155  -11.7773   16.1486 O   0  0  0  0  0  0  0  0  0  0  0  0
    1.5332  -14.0037   16.2296 C   0  0  0  0  0  0  0  0  0  0  0  0
    1.2310  -13.8498   17.6260 O   0  0  0  0  0  0  0  0  0  0  0  0
   -5.1012   -6.8501   17.3121 O   0  0  0  0  0  0  0  0  0  0  0  0
   -6.6651   -7.4417   19.6448 O   0  0  0  0  0  0  0  0  0  0  0  0
    6.9005  -11.5837   18.9791 N   0  0  0  0  0  0  0  0  0  0  0  0
    4.0766   -8.1807   17.9806 C   0  0  0  0  0  0  0  0  0  0  0  0
    4.0628   -6.9569   17.9082 O   0  0  0  0  0  0  0  0  0  0  0  0
    5.3687   -9.0157   18.1352 C   0  0  1  0  0  0  0  0  0  0  0  0
    5.4067   -9.6777   19.5274 C   0  0  0  0  0  0  0  0  0  0  0  0
    6.6911  -10.4425   19.8678 C   0  0  0  0  0  0  0  0  0  0  0  0
    5.4166  -10.0114   17.0885 O   0  0  0  0  0  0  0  0  0  0  0  0
  1  2  1  1  0  0  0
  1  3  1  0  0  0  0
  1  8  1  0  0  0  0
  3  4  1  0  0  0  0
  3 32  1  1  0  0  0
  4  5  1  0  0  0  0
  4 33  1  6  0  0  0
  5  6  1  1  0  0  0
  5  7  1  0  0  0  0
  7  8  1  0  0  0  0
  7  9  1  6  0  0  0
  9 10  1  0  0  0  0
 11 12  1  1  0  0  0
 11 13  1  0  0  0  0
 11 19  1  0  0  0  0
 12 35  1  0  0  0  0
 13 14  1  0  0  0  0
 14 15  1  1  0  0  0
 14 16  1  0  0  0  0
 16  2  1  6  0  0  0
 16 17  1  0  0  0  0
 17 18  1  1  0  0  0
 17 19  1  0  0  0  0
 19 20  1  6  0  0  0
 21 20  1  6  0  0  0
 21 22  1  0  0  0  0
 21 29  1  0  0  0  0
 22 23  1  6  0  0  0
 22 24  1  0  0  0  0
 24 25  1  6  0  0  0
 24 26  1  0  0  0  0
 26 27  1  6  0  0  0
 26 28  1  0  0  0  0
 28 29  1  0  0  0  0
 28 30  1  1  0  0  0
 30 31  1  0  0  0  0
 34 39  1  0  0  0  0
 35 36  2  0  0  0  0
 37 35  1  1  0  0  0
 37 38  1  0  0  0  0
 37 40  1  0  0  0  0
 38 39  1  0  0  0  0
M  END
>  <CHROM.1>
166.62209881,-65.20633861,-87.65093450,-171.36493601,67.74949991,179.24516342
-177.66325751,-68.75433721,-174.97811224,-63.43900023,0.09198221,-9.90543731
17.49928372,2.75599576,0.01851230,1.00071703

>  <Name>
2g5q_lig

>  <RI>
0

>  <Rbt.Current_Directory>
/home/itssahil/PROJECTS/Mol_Feturizer/New_Systems/rnas/2g5q

>  <Rbt.Executable>
rbdock ($Id: //depot/dev/client3/rdock/2013.1/src/exe/rbdock.cxx#4 $)

>  <Rbt.Library>
libRbt.so (2013.1, Build901 2013/11/27)

>  <Rbt.Parameter_File>
/export/apps/rDock/src/rDock_2013.1_src/data/scripts/dock_solv.prm

>  <Rbt.Receptor>
prm/pocket_docking_5.prm

>  <SCORE>
-15.5443

>  <SCORE.INTER>
-6.81548

>  <SCORE.INTER.CONST>
1

>  <SCORE.INTER.POLAR>
-1.41231

>  <SCORE.INTER.ROT>
10

>  <SCORE.INTER.SOLV>
13.1104

>  <SCORE.INTER.VDW>
-14.4728

>  <SCORE.INTER.norm>
-0.170387

>  <SCORE.INTRA>
-8.72881

>  <SCORE.INTRA.DIHEDRAL>
-19.4037

>  <SCORE.INTRA.DIHEDRAL.0>
22.5778

>  <SCORE.INTRA.POLAR>
0

>  <SCORE.INTRA.POLAR.0>
0

>  <SCORE.INTRA.REPUL>
0.00300592

>  <SCORE.INTRA.REPUL.0>
0

>  <SCORE.INTRA.SOLV>
1.52721

>  <SCORE.INTRA.SOLV.lig_0>
-102.332

>  <SCORE.INTRA.VDW>
0.194412

>  <SCORE.INTRA.VDW.0>
-5.08747

>  <SCORE.INTRA.norm>
-0.21822

>  <SCORE.RESTR>
0

>  <SCORE.RESTR.CAVITY>
0

>  <SCORE.RESTR.norm>
0

>  <SCORE.SYSTEM>
0

>  <SCORE.SYSTEM.CONST>
0

>  <SCORE.SYSTEM.DIHEDRAL>
0

>  <SCORE.SYSTEM.SOLV>
0

>  <SCORE.SYSTEM.norm>
0

>  <SCORE.heavy>
40

>  <SCORE.norm>
-0.388607

>  <RMSD>
7.680

$$$$
2g5q_lig
 OpenBabel11021811433D
libRbt.so/2013.1/901 2013/11/27
 40 42  0  0  0  0  0  0  0  0999 V2000
   -3.9216  -10.3827   16.9864 C   0  0  2  0  0  0  0  0  0  0  0  0
   -3.1917   -9.1854   17.1385 O   0  0  0  0  0  0  0  0  0  0  0  0
   -5.3991  -10.0300   16.6438 C   0  0  1  0  0  0  0  0  0  0  0  0
   -6.1197   -9.3240   17.8338 C   0  0  2  0  0  0  0  0  0  0  0  0
   -6.0807  -10.2859   19.0496 C   0  0  2  0  0  0  0  0  0  0  0  0
   -6.7569   -9.6795   20.1629 O   0  0  0  0  0  0  0  0  0  0  0  0
   -4.5662  -10.5857   19.3967 C   0  0  2  0  0  0  0  0  0  0  0  0
   -3.8869  -11.2064   18.2236 O   0  0  0  0  0  0  0  0  0  0  0  0
   -4.4088  -11.5391   20.5764 C   0  0  0  0  0  0  0  0  0  0  0  0
   -2.9704  -11.8166   20.8863 N   0  0  0  0  0  0  0  0  0  0  0  0
    1.0922   -8.3579   16.9368 C   0  0  2  0  0  0  0  0  0  0  0  0
    2.5079   -8.3154   17.2830 N   0  0  0  0  0  0  0  0  0  0  0  0
    0.2310   -7.6426   18.0604 C   0  0  0  0  0  0  0  0  0  0  0  0
   -1.3029   -7.6799   17.6858 C   0  0  2  0  0  0  0  0  0  0  0  0
   -2.0981   -6.9964   18.7415 N   0  0  0  0  0  0  0  0  0  0  0  0
   -1.7637   -9.1802   17.4989 C   0  0  2  0  0  0  0  0  0  0  0  0
   -0.8820   -9.8593   16.3772 C   0  0  2  0  0  0  0  0  0  0  0  0
   -1.2967  -11.2192   16.2142 O   0  0  0  0  0  0  0  0  0  0  0  0
    0.6422   -9.8250   16.7780 C   0  0  1  0  0  0  0  0  0  0  0  0
    1.4531  -10.4400   15.7376 O   0  0  0  0  0  0  0  0  0  0  0  0
    1.4360  -10.0478   14.3870 C   0  0  2  0  0  0  0  0  0  0  0  0
    1.6155  -11.3401   13.5205 C   0  0  2  0  0  0  0  0  0  0  0  0
    0.5745  -12.2251   13.7845 O   0  0  0  0  0  0  0  0  0  0  0  0
    3.0125  -12.0169   13.7906 C   0  0  1  0  0  0  0  0  0  0  0  0
    3.1959  -13.2536   12.9616 N   0  0  0  0  0  0  0  0  0  0  0  0
    4.1448  -10.9598   13.4780 C   0  0  2  0  0  0  0  0  0  0  0  0
    5.4406  -11.5205   13.6985 O   0  0  0  0  0  0  0  0  0  0  0  0
    3.9103   -9.6973   14.3746 C   0  0  2  0  0  0  0  0  0  0  0  0
    2.5465   -9.1121   14.1350 O   0  0  0  0  0  0  0  0  0  0  0  0
    4.9330   -8.6304   14.1113 C   0  0  0  0  0  0  0  0  0  0  0  0
    4.5876   -7.4021   14.7723 O   0  0  0  0  0  0  0  0  0  0  0  0
   -5.4052   -9.1819   15.4443 O   0  0  0  0  0  0  0  0  0  0  0  0
   -7.4224   -9.0478   17.4816 O   0  0  0  0  0  0  0  0  0  0  0  0
    7.2832  -10.0615   18.8248 N   0  0  0  0  0  0  0  0  0  0  0  0
    3.0451   -8.6937   18.5055 C   0  0  0  0  0  0  0  0  0  0  0  0
    2.3773   -9.1051   19.4478 O   0  0  0  0  0  0  0  0  0  0  0  0
    4.5809   -8.5222   18.5536 C   0  0  1  0  0  0  0  0  0  0  0  0
    5.2501   -9.4632   17.5314 C   0  0  0  0  0  0  0  0  0  0  0  0
    6.7821   -9.5078   17.5686 C   0  0  0  0  0  0  0  0  0  0  0  0
    4.9117   -7.1422   18.2787 O   0  0  0  0  0  0  0  0  0  0  0  0
  1  2  1  1  0  0  0
  1  3  1  0  0  0  0
  1  8  1  0  0  0  0
  3  4  1  0  0  0  0
  3 32  1  6  0  0  0
  4  5  1  0  0  0  0
  4 33  1  6  0  0  0
  5  6  1  1  0  0  0
  5  7  1  0  0  0  0
  7  8  1  0  0  0  0
  7  9  1  1  0  0  0
  9 10  1  0  0  0  0
 11 12  1  1  0  0  0
 11 13  1  0  0  0  0
 11 19  1  0  0  0  0
 12 35  1  0  0  0  0
 13 14  1  0  0  0  0
 14 15  1  1  0  0  0
 14 16  1  0  0  0  0
 16  2  1  6  0  0  0
 16 17  1  0  0  0  0
 17 18  1  1  0  0  0
 17 19  1  0  0  0  0
 19 20  1  6  0  0  0
 21 20  1  1  0  0  0
 21 22  1  0  0  0  0
 21 29  1  0  0  0  0
 22 23  1  1  0  0  0
 22 24  1  0  0  0  0
 24 25  1  6  0  0  0
 24 26  1  0  0  0  0
 26 27  1  1  0  0  0
 26 28  1  0  0  0  0
 28 29  1  0  0  0  0
 28 30  1  6  0  0  0
 30 31  1  0  0  0  0
 34 39  1  0  0  0  0
 35 36  2  0  0  0  0
 37 35  1  6  0  0  0
 37 38  1  0  0  0  0
 37 40  1  0  0  0  0
 38 39  1  0  0  0  0
M  END
>  <CHROM.1>
178.49722306,179.72216961,50.20608067,-175.89066269,-64.47484187,-144.13437477
170.61764283,-64.01959277,-173.89621044,64.99994966,0.18427045,-9.76089677
16.81134906,2.91163644,0.13141233,1.12769407

>  <Name>
2g5q_lig

>  <RI>
9.52566e+06

>  <Rbt.Current_Directory>
/home/itssahil/PROJECTS/Mol_Feturizer/New_Systems/rnas/2g5q

>  <Rbt.Executable>
rbdock ($Id: //depot/dev/client3/rdock/2013.1/src/exe/rbdock.cxx#4 $)

>  <Rbt.Library>
libRbt.so (2013.1, Build901 2013/11/27)

>  <Rbt.Parameter_File>
/export/apps/rDock/src/rDock_2013.1_src/data/scripts/dock_solv.prm

>  <Rbt.Receptor>
prm/pocket_docking_4.prm

>  <SCORE>
-21.128

>  <SCORE.INTER>
-13.1093

>  <SCORE.INTER.CONST>
1

>  <SCORE.INTER.POLAR>
-3.09497

>  <SCORE.INTER.ROT>
10

>  <SCORE.INTER.SOLV>
14.1257

>  <SCORE.INTER.VDW>
-13.3982

>  <SCORE.INTER.norm>
-0.327732

>  <SCORE.INTRA>
-8.01868

>  <SCORE.INTRA.DIHEDRAL>
-16.261

>  <SCORE.INTRA.DIHEDRAL.0>
22.5778

>  <SCORE.INTRA.POLAR>
0

>  <SCORE.INTRA.POLAR.0>
0

>  <SCORE.INTRA.REPUL>
0

>  <SCORE.INTRA.REPUL.0>
0

>  <SCORE.INTRA.SOLV>
1.19633

>  <SCORE.INTRA.SOLV.lig_0>
-102.332

>  <SCORE.INTRA.VDW>
-0.486359

>  <SCORE.INTRA.VDW.0>
-5.08747

>  <SCORE.INTRA.norm>
-0.200467

>  <SCORE.RESTR>
0

>  <SCORE.RESTR.CAVITY>
0

>  <SCORE.RESTR.norm>
0

>  <SCORE.SYSTEM>
0

>  <SCORE.SYSTEM.CONST>
0

>  <SCORE.SYSTEM.DIHEDRAL>
0

>  <SCORE.SYSTEM.SOLV>
0

>  <SCORE.SYSTEM.norm>
0

>  <SCORE.heavy>
40

>  <SCORE.norm>
-0.528199

>  <RMSD>
7.696

$$$$
2g5q_lig
 OpenBabel11021811433D
libRbt.so/2013.1/901 2013/11/27
 40 42  0  0  0  0  0  0  0  0999 V2000
    5.3518   -4.3421   23.7433 C   0  0  2  0  0  0  0  0  0  0  0  0
    4.4688   -5.3356   23.2716 O   0  0  0  0  0  0  0  0  0  0  0  0
    4.9753   -3.9926   25.2133 C   0  0  1  0  0  0  0  0  0  0  0  0
    3.5802   -3.3011   25.3079 C   0  0  2  0  0  0  0  0  0  0  0  0
    3.6357   -2.0036   24.4603 C   0  0  2  0  0  0  0  0  0  0  0  0
    2.3725   -1.3236   24.5408 O   0  0  0  0  0  0  0  0  0  0  0  0
    3.9754   -2.4008   22.9667 C   0  0  2  0  0  0  0  0  0  0  0  0
    5.2853   -3.1109   22.9127 O   0  0  0  0  0  0  0  0  0  0  0  0
    4.0693   -1.1923   22.0414 C   0  0  0  0  0  0  0  0  0  0  0  0
    2.7655   -0.4640   21.9347 N   0  0  0  0  0  0  0  0  0  0  0  0
    3.8066   -7.8405   19.7552 C   0  0  2  0  0  0  0  0  0  0  0  0
    4.0525   -8.6011   18.5359 N   0  0  0  0  0  0  0  0  0  0  0  0
    4.2030   -6.3195   19.5424 C   0  0  0  0  0  0  0  0  0  0  0  0
    3.9314   -5.4903   20.8589 C   0  0  2  0  0  0  0  0  0  0  0  0
    4.2965   -4.0641   20.6427 N   0  0  0  0  0  0  0  0  0  0  0  0
    4.7496   -6.1187   22.0563 C   0  0  2  0  0  0  0  0  0  0  0  0
    4.3315   -7.6321   22.2343 C   0  0  2  0  0  0  0  0  0  0  0  0
    5.0781   -8.2007   23.3147 O   0  0  0  0  0  0  0  0  0  0  0  0
    4.6251   -8.4440   20.9154 C   0  0  1  0  0  0  0  0  0  0  0  0
    4.2277   -9.8347   21.0780 O   0  0  0  0  0  0  0  0  0  0  0  0
    4.6843  -10.6712   22.1124 C   0  0  2  0  0  0  0  0  0  0  0  0
    4.6003  -12.1469   21.5943 C   0  0  2  0  0  0  0  0  0  0  0  0
    5.3993  -12.2889   20.4639 O   0  0  0  0  0  0  0  0  0  0  0  0
    3.1107  -12.5582   21.2868 C   0  0  1  0  0  0  0  0  0  0  0  0
    3.0193  -13.9722   20.7942 N   0  0  0  0  0  0  0  0  0  0  0  0
    2.2610  -12.3683   22.6056 C   0  0  2  0  0  0  0  0  0  0  0  0
    0.8965  -12.7342   22.3901 O   0  0  0  0  0  0  0  0  0  0  0  0
    2.3847  -10.8774   23.0687 C   0  0  2  0  0  0  0  0  0  0  0  0
    3.8223  -10.5011   23.2957 O   0  0  0  0  0  0  0  0  0  0  0  0
    1.6260  -10.6248   24.3392 C   0  0  0  0  0  0  0  0  0  0  0  0
    0.2164  -10.8359   24.1560 O   0  0  0  0  0  0  0  0  0  0  0  0
    5.0065   -5.2299   26.0047 O   0  0  0  0  0  0  0  0  0  0  0  0
    3.3049   -3.0033   26.6243 O   0  0  0  0  0  0  0  0  0  0  0  0
    3.7114   -8.7186   13.2189 N   0  0  0  0  0  0  0  0  0  0  0  0
    5.2996   -8.8252   17.9696 C   0  0  0  0  0  0  0  0  0  0  0  0
    6.3492   -8.3953   18.4353 O   0  0  0  0  0  0  0  0  0  0  0  0
    5.2171   -9.6646   16.6738 C   0  0  1  0  0  0  0  0  0  0  0  0
    4.5360   -8.8476   15.5573 C   0  0  0  0  0  0  0  0  0  0  0  0
    4.3583   -9.5688   14.2162 C   0  0  0  0  0  0  0  0  0  0  0  0
    6.5503  -10.0627   16.2822 O   0  0  0  0  0  0  0  0  0  0  0  0
  1  2  1  6  0  0  0
  1  3  1  0  0  0  0
  1  8  1  0  0  0  0
  3  4  1  0  0  0  0
  3 32  1  1  0  0  0
  4  5  1  0  0  0  0
  4 33  1  1  0  0  0
  5  6  1  6  0  0  0
  5  7  1  0  0  0  0
  7  8  1  0  0  0  0
  7  9  1  6  0  0  0
  9 10  1  0  0  0  0
 11 12  1  6  0  0  0
 11 13  1  0  0  0  0
 11 19  1  0  0  0  0
 12 35  1  0  0  0  0
 13 14  1  0  0  0  0
 14 15  1  6  0  0  0
 14 16  1  0  0  0  0
 16  2  1  1  0  0  0
 16 17  1  0  0  0  0
 17 18  1  1  0  0  0
 17 19  1  0  0  0  0
 19 20  1  1  0  0  0
 21 20  1  6  0  0  0
 21 22  1  0  0  0  0
 21 29  1  0  0  0  0
 22 23  1  6  0  0  0
 22 24  1  0  0  0  0
 24 25  1  1  0  0  0
 24 26  1  0  0  0  0
 26 27  1  6  0  0  0
 26 28  1  0  0  0  0
 28 29  1  0  0  0  0
 28 30  1  1  0  0  0
 30 31  1  0  0  0  0
 34 39  1  0  0  0  0
 35 36  2  0  0  0  0
 37 35  1  1  0  0  0
 37 38  1  0  0  0  0
 37 40  1  0  0  0  0
 38 39  1  0  0  0  0
M  END
>  <CHROM.1>
-164.58007149,-63.07842335,64.98802134,-99.30869138,-174.52556725,-154.03524910
-63.24528480,68.52800222,-178.74967704,-179.74394530,4.00005165,-7.55433724
21.45132366,-1.62342372,-1.29670706,-2.62481935

>  <Name>
2g5q_lig

>  <RI>
2.47104e+07

>  <Rbt.Current_Directory>
/home/itssahil/PROJECTS/Mol_Feturizer/New_Systems/rnas/2g5q

>  <Rbt.Executable>
rbdock ($Id: //depot/dev/client3/rdock/2013.1/src/exe/rbdock.cxx#4 $)

>  <Rbt.Library>
libRbt.so (2013.1, Build901 2013/11/27)

>  <Rbt.Parameter_File>
/export/apps/rDock/src/rDock_2013.1_src/data/scripts/dock_solv.prm

>  <Rbt.Receptor>
prm/pocket_docking_7.prm

>  <SCORE>
-16.7337

>  <SCORE.INTER>
-13.7523

>  <SCORE.INTER.CONST>
1

>  <SCORE.INTER.POLAR>
-0.920681

>  <SCORE.INTER.ROT>
10

>  <SCORE.INTER.SOLV>
19.1428

>  <SCORE.INTER.VDW>
-22.7469

>  <SCORE.INTER.norm>
-0.343807

>  <SCORE.INTRA>
-2.9814

>  <SCORE.INTRA.DIHEDRAL>
-12.1891

>  <SCORE.INTRA.DIHEDRAL.0>
22.5778

>  <SCORE.INTRA.POLAR>
0

>  <SCORE.INTRA.POLAR.0>
0

>  <SCORE.INTRA.REPUL>
0

>  <SCORE.INTRA.REPUL.0>
0

>  <SCORE.INTRA.SOLV>
3.77736

>  <SCORE.INTRA.SOLV.lig_0>
-102.332

>  <SCORE.INTRA.VDW>
1.22446

>  <SCORE.INTRA.VDW.0>
-5.08747

>  <SCORE.INTRA.norm>
-0.074535

>  <SCORE.RESTR>
0

>  <SCORE.RESTR.CAVITY>
0

>  <SCORE.RESTR.norm>
0

>  <SCORE.SYSTEM>
0

>  <SCORE.SYSTEM.CONST>
0

>  <SCORE.SYSTEM.DIHEDRAL>
0

>  <SCORE.SYSTEM.SOLV>
0

>  <SCORE.SYSTEM.norm>
0

>  <SCORE.heavy>
40

>  <SCORE.norm>
-0.418342

>  <RMSD>
7.698

$$$$
2g5q_lig
 OpenBabel11021811433D
libRbt.so/2013.1/901 2013/11/27
 40 42  0  0  0  0  0  0  0  0999 V2000
   -3.8507   -9.3941   18.2578 C   0  0  2  0  0  0  0  0  0  0  0  0
   -2.7585   -8.9466   17.4856 O   0  0  0  0  0  0  0  0  0  0  0  0
   -3.8826  -10.9507   18.2278 C   0  0  1  0  0  0  0  0  0  0  0  0
   -4.2069  -11.4986   16.8036 C   0  0  2  0  0  0  0  0  0  0  0  0
   -5.5914  -10.9396   16.3845 C   0  0  2  0  0  0  0  0  0  0  0  0
   -5.9375  -11.4415   15.0834 O   0  0  0  0  0  0  0  0  0  0  0  0
   -5.5085   -9.3593   16.3825 C   0  0  2  0  0  0  0  0  0  0  0  0
   -5.1404   -8.8658   17.7404 O   0  0  0  0  0  0  0  0  0  0  0  0
   -6.8278   -8.6996   15.9957 C   0  0  0  0  0  0  0  0  0  0  0  0
   -6.7514   -7.2060   16.0678 N   0  0  0  0  0  0  0  0  0  0  0  0
    1.5602   -8.5722   18.0200 C   0  0  2  0  0  0  0  0  0  0  0  0
    2.9412   -8.8883   18.3647 N   0  0  0  0  0  0  0  0  0  0  0  0
    0.6390   -8.6620   19.3081 C   0  0  0  0  0  0  0  0  0  0  0  0
   -0.8570   -8.3133   18.9405 C   0  0  2  0  0  0  0  0  0  0  0  0
   -1.7081   -8.3902   20.1585 N   0  0  0  0  0  0  0  0  0  0  0  0
   -1.3682   -9.3014   17.8178 C   0  0  2  0  0  0  0  0  0  0  0  0
   -0.4250   -9.1869   16.5552 C   0  0  2  0  0  0  0  0  0  0  0  0
   -0.8860  -10.0869   15.5425 O   0  0  0  0  0  0  0  0  0  0  0  0
    1.0589   -9.5537   16.9405 C   0  0  1  0  0  0  0  0  0  0  0  0
    1.9275   -9.4355   15.7787 O   0  0  0  0  0  0  0  0  0  0  0  0
    1.6096   -9.9297   14.5009 C   0  0  2  0  0  0  0  0  0  0  0  0
    1.8190  -11.4816   14.5322 C   0  0  2  0  0  0  0  0  0  0  0  0
    0.9849  -12.0439   15.4938 O   0  0  0  0  0  0  0  0  0  0  0  0
    3.3262  -11.8470   14.8104 C   0  0  1  0  0  0  0  0  0  0  0  0
    3.5379  -13.3318   14.8378 N   0  0  0  0  0  0  0  0  0  0  0  0
    4.2148  -11.1749   13.6898 C   0  0  2  0  0  0  0  0  0  0  0  0
    5.5976  -11.4781   13.8854 O   0  0  0  0  0  0  0  0  0  0  0  0
    3.9618   -9.6295   13.7120 C   0  0  2  0  0  0  0  0  0  0  0  0
    2.5059   -9.3189   13.5030 O   0  0  0  0  0  0  0  0  0  0  0  0
    4.7513   -8.9212   12.6496 C   0  0  0  0  0  0  0  0  0  0  0  0
    4.2593   -9.2363   11.3368 O   0  0  0  0  0  0  0  0  0  0  0  0
   -2.5845  -11.4485   18.7024 O   0  0  0  0  0  0  0  0  0  0  0  0
   -4.2354  -12.8753   16.8380 O   0  0  0  0  0  0  0  0  0  0  0  0
    4.4556   -9.2421   22.4874 N   0  0  0  0  0  0  0  0  0  0  0  0
    3.9985   -7.9896   18.3403 C   0  0  0  0  0  0  0  0  0  0  0  0
    3.8883   -6.8129   18.0136 O   0  0  0  0  0  0  0  0  0  0  0  0
    5.3374   -8.6421   18.7550 C   0  0  1  0  0  0  0  0  0  0  0  0
    5.4610   -8.6639   20.2920 C   0  0  0  0  0  0  0  0  0  0  0  0
    4.3542   -9.4164   21.0399 C   0  0  0  0  0  0  0  0  0  0  0  0
    5.3993   -9.9807   18.2131 O   0  0  0  0  0  0  0  0  0  0  0  0
  1  2  1  6  0  0  0
  1  3  1  0  0  0  0
  1  8  1  0  0  0  0
  3  4  1  0  0  0  0
  3 32  1  6  0  0  0
  4  5  1  0  0  0  0
  4 33  1  1  0  0  0
  5  6  1  6  0  0  0
  5  7  1  0  0  0  0
  7  8  1  0  0  0  0
  7  9  1  1  0  0  0
  9 10  1  0  0  0  0
 11 12  1  1  0  0  0
 11 13  1  0  0  0  0
 11 19  1  0  0  0  0
 12 35  1  0  0  0  0
 13 14  1  0  0  0  0
 14 15  1  1  0  0  0
 14 16  1  0  0  0  0
 16  2  1  6  0  0  0
 16 17  1  0  0  0  0
 17 18  1  6  0  0  0
 17 19  1  0  0  0  0
 19 20  1  6  0  0  0
 21 20  1  1  0  0  0
 21 22  1  0  0  0  0
 21 29  1  0  0  0  0
 22 23  1  1  0  0  0
 22 24  1  0  0  0  0
 24 25  1  6  0  0  0
 24 26  1  0  0  0  0
 26 27  1  1  0  0  0
 26 28  1  0  0  0  0
 28 29  1  0  0  0  0
 28 30  1  6  0  0  0
 30 31  1  0  0  0  0
 34 39  1  0  0  0  0
 35 36  2  0  0  0  0
 37 35  1  1  0  0  0
 37 38  1  0  0  0  0
 37 40  1  0  0  0  0
 38 39  1  0  0  0  0
M  END
>  <CHROM.1>
-61.04272947,177.04393549,-112.54947494,-82.32730393,-164.44024936,-76.44051400
69.11406041,-83.62117580,58.94221052,-172.70203796,0.37300814,-9.79627295
16.75215056,-3.08905926,-0.04090042,-1.87095852

>  <Name>
2g5q_lig

>  <RI>
0

>  <Rbt.Current_Directory>
/home/itssahil/PROJECTS/Mol_Feturizer/New_Systems/rnas/2g5q

>  <Rbt.Executable>
rbdock ($Id: //depot/dev/client3/rdock/2013.1/src/exe/rbdock.cxx#4 $)

>  <Rbt.Library>
libRbt.so (2013.1, Build901 2013/11/27)

>  <Rbt.Parameter_File>
/export/apps/rDock/src/rDock_2013.1_src/data/scripts/dock_solv.prm

>  <Rbt.Receptor>
prm/pocket_docking_3.prm

>  <SCORE>
-14.745

>  <SCORE.INTER>
-10.3932

>  <SCORE.INTER.CONST>
1

>  <SCORE.INTER.POLAR>
-2.1202

>  <SCORE.INTER.ROT>
10

>  <SCORE.INTER.SOLV>
12.4817

>  <SCORE.INTER.VDW>
-14.2887

>  <SCORE.INTER.norm>
-0.259831

>  <SCORE.INTRA>
-4.35176

>  <SCORE.INTRA.DIHEDRAL>
-14.958

>  <SCORE.INTRA.DIHEDRAL.0>
22.5778

>  <SCORE.INTRA.POLAR>
0

>  <SCORE.INTRA.POLAR.0>
0

>  <SCORE.INTRA.REPUL>
0

>  <SCORE.INTRA.REPUL.0>
0

>  <SCORE.INTRA.SOLV>
1.58413

>  <SCORE.INTRA.SOLV.lig_0>
-102.332

>  <SCORE.INTRA.VDW>
2.33518

>  <SCORE.INTRA.VDW.0>
-5.08747

>  <SCORE.INTRA.norm>
-0.108794

>  <SCORE.RESTR>
0

>  <SCORE.RESTR.CAVITY>
0

>  <SCORE.RESTR.norm>
0

>  <SCORE.SYSTEM>
0

>  <SCORE.SYSTEM.CONST>
0

>  <SCORE.SYSTEM.DIHEDRAL>
0

>  <SCORE.SYSTEM.SOLV>
0

>  <SCORE.SYSTEM.norm>
0

>  <SCORE.heavy>
40

>  <SCORE.norm>
-0.368625

>  <RMSD>
7.707

$$$$
2g5q_lig
 OpenBabel11021811433D
libRbt.so/2013.1/901 2013/11/27
 40 42  0  0  0  0  0  0  0  0999 V2000
   -4.4714  -10.3872   16.9884 C   0  0  2  0  0  0  0  0  0  0  0  0
   -3.6207   -9.2849   17.2138 O   0  0  0  0  0  0  0  0  0  0  0  0
   -5.8822   -9.8599   16.5931 C   0  0  1  0  0  0  0  0  0  0  0  0
   -6.5757   -9.1123   17.7737 C   0  0  2  0  0  0  0  0  0  0  0  0
   -6.7024  -10.1076   18.9562 C   0  0  2  0  0  0  0  0  0  0  0  0
   -7.3592   -9.4615   20.0587 O   0  0  0  0  0  0  0  0  0  0  0  0
   -5.2491  -10.5865   19.3593 C   0  0  2  0  0  0  0  0  0  0  0  0
   -4.5879  -11.2454   18.1967 O   0  0  0  0  0  0  0  0  0  0  0  0
   -5.2554  -11.5857   20.5114 C   0  0  0  0  0  0  0  0  0  0  0  0
   -3.8715  -11.9080   20.9831 N   0  0  0  0  0  0  0  0  0  0  0  0
    0.5812   -8.6520   16.2034 C   0  0  2  0  0  0  0  0  0  0  0  0
    2.0359   -8.7480   16.2248 N   0  0  0  0  0  0  0  0  0  0  0  0
    0.0458   -8.1215   17.5990 C   0  0  0  0  0  0  0  0  0  0  0  0
   -1.5294   -8.0091   17.5778 C   0  0  2  0  0  0  0  0  0  0  0  0
   -2.0178   -7.5002   18.8880 N   0  0  0  0  0  0  0  0  0  0  0  0
   -2.1544   -9.4208   17.2396 C   0  0  2  0  0  0  0  0  0  0  0  0
   -1.5953   -9.9172   15.8474 C   0  0  2  0  0  0  0  0  0  0  0  0
   -2.1576  -11.1982   15.5463 O   0  0  0  0  0  0  0  0  0  0  0  0
   -0.0243  -10.0371   15.8954 C   0  0  1  0  0  0  0  0  0  0  0  0
    0.4889  -10.4825   14.6083 O   0  0  0  0  0  0  0  0  0  0  0  0
    0.0409  -11.6328   13.9343 C   0  0  2  0  0  0  0  0  0  0  0  0
    0.5644  -12.8766   14.7293 C   0  0  2  0  0  0  0  0  0  0  0  0
    0.0614  -12.8446   16.0264 O   0  0  0  0  0  0  0  0  0  0  0  0
    2.1393  -12.9257   14.7368 C   0  0  1  0  0  0  0  0  0  0  0  0
    2.6505  -14.1165   15.4924 N   0  0  0  0  0  0  0  0  0  0  0  0
    2.6421  -12.9543   13.2389 C   0  0  2  0  0  0  0  0  0  0  0  0
    4.0690  -13.0067   13.1810 O   0  0  0  0  0  0  0  0  0  0  0  0
    2.0882  -11.6882   12.5022 C   0  0  2  0  0  0  0  0  0  0  0  0
    0.5870  -11.6416   12.5654 O   0  0  0  0  0  0  0  0  0  0  0  0
    2.4995  -11.6601   11.0587 C   0  0  0  0  0  0  0  0  0  0  0  0
    1.6445  -12.4909   10.2563 O   0  0  0  0  0  0  0  0  0  0  0  0
   -5.7364   -8.9818   15.4244 O   0  0  0  0  0  0  0  0  0  0  0  0
   -7.8212   -8.6805   17.3739 O   0  0  0  0  0  0  0  0  0  0  0  0
    3.9708   -8.3786   19.8853 N   0  0  0  0  0  0  0  0  0  0  0  0
    2.7773   -9.4697   17.1499 C   0  0  0  0  0  0  0  0  0  0  0  0
    2.2837  -10.1108   18.0711 O   0  0  0  0  0  0  0  0  0  0  0  0
    4.2992   -9.3614   16.8999 C   0  0  1  0  0  0  0  0  0  0  0  0
    5.0740   -9.7869   18.1636 C   0  0  0  0  0  0  0  0  0  0  0  0
    5.2399   -8.7075   19.2396 C   0  0  0  0  0  0  0  0  0  0  0  0
    4.6539  -10.1935   15.7724 O   0  0  0  0  0  0  0  0  0  0  0  0
  1  2  1  1  0  0  0
  1  3  1  0  0  0  0
  1  8  1  0  0  0  0
  3  4  1  0  0  0  0
  3 32  1  6  0  0  0
  4  5  1  0  0  0  0
  4 33  1  6  0  0  0
  5  6  1  1  0  0  0
  5  7  1  0  0  0  0
  7  8  1  0  0  0  0
  7  9  1  1  0  0  0
  9 10  1  0  0  0  0
 11 12  1  1  0  0  0
 11 13  1  0  0  0  0
 11 19  1  0  0  0  0
 12 35  1  0  0  0  0
 13 14  1  0  0  0  0
 14 15  1  1  0  0  0
 14 16  1  0  0  0  0
 16  2  1  6  0  0  0
 16 17  1  0  0  0  0
 17 18  1  1  0  0  0
 17 19  1  0  0  0  0
 19 20  1  6  0  0  0
 21 20  1  1  0  0  0
 21 22  1  0  0  0  0
 21 29  1  0  0  0  0
 22 23  1  1  0  0  0
 22 24  1  0  0  0  0
 24 25  1  1  0  0  0
 24 26  1  0  0  0  0
 26 27  1  1  0  0  0
 26 28  1  0  0  0  0
 28 29  1  0  0  0  0
 28 30  1  6  0  0  0
 30 31  1  0  0  0  0
 34 39  1  0  0  0  0
 35 36  2  0  0  0  0
 37 35  1  1  0  0  0
 37 38  1  0  0  0  0
 37 40  1  0  0  0  0
 38 39  1  0  0  0  0
M  END
>  <CHROM.1>
-162.87546874,-173.44915278,55.69743653,-177.53988707,-172.59202998,-71.04289964
81.43741258,162.29747734,-82.74401708,68.98748313,-0.67780044,-10.44468285
16.42157519,2.72200631,0.03451849,1.11568450

>  <Name>
2g5q_lig

>  <RI>
9.52566e+06

>  <Rbt.Current_Directory>
/home/itssahil/PROJECTS/Mol_Feturizer/New_Systems/rnas/2g5q

>  <Rbt.Executable>
rbdock ($Id: //depot/dev/client3/rdock/2013.1/src/exe/rbdock.cxx#4 $)

>  <Rbt.Library>
libRbt.so (2013.1, Build901 2013/11/27)

>  <Rbt.Parameter_File>
/export/apps/rDock/src/rDock_2013.1_src/data/scripts/dock_solv.prm

>  <Rbt.Receptor>
prm/pocket_docking_4.prm

>  <SCORE>
-13.0504

>  <SCORE.INTER>
-7.84347

>  <SCORE.INTER.CONST>
1

>  <SCORE.INTER.POLAR>
-0.904472

>  <SCORE.INTER.ROT>
10

>  <SCORE.INTER.SOLV>
10.0806

>  <SCORE.INTER.VDW>
-15.8409

>  <SCORE.INTER.norm>
-0.196087

>  <SCORE.INTRA>
-5.45663

>  <SCORE.INTRA.DIHEDRAL>
-15.6311

>  <SCORE.INTRA.DIHEDRAL.0>
22.5778

>  <SCORE.INTRA.POLAR>
0

>  <SCORE.INTRA.POLAR.0>
0

>  <SCORE.INTRA.REPUL>
0

>  <SCORE.INTRA.REPUL.0>
0

>  <SCORE.INTRA.SOLV>
2.25187

>  <SCORE.INTRA.SOLV.lig_0>
-102.332

>  <SCORE.INTRA.VDW>
1.23299

>  <SCORE.INTRA.VDW.0>
-5.08747

>  <SCORE.INTRA.norm>
-0.136416

>  <SCORE.RESTR>
0.249657

>  <SCORE.RESTR.CAVITY>
0.249657

>  <SCORE.RESTR.norm>
0.00624142

>  <SCORE.SYSTEM>
0

>  <SCORE.SYSTEM.CONST>
0

>  <SCORE.SYSTEM.DIHEDRAL>
0

>  <SCORE.SYSTEM.SOLV>
0

>  <SCORE.SYSTEM.norm>
0

>  <SCORE.heavy>
40

>  <SCORE.norm>
-0.326261

>  <RMSD>
7.710

$$$$
2g5q_lig
 OpenBabel11021811433D
libRbt.so/2013.1/901 2013/11/27
 40 42  0  0  0  0  0  0  0  0999 V2000
   -4.1883   -8.2659   17.7700 C   0  0  2  0  0  0  0  0  0  0  0  0
   -3.2340   -8.6964   16.8247 O   0  0  0  0  0  0  0  0  0  0  0  0
   -4.7068   -9.5039   18.5595 C   0  0  1  0  0  0  0  0  0  0  0  0
   -5.5215  -10.4747   17.6499 C   0  0  2  0  0  0  0  0  0  0  0  0
   -6.7231   -9.6845   17.0696 C   0  0  2  0  0  0  0  0  0  0  0  0
   -7.5136  -10.5530   16.2419 O   0  0  0  0  0  0  0  0  0  0  0  0
   -6.1582   -8.4625   16.2380 C   0  0  2  0  0  0  0  0  0  0  0  0
   -5.3363   -7.5829   17.1175 O   0  0  0  0  0  0  0  0  0  0  0  0
   -7.2609   -7.6027   15.6294 C   0  0  0  0  0  0  0  0  0  0  0  0
   -6.7120   -6.4005   14.9258 N   0  0  0  0  0  0  0  0  0  0  0  0
    1.1336   -8.7145   16.8074 C   0  0  2  0  0  0  0  0  0  0  0  0
    2.5145   -9.0002   17.1781 N   0  0  0  0  0  0  0  0  0  0  0  0
    0.3803   -8.0003   18.0067 C   0  0  0  0  0  0  0  0  0  0  0  0
   -1.1142   -7.6824   17.6068 C   0  0  2  0  0  0  0  0  0  0  0  0
   -1.8061   -7.0030   18.7354 N   0  0  0  0  0  0  0  0  0  0  0  0
   -1.8489   -9.0227   17.2044 C   0  0  2  0  0  0  0  0  0  0  0  0
   -1.0685   -9.7060   16.0124 C   0  0  2  0  0  0  0  0  0  0  0  0
   -1.7319  -10.9224   15.6540 O   0  0  0  0  0  0  0  0  0  0  0  0
    0.4148  -10.0285   16.4376 C   0  0  1  0  0  0  0  0  0  0  0  0
    1.1347  -10.6465   15.3340 O   0  0  0  0  0  0  0  0  0  0  0  0
    1.3731  -10.0208   14.0971 C   0  0  2  0  0  0  0  0  0  0  0  0
    1.6502  -11.1487   13.0462 C   0  0  2  0  0  0  0  0  0  0  0  0
    0.5436  -11.9884   12.9627 O   0  0  0  0  0  0  0  0  0  0  0  0
    2.9485  -11.9624   13.4136 C   0  0  1  0  0  0  0  0  0  0  0  0
    3.2251  -13.0425   12.4101 N   0  0  0  0  0  0  0  0  0  0  0  0
    4.1605  -10.9518   13.4975 C   0  0  2  0  0  0  0  0  0  0  0  0
    5.3728  -11.6354   13.8218 O   0  0  0  0  0  0  0  0  0  0  0  0
    3.8227   -9.8546   14.5627 C   0  0  2  0  0  0  0  0  0  0  0  0
    2.5479   -9.1386   14.2132 O   0  0  0  0  0  0  0  0  0  0  0  0
    4.9186   -8.8351   14.6779 C   0  0  0  0  0  0  0  0  0  0  0  0
    5.0962   -8.1184   13.4451 O   0  0  0  0  0  0  0  0  0  0  0  0
   -3.5521  -10.1860   19.1593 O   0  0  0  0  0  0  0  0  0  0  0  0
   -5.9655  -11.5412   18.4001 O   0  0  0  0  0  0  0  0  0  0  0  0
    4.7371   -7.5160   21.2603 N   0  0  0  0  0  0  0  0  0  0  0  0
    2.9132   -9.9386   18.1196 C   0  0  0  0  0  0  0  0  0  0  0  0
    2.1356  -10.6376   18.7601 O   0  0  0  0  0  0  0  0  0  0  0  0
    4.4496   -9.9932   18.2845 C   0  0  1  0  0  0  0  0  0  0  0  0
    4.9303   -8.8117   19.1511 C   0  0  0  0  0  0  0  0  0  0  0  0
    4.3484   -8.7429   20.5678 C   0  0  0  0  0  0  0  0  0  0  0  0
    4.8165  -11.2561   18.8842 O   0  0  0  0  0  0  0  0  0  0  0  0
  1  2  1  6  0  0  0
  1  3  1  0  0  0  0
  1  8  1  0  0  0  0
  3  4  1  0  0  0  0
  3 32  1  6  0  0  0
  4  5  1  0  0  0  0
  4 33  1  1  0  0  0
  5  6  1  6  0  0  0
  5  7  1  0  0  0  0
  7  8  1  0  0  0  0
  7  9  1  1  0  0  0
  9 10  1  0  0  0  0
 11 12  1  1  0  0  0
 11 13  1  0  0  0  0
 11 19  1  0  0  0  0
 12 35  1  0  0  0  0
 13 14  1  0  0  0  0
 14 15  1  1  0  0  0
 14 16  1  0  0  0  0
 16  2  1  6  0  0  0
 16 17  1  0  0  0  0
 17 18  1  1  0  0  0
 17 19  1  0  0  0  0
 19 20  1  6  0  0  0
 21 20  1  1  0  0  0
 21 22  1  0  0  0  0
 21 29  1  0  0  0  0
 22 23  1  1  0  0  0
 22 24  1  0  0  0  0
 24 25  1  6  0  0  0
 24 26  1  0  0  0  0
 26 27  1  1  0  0  0
 26 28  1  0  0  0  0
 28 29  1  0  0  0  0
 28 30  1  6  0  0  0
 30 31  1  0  0  0  0
 34 39  1  0  0  0  0
 35 36  2  0  0  0  0
 37 35  1  1  0  0  0
 37 38  1  0  0  0  0
 37 40  1  0  0  0  0
 38 39  1  0  0  0  0
M  END
>  <CHROM.1>
-78.13277268,176.09207816,69.23895058,-69.45267955,-57.44578457,-158.37172488
62.82440771,78.16843531,59.48902265,-173.47410780,-0.13022930,-9.60584290
16.48512703,-2.99970098,0.06382048,-1.92617358

>  <Name>
2g5q_lig

>  <RI>
0

>  <Rbt.Current_Directory>
/home/itssahil/PROJECTS/Mol_Feturizer/New_Systems/rnas/2g5q

>  <Rbt.Executable>
rbdock ($Id: //depot/dev/client3/rdock/2013.1/src/exe/rbdock.cxx#4 $)

>  <Rbt.Library>
libRbt.so (2013.1, Build901 2013/11/27)

>  <Rbt.Parameter_File>
/export/apps/rDock/src/rDock_2013.1_src/data/scripts/dock_solv.prm

>  <Rbt.Receptor>
prm/pocket_docking_5.prm

>  <SCORE>
-12.1129

>  <SCORE.INTER>
-4.88799

>  <SCORE.INTER.CONST>
1

>  <SCORE.INTER.POLAR>
-0.83401

>  <SCORE.INTER.ROT>
10

>  <SCORE.INTER.SOLV>
17.4194

>  <SCORE.INTER.VDW>
-16.5518

>  <SCORE.INTER.norm>
-0.1222

>  <SCORE.INTRA>
-7.22487

>  <SCORE.INTRA.DIHEDRAL>
-17.0458

>  <SCORE.INTRA.DIHEDRAL.0>
22.5778

>  <SCORE.INTRA.POLAR>
0

>  <SCORE.INTRA.POLAR.0>
0

>  <SCORE.INTRA.REPUL>
0

>  <SCORE.INTRA.REPUL.0>
0

>  <SCORE.INTRA.SOLV>
2.1033

>  <SCORE.INTRA.SOLV.lig_0>
-102.332

>  <SCORE.INTRA.VDW>
0.246378

>  <SCORE.INTRA.VDW.0>
-5.08747

>  <SCORE.INTRA.norm>
-0.180622

>  <SCORE.RESTR>
0

>  <SCORE.RESTR.CAVITY>
0

>  <SCORE.RESTR.norm>
0

>  <SCORE.SYSTEM>
0

>  <SCORE.SYSTEM.CONST>
0

>  <SCORE.SYSTEM.DIHEDRAL>
0

>  <SCORE.SYSTEM.SOLV>
0

>  <SCORE.SYSTEM.norm>
0

>  <SCORE.heavy>
40

>  <SCORE.norm>
-0.302821

>  <RMSD>
7.718

$$$$
2g5q_lig
 OpenBabel11021811433D
libRbt.so/2013.1/901 2013/11/27
 40 42  0  0  0  0  0  0  0  0999 V2000
   -4.6083   -9.8328   16.8180 C   0  0  2  0  0  0  0  0  0  0  0  0
   -3.4837   -8.9836   16.8780 O   0  0  0  0  0  0  0  0  0  0  0  0
   -5.8532   -8.9894   16.4133 C   0  0  1  0  0  0  0  0  0  0  0  0
   -6.2439   -7.9610   17.5194 C   0  0  2  0  0  0  0  0  0  0  0  0
   -6.5492   -8.7535   18.8170 C   0  0  2  0  0  0  0  0  0  0  0  0
   -6.9366   -7.8405   19.8566 O   0  0  0  0  0  0  0  0  0  0  0  0
   -5.2502   -9.5613   19.2222 C   0  0  2  0  0  0  0  0  0  0  0  0
   -4.8660  -10.4940   18.1243 O   0  0  0  0  0  0  0  0  0  0  0  0
   -5.4428  -10.3932   20.4857 C   0  0  0  0  0  0  0  0  0  0  0  0
   -5.7171   -9.5389   21.6843 N   0  0  0  0  0  0  0  0  0  0  0  0
    0.8356   -9.3937   16.3756 C   0  0  2  0  0  0  0  0  0  0  0  0
    2.2034   -9.8755   16.5263 N   0  0  0  0  0  0  0  0  0  0  0  0
    0.2766   -8.8845   17.7699 C   0  0  0  0  0  0  0  0  0  0  0  0
   -1.2027   -8.3549   17.6097 C   0  0  2  0  0  0  0  0  0  0  0  0
   -1.7111   -7.8702   18.9214 N   0  0  0  0  0  0  0  0  0  0  0  0
   -2.1154   -9.5071   17.0289 C   0  0  2  0  0  0  0  0  0  0  0  0
   -1.5255   -9.9903   15.6449 C   0  0  2  0  0  0  0  0  0  0  0  0
   -2.3498  -11.0378   15.1241 O   0  0  0  0  0  0  0  0  0  0  0  0
   -0.0555  -10.5287   15.8300 C   0  0  1  0  0  0  0  0  0  0  0  0
    0.4897  -10.9616   14.5519 O   0  0  0  0  0  0  0  0  0  0  0  0
   -0.1300  -11.8978   13.7048 C   0  0  2  0  0  0  0  0  0  0  0  0
    0.1553  -13.3220   14.2908 C   0  0  2  0  0  0  0  0  0  0  0  0
   -0.3669  -13.4084   15.5778 O   0  0  0  0  0  0  0  0  0  0  0  0
    1.6984  -13.6407   14.2863 C   0  0  1  0  0  0  0  0  0  0  0  0
    1.9816  -15.0051   14.8417 N   0  0  0  0  0  0  0  0  0  0  0  0
    2.2258  -13.5195   12.8015 C   0  0  2  0  0  0  0  0  0  0  0  0
    3.6242  -13.8058   12.7323 O   0  0  0  0  0  0  0  0  0  0  0  0
    1.9129  -12.0775   12.2767 C   0  0  2  0  0  0  0  0  0  0  0  0
    0.4402  -11.7850   12.3505 O   0  0  0  0  0  0  0  0  0  0  0  0
    2.3585  -11.8941   10.8550 C   0  0  0  0  0  0  0  0  0  0  0  0
    3.6388  -11.2450   10.7890 O   0  0  0  0  0  0  0  0  0  0  0  0
   -5.5595   -8.3128   15.1428 O   0  0  0  0  0  0  0  0  0  0  0  0
   -7.3551   -7.2541   17.1158 O   0  0  0  0  0  0  0  0  0  0  0  0
    7.3973   -9.9968   17.3771 N   0  0  0  0  0  0  0  0  0  0  0  0
    3.2373   -9.6444   15.6296 C   0  0  0  0  0  0  0  0  0  0  0  0
    3.1113   -9.0056   14.5908 O   0  0  0  0  0  0  0  0  0  0  0  0
    4.5647  -10.2981   16.0783 C   0  0  1  0  0  0  0  0  0  0  0  0
    4.9228   -9.8405   17.5067 C   0  0  0  0  0  0  0  0  0  0  0  0
    6.2049  -10.4386   18.0973 C   0  0  0  0  0  0  0  0  0  0  0  0
    4.4291  -11.7358   16.0155 O   0  0  0  0  0  0  0  0  0  0  0  0
  1  2  1  1  0  0  0
  1  3  1  0  0  0  0
  1  8  1  0  0  0  0
  3  4  1  0  0  0  0
  3 32  1  6  0  0  0
  4  5  1  0  0  0  0
  4 33  1  6  0  0  0
  5  6  1  1  0  0  0
  5  7  1  0  0  0  0
  7  8  1  0  0  0  0
  7  9  1  1  0  0  0
  9 10  1  0  0  0  0
 11 12  1  1  0  0  0
 11 13  1  0  0  0  0
 11 19  1  0  0  0  0
 12 35  1  0  0  0  0
 13 14  1  0  0  0  0
 14 15  1  1  0  0  0
 14 16  1  0  0  0  0
 16  2  1  6  0  0  0
 16 17  1  0  0  0  0
 17 18  1  1  0  0  0
 17 19  1  0  0  0  0
 19 20  1  6  0  0  0
 21 20  1  1  0  0  0
 21 22  1  0  0  0  0
 21 29  1  0  0  0  0
 22 23  1  1  0  0  0
 22 24  1  0  0  0  0
 24 25  1  6  0  0  0
 24 26  1  0  0  0  0
 26 27  1  1  0  0  0
 26 28  1  0  0  0  0
 28 29  1  0  0  0  0
 28 30  1  6  0  0  0
 30 31  1  0  0  0  0
 34 39  1  0  0  0  0
 35 36  2  0  0  0  0
 37 35  1  1  0  0  0
 37 38  1  0  0  0  0
 37 40  1  0  0  0  0
 38 39  1  0  0  0  0
M  END
>  <CHROM.1>
-170.32278604,-63.46691613,-138.89514477,-158.39825702,-174.01388695,-78.43233113
-97.88629897,-54.28790788,178.61488888,65.93659804,-0.55838652,-10.42452888
16.05197868,2.65276123,-0.06761528,1.07665118

>  <Name>
2g5q_lig

>  <RI>
9.52566e+06

>  <Rbt.Current_Directory>
/home/itssahil/PROJECTS/Mol_Feturizer/New_Systems/rnas/2g5q

>  <Rbt.Executable>
rbdock ($Id: //depot/dev/client3/rdock/2013.1/src/exe/rbdock.cxx#4 $)

>  <Rbt.Library>
libRbt.so (2013.1, Build901 2013/11/27)

>  <Rbt.Parameter_File>
/export/apps/rDock/src/rDock_2013.1_src/data/scripts/dock_solv.prm

>  <Rbt.Receptor>
prm/pocket_docking_4.prm

>  <SCORE>
-18.8465

>  <SCORE.INTER>
-13.5043

>  <SCORE.INTER.CONST>
1

>  <SCORE.INTER.POLAR>
-1.72838

>  <SCORE.INTER.ROT>
10

>  <SCORE.INTER.SOLV>
12.1192

>  <SCORE.INTER.VDW>
-17.548

>  <SCORE.INTER.norm>
-0.337608

>  <SCORE.INTRA>
-5.34222

>  <SCORE.INTRA.DIHEDRAL>
-12.7021

>  <SCORE.INTRA.DIHEDRAL.0>
22.5778

>  <SCORE.INTRA.POLAR>
0

>  <SCORE.INTRA.POLAR.0>
0

>  <SCORE.INTRA.REPUL>
0

>  <SCORE.INTRA.REPUL.0>
0

>  <SCORE.INTRA.SOLV>
1.74209

>  <SCORE.INTRA.SOLV.lig_0>
-102.332

>  <SCORE.INTRA.VDW>
0.137771

>  <SCORE.INTRA.VDW.0>
-5.08747

>  <SCORE.INTRA.norm>
-0.133556

>  <SCORE.RESTR>
0

>  <SCORE.RESTR.CAVITY>
0

>  <SCORE.RESTR.norm>
0

>  <SCORE.SYSTEM>
0

>  <SCORE.SYSTEM.CONST>
0

>  <SCORE.SYSTEM.DIHEDRAL>
0

>  <SCORE.SYSTEM.SOLV>
0

>  <SCORE.SYSTEM.norm>
0

>  <SCORE.heavy>
40

>  <SCORE.norm>
-0.471163

>  <RMSD>
7.739

$$$$
2g5q_lig
 OpenBabel11021811433D
libRbt.so/2013.1/901 2013/11/27
 40 42  0  0  0  0  0  0  0  0999 V2000
   -5.1615  -10.2335   17.0286 C   0  0  2  0  0  0  0  0  0  0  0  0
   -3.8474   -9.7219   17.0565 O   0  0  0  0  0  0  0  0  0  0  0  0
   -6.1219   -9.1224   16.5110 C   0  0  1  0  0  0  0  0  0  0  0  0
   -6.2263   -7.9307   17.5122 C   0  0  2  0  0  0  0  0  0  0  0  0
   -6.7516   -8.4887   18.8604 C   0  0  2  0  0  0  0  0  0  0  0  0
   -6.8839   -7.4145   19.8053 O   0  0  0  0  0  0  0  0  0  0  0  0
   -5.7295   -9.5805   19.3775 C   0  0  2  0  0  0  0  0  0  0  0  0
   -5.6050  -10.6781   18.3761 O   0  0  0  0  0  0  0  0  0  0  0  0
   -6.1570  -10.2102   20.6989 C   0  0  0  0  0  0  0  0  0  0  0  0
   -7.4906  -10.8830   20.5952 N   0  0  0  0  0  0  0  0  0  0  0  0
    0.1472  -11.4697   17.3139 C   0  0  2  0  0  0  0  0  0  0  0  0
    1.2958  -12.2223   17.8037 N   0  0  0  0  0  0  0  0  0  0  0  0
   -0.2633  -10.3518   18.3616 C   0  0  0  0  0  0  0  0  0  0  0  0
   -1.5031   -9.5292   17.8316 C   0  0  2  0  0  0  0  0  0  0  0  0
   -1.8709   -8.4773   18.8177 N   0  0  0  0  0  0  0  0  0  0  0  0
   -2.7111  -10.5117   17.5607 C   0  0  2  0  0  0  0  0  0  0  0  0
   -2.2635  -11.6113   16.5179 C   0  0  2  0  0  0  0  0  0  0  0  0
   -3.3567  -12.5034   16.2790 O   0  0  0  0  0  0  0  0  0  0  0  0
   -1.0359  -12.4300   17.0729 C   0  0  1  0  0  0  0  0  0  0  0  0
   -0.6180  -13.4338   16.1054 O   0  0  0  0  0  0  0  0  0  0  0  0
   -0.8342  -13.3335   14.7192 C   0  0  2  0  0  0  0  0  0  0  0  0
    0.2263  -14.2433   14.0116 C   0  0  2  0  0  0  0  0  0  0  0  0
    0.0673  -15.5590   14.4360 O   0  0  0  0  0  0  0  0  0  0  0  0
    1.6908  -13.7340   14.2919 C   0  0  1  0  0  0  0  0  0  0  0  0
    2.7140  -14.5966   13.6143 N   0  0  0  0  0  0  0  0  0  0  0  0
    1.8000  -12.2384   13.7934 C   0  0  2  0  0  0  0  0  0  0  0  0
    3.1138  -11.7217   14.0153 O   0  0  0  0  0  0  0  0  0  0  0  0
    0.7187  -11.3840   14.5373 C   0  0  2  0  0  0  0  0  0  0  0  0
   -0.6602  -11.9322   14.2969 O   0  0  0  0  0  0  0  0  0  0  0  0
    0.7394   -9.9505   14.0920 C   0  0  0  0  0  0  0  0  0  0  0  0
   -0.0935   -9.1320   14.9294 O   0  0  0  0  0  0  0  0  0  0  0  0
   -5.6398   -8.6696   15.1992 O   0  0  0  0  0  0  0  0  0  0  0  0
   -7.0957   -6.9867   17.0118 O   0  0  0  0  0  0  0  0  0  0  0  0
    3.0216  -10.7574   20.8138 N   0  0  0  0  0  0  0  0  0  0  0  0
    2.5801  -11.7174   17.9519 C   0  0  0  0  0  0  0  0  0  0  0  0
    2.8980  -10.5658   17.6759 O   0  0  0  0  0  0  0  0  0  0  0  0
    3.5718  -12.7751   18.4886 C   0  0  1  0  0  0  0  0  0  0  0  0
    3.2697  -13.0792   19.9700 C   0  0  0  0  0  0  0  0  0  0  0  0
    3.7364  -12.0216   20.9769 C   0  0  0  0  0  0  0  0  0  0  0  0
    3.4684  -13.9718   17.6844 O   0  0  0  0  0  0  0  0  0  0  0  0
  1  2  1  1  0  0  0
  1  3  1  0  0  0  0
  1  8  1  0  0  0  0
  3  4  1  0  0  0  0
  3 32  1  6  0  0  0
  4  5  1  0  0  0  0
  4 33  1  6  0  0  0
  5  6  1  1  0  0  0
  5  7  1  0  0  0  0
  7  8  1  0  0  0  0
  7  9  1  1  0  0  0
  9 10  1  0  0  0  0
 11 12  1  1  0  0  0
 11 13  1  0  0  0  0
 11 19  1  0  0  0  0
 12 35  1  0  0  0  0
 13 14  1  0  0  0  0
 14 15  1  1  0  0  0
 14 16  1  0  0  0  0
 16  2  1  6  0  0  0
 16 17  1  0  0  0  0
 17 18  1  1  0  0  0
 17 19  1  0  0  0  0
 19 20  1  6  0  0  0
 21 20  1  1  0  0  0
 21 22  1  0  0  0  0
 21 29  1  0  0  0  0
 22 23  1  1  0  0  0
 22 24  1  0  0  0  0
 24 25  1  6  0  0  0
 24 26  1  0  0  0  0
 26 27  1  1  0  0  0
 26 28  1  0  0  0  0
 28 29  1  0  0  0  0
 28 30  1  6  0  0  0
 30 31  1  0  0  0  0
 34 39  1  0  0  0  0
 35 36  2  0  0  0  0
 37 35  1  6  0  0  0
 37 38  1  0  0  0  0
 37 40  1  0  0  0  0
 38 39  1  0  0  0  0
M  END
>  <CHROM.1>
177.09072137,59.55500834,-67.99797149,-164.16460484,-93.77396272,157.09330248
-170.36639616,-71.10306879,-76.46906601,65.58522956,-1.34404358,-11.11793922
17.02907438,2.81853170,-0.35251949,1.27643761

>  <Name>
2g5q_lig

>  <RI>
224

>  <Rbt.Current_Directory>
/home/itssahil/PROJECTS/Mol_Feturizer/New_Systems/rnas/2g5q

>  <Rbt.Executable>
rbdock ($Id: //depot/dev/client3/rdock/2013.1/src/exe/rbdock.cxx#4 $)

>  <Rbt.Library>
libRbt.so (2013.1, Build901 2013/11/27)

>  <Rbt.Parameter_File>
/export/apps/rDock/src/rDock_2013.1_src/data/scripts/dock_solv.prm

>  <Rbt.Receptor>
prm/pocket_docking_8.prm

>  <SCORE>
-7.54929

>  <SCORE.INTER>
-3.67066

>  <SCORE.INTER.CONST>
1

>  <SCORE.INTER.POLAR>
-1.17015

>  <SCORE.INTER.ROT>
10

>  <SCORE.INTER.SOLV>
7.56093

>  <SCORE.INTER.VDW>
-11.3336

>  <SCORE.INTER.norm>
-0.0917665

>  <SCORE.INTRA>
-3.87864

>  <SCORE.INTRA.DIHEDRAL>
-12.4317

>  <SCORE.INTRA.DIHEDRAL.0>
22.5778

>  <SCORE.INTRA.POLAR>
0

>  <SCORE.INTRA.POLAR.0>
0

>  <SCORE.INTRA.REPUL>
0

>  <SCORE.INTRA.REPUL.0>
0

>  <SCORE.INTRA.SOLV>
5.28298

>  <SCORE.INTRA.SOLV.lig_0>
-102.332

>  <SCORE.INTRA.VDW>
-0.304291

>  <SCORE.INTRA.VDW.0>
-5.08747

>  <SCORE.INTRA.norm>
-0.0969659

>  <SCORE.RESTR>
0

>  <SCORE.RESTR.CAVITY>
0

>  <SCORE.RESTR.norm>
0

>  <SCORE.SYSTEM>
0

>  <SCORE.SYSTEM.CONST>
0

>  <SCORE.SYSTEM.DIHEDRAL>
0

>  <SCORE.SYSTEM.SOLV>
0

>  <SCORE.SYSTEM.norm>
0

>  <SCORE.heavy>
40

>  <SCORE.norm>
-0.188732

>  <RMSD>
7.748

$$$$
2g5q_lig
 OpenBabel11021811433D
libRbt.so/2013.1/901 2013/11/27
 40 42  0  0  0  0  0  0  0  0999 V2000
   -4.0875   -9.7071   17.2547 C   0  0  2  0  0  0  0  0  0  0  0  0
   -3.0720   -8.7373   17.1207 O   0  0  0  0  0  0  0  0  0  0  0  0
   -5.4407   -9.0827   16.8034 C   0  0  1  0  0  0  0  0  0  0  0  0
   -5.9065   -7.9461   17.7651 C   0  0  2  0  0  0  0  0  0  0  0  0
   -6.0601   -8.5573   19.1821 C   0  0  2  0  0  0  0  0  0  0  0  0
   -6.5115   -7.5439   20.0952 O   0  0  0  0  0  0  0  0  0  0  0  0
   -4.6575   -9.1406   19.6254 C   0  0  2  0  0  0  0  0  0  0  0  0
   -4.2092  -10.1827   18.6580 O   0  0  0  0  0  0  0  0  0  0  0  0
   -4.6958   -9.7830   21.0080 C   0  0  0  0  0  0  0  0  0  0  0  0
   -5.5688  -10.9990   21.0383 N   0  0  0  0  0  0  0  0  0  0  0  0
    1.2863   -8.5366   16.9153 C   0  0  2  0  0  0  0  0  0  0  0  0
    2.6947   -8.8018   17.1834 N   0  0  0  0  0  0  0  0  0  0  0  0
    0.5624   -8.0320   18.2334 C   0  0  0  0  0  0  0  0  0  0  0  0
   -0.9622   -7.7366   17.9457 C   0  0  2  0  0  0  0  0  0  0  0  0
   -1.6266   -7.2538   19.1865 N   0  0  0  0  0  0  0  0  0  0  0  0
   -1.6572   -9.0436   17.3919 C   0  0  2  0  0  0  0  0  0  0  0  0
   -0.9074   -9.5173   16.0842 C   0  0  2  0  0  0  0  0  0  0  0  0
   -1.5344  -10.7043   15.5882 O   0  0  0  0  0  0  0  0  0  0  0  0
    0.6075   -9.8213   16.3968 C   0  0  1  0  0  0  0  0  0  0  0  0
    1.2985  -10.2454   15.1881 O   0  0  0  0  0  0  0  0  0  0  0  0
    2.6183  -10.7308   15.1615 C   0  0  2  0  0  0  0  0  0  0  0  0
    3.1350  -10.6054   13.6883 C   0  0  2  0  0  0  0  0  0  0  0  0
    3.0982   -9.2712   13.2947 O   0  0  0  0  0  0  0  0  0  0  0  0
    2.2888  -11.5050   12.7099 C   0  0  1  0  0  0  0  0  0  0  0  0
    2.7792  -11.3953   11.2964 N   0  0  0  0  0  0  0  0  0  0  0  0
    2.3686  -12.9999   13.2161 C   0  0  2  0  0  0  0  0  0  0  0  0
    1.6229  -13.8684   12.3606 O   0  0  0  0  0  0  0  0  0  0  0  0
    1.8379  -13.0573   14.6884 C   0  0  2  0  0  0  0  0  0  0  0  0
    2.6288  -12.1433   15.5822 O   0  0  0  0  0  0  0  0  0  0  0  0
    1.9116  -14.4466   15.2525 C   0  0  0  0  0  0  0  0  0  0  0  0
    3.2691  -14.9141   15.3124 O   0  0  0  0  0  0  0  0  0  0  0  0
   -5.2836   -8.5823   15.4311 O   0  0  0  0  0  0  0  0  0  0  0  0
   -7.1107   -7.4404   17.3272 O   0  0  0  0  0  0  0  0  0  0  0  0
    6.2423  -11.2620   20.2371 N   0  0  0  0  0  0  0  0  0  0  0  0
    3.6094   -7.8704   17.6546 C   0  0  0  0  0  0  0  0  0  0  0  0
    3.3320   -6.7005   17.8945 O   0  0  0  0  0  0  0  0  0  0  0  0
    5.0246   -8.4686   17.8276 C   0  0  1  0  0  0  0  0  0  0  0  0
    5.0052   -9.5679   18.9089 C   0  0  0  0  0  0  0  0  0  0  0  0
    6.3659  -10.1782   19.2646 C   0  0  0  0  0  0  0  0  0  0  0  0
    5.4722   -8.9993   16.5598 O   0  0  0  0  0  0  0  0  0  0  0  0
  1  2  1  1  0  0  0
  1  3  1  0  0  0  0
  1  8  1  0  0  0  0
  3  4  1  0  0  0  0
  3 32  1  6  0  0  0
  4  5  1  0  0  0  0
  4 33  1  6  0  0  0
  5  6  1  1  0  0  0
  5  7  1  0  0  0  0
  7  8  1  0  0  0  0
  7  9  1  1  0  0  0
  9 10  1  0  0  0  0
 11 12  1  1  0  0  0
 11 13  1  0  0  0  0
 11 19  1  0  0  0  0
 12 35  1  0  0  0  0
 13 14  1  0  0  0  0
 14 15  1  1  0  0  0
 14 16  1  0  0  0  0
 16  2  1  6  0  0  0
 16 17  1  0  0  0  0
 17 18  1  1  0  0  0
 17 19  1  0  0  0  0
 19 20  1  6  0  0  0
 21 20  1  6  0  0  0
 21 22  1  0  0  0  0
 21 29  1  0  0  0  0
 22 23  1  6  0  0  0
 22 24  1  0  0  0  0
 24 25  1  6  0  0  0
 24 26  1  0  0  0  0
 26 27  1  6  0  0  0
 26 28  1  0  0  0  0
 28 29  1  0  0  0  0
 28 30  1  1  0  0  0
 30 31  1  0  0  0  0
 34 39  1  0  0  0  0
 35 36  2  0  0  0  0
 37 35  1  6  0  0  0
 37 38  1  0  0  0  0
 37 40  1  0  0  0  0
 38 39  1  0  0  0  0
M  END
>  <CHROM.1>
-176.26521379,65.31936749,-59.02063266,-148.34963356,67.95234956,-160.95586971
62.20519977,-64.09268055,-175.49693545,-176.63861045,-0.02434936,-9.89752206
16.78817945,2.74260602,-0.02923360,0.96837863

>  <Name>
2g5q_lig

>  <RI>
9.52566e+06

>  <Rbt.Current_Directory>
/home/itssahil/PROJECTS/Mol_Feturizer/New_Systems/rnas/2g5q

>  <Rbt.Executable>
rbdock ($Id: //depot/dev/client3/rdock/2013.1/src/exe/rbdock.cxx#4 $)

>  <Rbt.Library>
libRbt.so (2013.1, Build901 2013/11/27)

>  <Rbt.Parameter_File>
/export/apps/rDock/src/rDock_2013.1_src/data/scripts/dock_solv.prm

>  <Rbt.Receptor>
prm/pocket_docking_4.prm

>  <SCORE>
-19.6245

>  <SCORE.INTER>
-12.6969

>  <SCORE.INTER.CONST>
1

>  <SCORE.INTER.POLAR>
-1.94475

>  <SCORE.INTER.ROT>
10

>  <SCORE.INTER.SOLV>
14.2116

>  <SCORE.INTER.VDW>
-16.986

>  <SCORE.INTER.norm>
-0.317423

>  <SCORE.INTRA>
-6.93216

>  <SCORE.INTRA.DIHEDRAL>
-15.574

>  <SCORE.INTRA.DIHEDRAL.0>
22.5778

>  <SCORE.INTRA.POLAR>
0

>  <SCORE.INTRA.POLAR.0>
0

>  <SCORE.INTRA.REPUL>
0

>  <SCORE.INTRA.REPUL.0>
0

>  <SCORE.INTRA.SOLV>
0.919738

>  <SCORE.INTRA.SOLV.lig_0>
-102.332

>  <SCORE.INTRA.VDW>
0.394951

>  <SCORE.INTRA.VDW.0>
-5.08747

>  <SCORE.INTRA.norm>
-0.173304

>  <SCORE.RESTR>
0.0045117

>  <SCORE.RESTR.CAVITY>
0.0045117

>  <SCORE.RESTR.norm>
0.000112792

>  <SCORE.SYSTEM>
0

>  <SCORE.SYSTEM.CONST>
0

>  <SCORE.SYSTEM.DIHEDRAL>
0

>  <SCORE.SYSTEM.SOLV>
0

>  <SCORE.SYSTEM.norm>
0

>  <SCORE.heavy>
40

>  <SCORE.norm>
-0.490614

>  <RMSD>
7.771

$$$$
2g5q_lig
 OpenBabel11021811433D
libRbt.so/2013.1/901 2013/11/27
 40 42  0  0  0  0  0  0  0  0999 V2000
    0.6363  -14.0325   17.6898 C   0  0  2  0  0  0  0  0  0  0  0  0
   -0.4532  -14.6249   17.0177 O   0  0  0  0  0  0  0  0  0  0  0  0
    1.7609  -15.0963   17.8582 C   0  0  1  0  0  0  0  0  0  0  0  0
    1.3337  -16.2471   18.8208 C   0  0  2  0  0  0  0  0  0  0  0  0
    1.0021  -15.6151   20.1976 C   0  0  2  0  0  0  0  0  0  0  0  0
    0.6252  -16.6488   21.1217 O   0  0  0  0  0  0  0  0  0  0  0  0
   -0.1729  -14.5745   19.9957 C   0  0  2  0  0  0  0  0  0  0  0  0
    0.2410  -13.5188   19.0277 O   0  0  0  0  0  0  0  0  0  0  0  0
   -0.5735  -13.8780   21.2919 C   0  0  0  0  0  0  0  0  0  0  0  0
    0.5409  -13.0501   21.8524 N   0  0  0  0  0  0  0  0  0  0  0  0
   -3.2771  -11.3059   16.7236 C   0  0  2  0  0  0  0  0  0  0  0  0
   -4.4476  -10.5174   16.3573 N   0  0  0  0  0  0  0  0  0  0  0  0
   -2.4848  -11.7485   15.4228 C   0  0  0  0  0  0  0  0  0  0  0  0
   -1.2118  -12.5970   15.8155 C   0  0  2  0  0  0  0  0  0  0  0  0
   -0.4718  -12.9962   14.5879 N   0  0  0  0  0  0  0  0  0  0  0  0
   -1.6581  -13.8597   16.6547 C   0  0  2  0  0  0  0  0  0  0  0  0
   -2.4463  -13.3798   17.9374 C   0  0  2  0  0  0  0  0  0  0  0  0
   -2.8548  -14.5249   18.6923 O   0  0  0  0  0  0  0  0  0  0  0  0
   -3.7201  -12.5489   17.5228 C   0  0  1  0  0  0  0  0  0  0  0  0
   -4.4373  -12.0977   18.7062 O   0  0  0  0  0  0  0  0  0  0  0  0
   -3.8278  -11.4746   19.8099 C   0  0  2  0  0  0  0  0  0  0  0  0
   -4.9108  -11.3468   20.9341 C   0  0  2  0  0  0  0  0  0  0  0  0
   -5.3713  -12.6130   21.2820 O   0  0  0  0  0  0  0  0  0  0  0  0
   -6.1004  -10.4209   20.4757 C   0  0  1  0  0  0  0  0  0  0  0  0
   -7.1412  -10.2884   21.5479 N   0  0  0  0  0  0  0  0  0  0  0  0
   -5.5090   -9.0067   20.0912 C   0  0  2  0  0  0  0  0  0  0  0  0
   -6.5460   -8.1171   19.6726 O   0  0  0  0  0  0  0  0  0  0  0  0
   -4.4379   -9.2029   18.9657 C   0  0  2  0  0  0  0  0  0  0  0  0
   -3.3495  -10.1377   19.4146 O   0  0  0  0  0  0  0  0  0  0  0  0
   -3.8053   -7.9012   18.5668 C   0  0  0  0  0  0  0  0  0  0  0  0
   -2.8345   -8.0907   17.5244 O   0  0  0  0  0  0  0  0  0  0  0  0
    2.1046  -15.6194   16.5291 O   0  0  0  0  0  0  0  0  0  0  0  0
    2.3673  -17.1494   18.9432 O   0  0  0  0  0  0  0  0  0  0  0  0
   -9.0774   -8.2710   17.9669 N   0  0  0  0  0  0  0  0  0  0  0  0
   -5.5567  -10.9993   15.6764 C   0  0  0  0  0  0  0  0  0  0  0  0
   -5.6741  -12.1585   15.2946 O   0  0  0  0  0  0  0  0  0  0  0  0
   -6.6232   -9.9058   15.4368 C   0  0  1  0  0  0  0  0  0  0  0  0
   -7.3111   -9.5381   16.7671 C   0  0  0  0  0  0  0  0  0  0  0  0
   -8.4610   -8.5291   16.6671 C   0  0  0  0  0  0  0  0  0  0  0  0
   -5.9899   -8.7487   14.8459 O   0  0  0  0  0  0  0  0  0  0  0  0
  1  2  1  1  0  0  0
  1  3  1  0  0  0  0
  1  8  1  0  0  0  0
  3  4  1  0  0  0  0
  3 32  1  6  0  0  0
  4  5  1  0  0  0  0
  4 33  1  1  0  0  0
  5  6  1  1  0  0  0
  5  7  1  0  0  0  0
  7  8  1  0  0  0  0
  7  9  1  1  0  0  0
  9 10  1  0  0  0  0
 11 12  1  6  0  0  0
 11 13  1  0  0  0  0
 11 19  1  0  0  0  0
 12 35  1  0  0  0  0
 13 14  1  0  0  0  0
 14 15  1  6  0  0  0
 14 16  1  0  0  0  0
 16  2  1  1  0  0  0
 16 17  1  0  0  0  0
 17 18  1  6  0  0  0
 17 19  1  0  0  0  0
 19 20  1  1  0  0  0
 21 20  1  6  0  0  0
 21 22  1  0  0  0  0
 21 29  1  0  0  0  0
 22 23  1  6  0  0  0
 22 24  1  0  0  0  0
 24 25  1  1  0  0  0
 24 26  1  0  0  0  0
 26 27  1  6  0  0  0
 26 28  1  0  0  0  0
 28 29  1  0  0  0  0
 28 30  1  1  0  0  0
 30 31  1  0  0  0  0
 34 39  1  0  0  0  0
 35 36  2  0  0  0  0
 37 35  1  1  0  0  0
 37 38  1  0  0  0  0
 37 40  1  0  0  0  0
 38 39  1  0  0  0  0
M  END
>  <CHROM.1>
-177.37393473,63.45208443,66.98344960,54.41370152,-71.39094077,-171.84449911
-179.40448657,-71.16460148,-176.06197109,178.30804779,-2.98578150,-12.07514723
18.24949584,-0.16053765,0.67700395,-1.47081690

>  <Name>
2g5q_lig

>  <RI>
224

>  <Rbt.Current_Directory>
/home/itssahil/PROJECTS/Mol_Feturizer/New_Systems/rnas/2g5q

>  <Rbt.Executable>
rbdock ($Id: //depot/dev/client3/rdock/2013.1/src/exe/rbdock.cxx#4 $)

>  <Rbt.Library>
libRbt.so (2013.1, Build901 2013/11/27)

>  <Rbt.Parameter_File>
/export/apps/rDock/src/rDock_2013.1_src/data/scripts/dock_solv.prm

>  <Rbt.Receptor>
prm/pocket_docking_8.prm

>  <SCORE>
-11.6941

>  <SCORE.INTER>
-1.5315

>  <SCORE.INTER.CONST>
1

>  <SCORE.INTER.POLAR>
-0.657883

>  <SCORE.INTER.ROT>
10

>  <SCORE.INTER.SOLV>
7.77506

>  <SCORE.INTER.VDW>
-11.6864

>  <SCORE.INTER.norm>
-0.0382876

>  <SCORE.INTRA>
-10.1626

>  <SCORE.INTRA.DIHEDRAL>
-20.3506

>  <SCORE.INTRA.DIHEDRAL.0>
22.5778

>  <SCORE.INTRA.POLAR>
0

>  <SCORE.INTRA.POLAR.0>
0

>  <SCORE.INTRA.REPUL>
0

>  <SCORE.INTRA.REPUL.0>
0

>  <SCORE.INTRA.SOLV>
3.83106

>  <SCORE.INTRA.SOLV.lig_0>
-102.332

>  <SCORE.INTRA.VDW>
-1.90285

>  <SCORE.INTRA.VDW.0>
-5.08747

>  <SCORE.INTRA.norm>
-0.254065

>  <SCORE.RESTR>
0

>  <SCORE.RESTR.CAVITY>
0

>  <SCORE.RESTR.norm>
0

>  <SCORE.SYSTEM>
0

>  <SCORE.SYSTEM.CONST>
0

>  <SCORE.SYSTEM.DIHEDRAL>
0

>  <SCORE.SYSTEM.SOLV>
0

>  <SCORE.SYSTEM.norm>
0

>  <SCORE.heavy>
40

>  <SCORE.norm>
-0.292353

>  <RMSD>
7.781

$$$$
2g5q_lig
 OpenBabel11021811433D
libRbt.so/2013.1/901 2013/11/27
 40 42  0  0  0  0  0  0  0  0999 V2000
   -1.9887   -8.1266   18.7894 C   0  0  2  0  0  0  0  0  0  0  0  0
   -1.5746   -9.2719   18.0779 O   0  0  0  0  0  0  0  0  0  0  0  0
   -2.4952   -8.5648   20.1952 C   0  0  1  0  0  0  0  0  0  0  0  0
   -3.7989   -9.4166   20.1045 C   0  0  2  0  0  0  0  0  0  0  0  0
   -4.8812   -8.5540   19.4049 C   0  0  2  0  0  0  0  0  0  0  0  0
   -6.1080   -9.2975   19.3227 O   0  0  0  0  0  0  0  0  0  0  0  0
   -4.3519   -8.1659   17.9650 C   0  0  2  0  0  0  0  0  0  0  0  0
   -3.0758   -7.4034   18.0786 O   0  0  0  0  0  0  0  0  0  0  0  0
   -5.3374   -7.2997   17.1877 C   0  0  0  0  0  0  0  0  0  0  0  0
   -6.6069   -8.0313   16.8797 N   0  0  0  0  0  0  0  0  0  0  0  0
    1.3864  -10.3106   15.0396 C   0  0  2  0  0  0  0  0  0  0  0  0
    2.2020  -10.2590   13.8322 N   0  0  0  0  0  0  0  0  0  0  0  0
   -0.1519  -10.3844   14.6598 C   0  0  0  0  0  0  0  0  0  0  0  0
   -1.0389  -10.4477   15.9650 C   0  0  2  0  0  0  0  0  0  0  0  0
   -2.4779  -10.5278   15.5951 N   0  0  0  0  0  0  0  0  0  0  0  0
   -0.7454   -9.1814   16.8641 C   0  0  2  0  0  0  0  0  0  0  0  0
    0.7941   -9.1399   17.2176 C   0  0  2  0  0  0  0  0  0  0  0  0
    1.0586   -7.9891   18.0262 O   0  0  0  0  0  0  0  0  0  0  0  0
    1.6597   -9.0613   15.9025 C   0  0  1  0  0  0  0  0  0  0  0  0
    3.0775   -9.0357   16.2305 O   0  0  0  0  0  0  0  0  0  0  0  0
    3.8472   -7.8617   16.3178 C   0  0  2  0  0  0  0  0  0  0  0  0
    5.3517   -8.2756   16.1817 C   0  0  2  0  0  0  0  0  0  0  0  0
    5.5528   -8.9004   14.9546 O   0  0  0  0  0  0  0  0  0  0  0  0
    5.7942   -9.2114   17.3696 C   0  0  1  0  0  0  0  0  0  0  0  0
    7.2356   -9.6097   17.2507 N   0  0  0  0  0  0  0  0  0  0  0  0
    5.5346   -8.4459   18.7276 C   0  0  2  0  0  0  0  0  0  0  0  0
    5.9252   -9.2451   19.8460 O   0  0  0  0  0  0  0  0  0  0  0  0
    4.0179   -8.0632   18.8028 C   0  0  2  0  0  0  0  0  0  0  0  0
    3.6156   -7.2208   17.6245 O   0  0  0  0  0  0  0  0  0  0  0  0
    3.6978   -7.3021   20.0566 C   0  0  0  0  0  0  0  0  0  0  0  0
    3.8576   -8.1266   21.2226 O   0  0  0  0  0  0  0  0  0  0  0  0
   -1.4203   -9.3131   20.8608 O   0  0  0  0  0  0  0  0  0  0  0  0
   -4.2081   -9.7644   21.3730 O   0  0  0  0  0  0  0  0  0  0  0  0
    5.3936   -7.6912   11.2335 N   0  0  0  0  0  0  0  0  0  0  0  0
    2.0419  -11.0763   12.7220 C   0  0  0  0  0  0  0  0  0  0  0  0
    1.1878  -11.9517   12.6349 O   0  0  0  0  0  0  0  0  0  0  0  0
    3.0734  -10.7718   11.6113 C   0  0  1  0  0  0  0  0  0  0  0  0
    3.6124   -9.3356   11.7700 C   0  0  0  0  0  0  0  0  0  0  0  0
    4.7622   -8.9471   10.8333 C   0  0  0  0  0  0  0  0  0  0  0  0
    4.1468  -11.7371   11.6848 O   0  0  0  0  0  0  0  0  0  0  0  0
  1  2  1  6  0  0  0
  1  3  1  0  0  0  0
  1  8  1  0  0  0  0
  3  4  1  0  0  0  0
  3 32  1  6  0  0  0
  4  5  1  0  0  0  0
  4 33  1  1  0  0  0
  5  6  1  6  0  0  0
  5  7  1  0  0  0  0
  7  8  1  0  0  0  0
  7  9  1  1  0  0  0
  9 10  1  0  0  0  0
 11 12  1  6  0  0  0
 11 13  1  0  0  0  0
 11 19  1  0  0  0  0
 12 35  1  0  0  0  0
 13 14  1  0  0  0  0
 14 15  1  6  0  0  0
 14 16  1  0  0  0  0
 16  2  1  1  0  0  0
 16 17  1  0  0  0  0
 17 18  1  1  0  0  0
 17 19  1  0  0  0  0
 19 20  1  1  0  0  0
 21 20  1  1  0  0  0
 21 22  1  0  0  0  0
 21 29  1  0  0  0  0
 22 23  1  6  0  0  0
 22 24  1  0  0  0  0
 24 25  1  6  0  0  0
 24 26  1  0  0  0  0
 26 27  1  1  0  0  0
 26 28  1  0  0  0  0
 28 29  1  0  0  0  0
 28 30  1  1  0  0  0
 30 31  1  0  0  0  0
 34 39  1  0  0  0  0
 35 36  2  0  0  0  0
 37 35  1  1  0  0  0
 37 38  1  0  0  0  0
 37 40  1  0  0  0  0
 38 39  1  0  0  0  0
M  END
>  <CHROM.1>
-164.58864468,-64.98312119,-46.19699006,-152.87452712,143.52431656,-160.30079851
-66.61916028,-22.56289090,173.32064846,-167.95115979,0.96434731,-9.08304327
16.75281633,-2.66811620,-0.05332654,-1.81113102

>  <Name>
2g5q_lig

>  <RI>
2.90231e+07

>  <Rbt.Current_Directory>
/home/itssahil/PROJECTS/Mol_Feturizer/New_Systems/rnas/2g5q

>  <Rbt.Executable>
rbdock ($Id: //depot/dev/client3/rdock/2013.1/src/exe/rbdock.cxx#4 $)

>  <Rbt.Library>
libRbt.so (2013.1, Build901 2013/11/27)

>  <Rbt.Parameter_File>
/export/apps/rDock/src/rDock_2013.1_src/data/scripts/dock_solv.prm

>  <Rbt.Receptor>
prm/pocket_docking_6.prm

>  <SCORE>
-14.505

>  <SCORE.INTER>
-12.2758

>  <SCORE.INTER.CONST>
1

>  <SCORE.INTER.POLAR>
-0.354146

>  <SCORE.INTER.ROT>
10

>  <SCORE.INTER.SOLV>
14.5338

>  <SCORE.INTER.VDW>
-22.1146

>  <SCORE.INTER.norm>
-0.306895

>  <SCORE.INTRA>
-2.22918

>  <SCORE.INTRA.DIHEDRAL>
-8.81654

>  <SCORE.INTRA.DIHEDRAL.0>
22.5778

>  <SCORE.INTRA.POLAR>
0

>  <SCORE.INTRA.POLAR.0>
0

>  <SCORE.INTRA.REPUL>
0

>  <SCORE.INTRA.REPUL.0>
0

>  <SCORE.INTRA.SOLV>
1.0985

>  <SCORE.INTRA.SOLV.lig_0>
-102.332

>  <SCORE.INTRA.VDW>
1.62984

>  <SCORE.INTRA.VDW.0>
-5.08747

>  <SCORE.INTRA.norm>
-0.0557294

>  <SCORE.RESTR>
0

>  <SCORE.RESTR.CAVITY>
0

>  <SCORE.RESTR.norm>
0

>  <SCORE.SYSTEM>
0

>  <SCORE.SYSTEM.CONST>
0

>  <SCORE.SYSTEM.DIHEDRAL>
0

>  <SCORE.SYSTEM.SOLV>
0

>  <SCORE.SYSTEM.norm>
0

>  <SCORE.heavy>
40

>  <SCORE.norm>
-0.362624

>  <RMSD>
7.786

$$$$
2g5q_lig
 OpenBabel11021811433D
libRbt.so/2013.1/901 2013/11/27
 40 42  0  0  0  0  0  0  0  0999 V2000
   -4.3834   -9.7165   16.9959 C   0  0  2  0  0  0  0  0  0  0  0  0
   -3.3636   -8.7421   16.9838 O   0  0  0  0  0  0  0  0  0  0  0  0
   -5.7064   -9.0647   16.4964 C   0  0  1  0  0  0  0  0  0  0  0  0
   -6.2351   -7.9856   17.4912 C   0  0  2  0  0  0  0  0  0  0  0  0
   -6.4773   -8.6781   18.8574 C   0  0  2  0  0  0  0  0  0  0  0  0
   -6.9882   -7.7192   19.7975 O   0  0  0  0  0  0  0  0  0  0  0  0
   -5.1045   -9.2885   19.3545 C   0  0  2  0  0  0  0  0  0  0  0  0
   -4.5932  -10.2730   18.3584 O   0  0  0  0  0  0  0  0  0  0  0  0
   -5.2295  -10.0105   20.6919 C   0  0  0  0  0  0  0  0  0  0  0  0
   -3.8992  -10.4522   21.2183 N   0  0  0  0  0  0  0  0  0  0  0  0
    1.0004   -8.6797   16.8128 C   0  0  2  0  0  0  0  0  0  0  0  0
    2.3979   -8.9706   17.1095 N   0  0  0  0  0  0  0  0  0  0  0  0
    0.2803   -8.0828   18.0939 C   0  0  0  0  0  0  0  0  0  0  0  0
   -1.2323   -7.7595   17.7748 C   0  0  2  0  0  0  0  0  0  0  0  0
   -1.8930   -7.1903   18.9805 N   0  0  0  0  0  0  0  0  0  0  0  0
   -1.9608   -9.0741   17.2859 C   0  0  2  0  0  0  0  0  0  0  0  0
   -1.2140   -9.6403   16.0137 C   0  0  2  0  0  0  0  0  0  0  0  0
   -1.8715  -10.8339   15.5767 O   0  0  0  0  0  0  0  0  0  0  0  0
    0.2885   -9.9705   16.3581 C   0  0  1  0  0  0  0  0  0  0  0  0
    0.9772  -10.4802   15.1815 O   0  0  0  0  0  0  0  0  0  0  0  0
    2.3137  -10.9182   15.1761 C   0  0  2  0  0  0  0  0  0  0  0  0
    2.8227  -10.8543   13.6963 C   0  0  2  0  0  0  0  0  0  0  0  0
    2.7366   -9.5456   13.2311 O   0  0  0  0  0  0  0  0  0  0  0  0
    2.0079  -11.8357   12.7713 C   0  0  1  0  0  0  0  0  0  0  0  0
    2.4912  -11.7851   11.3521 N   0  0  0  0  0  0  0  0  0  0  0  0
    2.1429  -13.2970   13.3575 C   0  0  2  0  0  0  0  0  0  0  0  0
    1.4277  -14.2371   12.5531 O   0  0  0  0  0  0  0  0  0  0  0  0
    1.6176  -13.2936   14.8328 C   0  0  2  0  0  0  0  0  0  0  0  0
    2.3764  -12.3044   15.6727 O   0  0  0  0  0  0  0  0  0  0  0  0
    1.7428  -14.6466   15.4710 C   0  0  0  0  0  0  0  0  0  0  0  0
    3.1046  -15.1052   15.4588 O   0  0  0  0  0  0  0  0  0  0  0  0
   -5.4633   -8.4853   15.1685 O   0  0  0  0  0  0  0  0  0  0  0  0
   -7.4100   -7.4533   17.0078 O   0  0  0  0  0  0  0  0  0  0  0  0
    4.7355   -9.3346   20.7903 N   0  0  0  0  0  0  0  0  0  0  0  0
    3.3402   -8.0383   17.5208 C   0  0  0  0  0  0  0  0  0  0  0  0
    3.1000   -6.8460   17.6757 O   0  0  0  0  0  0  0  0  0  0  0  0
    4.7341   -8.6681   17.7462 C   0  0  1  0  0  0  0  0  0  0  0  0
    5.4712   -7.9283   18.8809 C   0  0  0  0  0  0  0  0  0  0  0  0
    4.7965   -7.9753   20.2567 C   0  0  0  0  0  0  0  0  0  0  0  0
    4.5747  -10.0696   18.0619 O   0  0  0  0  0  0  0  0  0  0  0  0
  1  2  1  1  0  0  0
  1  3  1  0  0  0  0
  1  8  1  0  0  0  0
  3  4  1  0  0  0  0
  3 32  1  6  0  0  0
  4  5  1  0  0  0  0
  4 33  1  6  0  0  0
  5  6  1  1  0  0  0
  5  7  1  0  0  0  0
  7  8  1  0  0  0  0
  7  9  1  1  0  0  0
  9 10  1  0  0  0  0
 11 12  1  1  0  0  0
 11 13  1  0  0  0  0
 11 19  1  0  0  0  0
 12 35  1  0  0  0  0
 13 14  1  0  0  0  0
 14 15  1  1  0  0  0
 14 16  1  0  0  0  0
 16  2  1  6  0  0  0
 16 17  1  0  0  0  0
 17 18  1  1  0  0  0
 17 19  1  0  0  0  0
 19 20  1  6  0  0  0
 21 20  1  6  0  0  0
 21 22  1  0  0  0  0
 21 29  1  0  0  0  0
 22 23  1  6  0  0  0
 22 24  1  0  0  0  0
 24 25  1  6  0  0  0
 24 26  1  0  0  0  0
 26 27  1  6  0  0  0
 26 28  1  0  0  0  0
 28 29  1  0  0  0  0
 28 30  1  1  0  0  0
 30 31  1  0  0  0  0
 34 39  1  0  0  0  0
 35 36  2  0  0  0  0
 37 35  1  1  0  0  0
 37 38  1  0  0  0  0
 37 40  1  0  0  0  0
 38 39  1  0  0  0  0
M  END
>  <CHROM.1>
-174.34241158,-173.83197892,-59.96939931,-156.57557673,63.33335982,-158.61297612
57.80153473,-147.70759289,61.57033747,64.41121403,-0.33377525,-9.89896258
16.78723818,2.75107596,-0.02689449,0.89966572

>  <Name>
2g5q_lig

>  <RI>
9.52566e+06

>  <Rbt.Current_Directory>
/home/itssahil/PROJECTS/Mol_Feturizer/New_Systems/rnas/2g5q

>  <Rbt.Executable>
rbdock ($Id: //depot/dev/client3/rdock/2013.1/src/exe/rbdock.cxx#4 $)

>  <Rbt.Library>
libRbt.so (2013.1, Build901 2013/11/27)

>  <Rbt.Parameter_File>
/export/apps/rDock/src/rDock_2013.1_src/data/scripts/dock_solv.prm

>  <Rbt.Receptor>
prm/pocket_docking_4.prm

>  <SCORE>
-18.5333

>  <SCORE.INTER>
-12.7765

>  <SCORE.INTER.CONST>
1

>  <SCORE.INTER.POLAR>
-1.90949

>  <SCORE.INTER.ROT>
10

>  <SCORE.INTER.SOLV>
14.4585

>  <SCORE.INTER.VDW>
-17.2389

>  <SCORE.INTER.norm>
-0.319413

>  <SCORE.INTRA>
-5.81994

>  <SCORE.INTRA.DIHEDRAL>
-15.9536

>  <SCORE.INTRA.DIHEDRAL.0>
22.5778

>  <SCORE.INTRA.POLAR>
0

>  <SCORE.INTRA.POLAR.0>
0

>  <SCORE.INTRA.REPUL>
0

>  <SCORE.INTRA.REPUL.0>
0

>  <SCORE.INTRA.SOLV>
1.74308

>  <SCORE.INTRA.SOLV.lig_0>
-102.332

>  <SCORE.INTRA.VDW>
1.28534

>  <SCORE.INTRA.VDW.0>
-5.08747

>  <SCORE.INTRA.norm>
-0.145498

>  <SCORE.RESTR>
0.0631625

>  <SCORE.RESTR.CAVITY>
0.0631625

>  <SCORE.RESTR.norm>
0.00157906

>  <SCORE.SYSTEM>
0

>  <SCORE.SYSTEM.CONST>
0

>  <SCORE.SYSTEM.DIHEDRAL>
0

>  <SCORE.SYSTEM.SOLV>
0

>  <SCORE.SYSTEM.norm>
0

>  <SCORE.heavy>
40

>  <SCORE.norm>
-0.463332

>  <RMSD>
7.788

$$$$
2g5q_lig
 OpenBabel11021811433D
libRbt.so/2013.1/901 2013/11/27
 40 42  0  0  0  0  0  0  0  0999 V2000
   -5.0365  -10.0589   16.3846 C   0  0  2  0  0  0  0  0  0  0  0  0
   -3.9164   -9.2415   16.1262 O   0  0  0  0  0  0  0  0  0  0  0  0
   -6.3247   -9.2943   15.9595 C   0  0  1  0  0  0  0  0  0  0  0  0
   -6.5826   -8.0449   16.8574 C   0  0  2  0  0  0  0  0  0  0  0  0
   -6.7251   -8.5347   18.3219 C   0  0  2  0  0  0  0  0  0  0  0  0
   -6.9874   -7.4124   19.1798 O   0  0  0  0  0  0  0  0  0  0  0  0
   -5.3833   -9.2657   18.7333 C   0  0  2  0  0  0  0  0  0  0  0  0
   -5.1311  -10.4197   17.8236 O   0  0  0  0  0  0  0  0  0  0  0  0
   -5.4179   -9.8038   20.1598 C   0  0  0  0  0  0  0  0  0  0  0  0
   -4.1333  -10.4729   20.5391 N   0  0  0  0  0  0  0  0  0  0  0  0
    0.4108   -9.1100   16.7055 C   0  0  2  0  0  0  0  0  0  0  0  0
    1.7411   -9.3783   17.2384 N   0  0  0  0  0  0  0  0  0  0  0  0
   -0.5274   -8.5232   17.8419 C   0  0  0  0  0  0  0  0  0  0  0  0
   -1.9677   -8.2243   17.2670 C   0  0  2  0  0  0  0  0  0  0  0  0
   -2.8340   -7.6642   18.3393 N   0  0  0  0  0  0  0  0  0  0  0  0
   -2.5813   -9.5508   16.6655 C   0  0  2  0  0  0  0  0  0  0  0  0
   -1.6187  -10.1066   15.5424 C   0  0  2  0  0  0  0  0  0  0  0  0
   -2.1730  -11.3110   15.0037 O   0  0  0  0  0  0  0  0  0  0  0  0
   -0.1926  -10.4125   16.1404 C   0  0  1  0  0  0  0  0  0  0  0  0
    0.6954  -10.9125   15.1013 O   0  0  0  0  0  0  0  0  0  0  0  0
    1.1076  -10.1619   13.9856 C   0  0  2  0  0  0  0  0  0  0  0  0
    1.6257  -11.1715   12.9060 C   0  0  2  0  0  0  0  0  0  0  0  0
    0.5998  -12.0437   12.5549 O   0  0  0  0  0  0  0  0  0  0  0  0
    2.8853  -11.9630   13.4251 C   0  0  1  0  0  0  0  0  0  0  0  0
    3.3920  -12.9297   12.3960 N   0  0  0  0  0  0  0  0  0  0  0  0
    4.0051  -10.9165   13.8102 C   0  0  2  0  0  0  0  0  0  0  0  0
    5.1802  -11.5780   14.2831 O   0  0  0  0  0  0  0  0  0  0  0  0
    3.4266   -9.9413   14.8904 C   0  0  2  0  0  0  0  0  0  0  0  0
    2.1925   -9.2477   14.3846 O   0  0  0  0  0  0  0  0  0  0  0  0
    4.4263   -8.8937   15.2864 C   0  0  0  0  0  0  0  0  0  0  0  0
    5.5544   -9.4767   15.9589 O   0  0  0  0  0  0  0  0  0  0  0  0
   -6.1900   -8.9115   14.5476 O   0  0  0  0  0  0  0  0  0  0  0  0
   -7.7375   -7.4163   16.4469 O   0  0  0  0  0  0  0  0  0  0  0  0
    5.5081   -8.0728   20.9382 N   0  0  0  0  0  0  0  0  0  0  0  0
    2.0537  -10.3832   18.1432 C   0  0  0  0  0  0  0  0  0  0  0  0
    1.2312  -11.1648   18.6080 O   0  0  0  0  0  0  0  0  0  0  0  0
    3.5545  -10.3973   18.5143 C   0  0  1  0  0  0  0  0  0  0  0  0
    3.8473   -9.3147   19.5728 C   0  0  0  0  0  0  0  0  0  0  0  0
    5.3283   -9.0686   19.8837 C   0  0  0  0  0  0  0  0  0  0  0  0
    3.9080  -11.7096   19.0066 O   0  0  0  0  0  0  0  0  0  0  0  0
  1  2  1  1  0  0  0
  1  3  1  0  0  0  0
  1  8  1  0  0  0  0
  3  4  1  0  0  0  0
  3 32  1  6  0  0  0
  4  5  1  0  0  0  0
  4 33  1  6  0  0  0
  5  6  1  1  0  0  0
  5  7  1  0  0  0  0
  7  8  1  0  0  0  0
  7  9  1  1  0  0  0
  9 10  1  0  0  0  0
 11 12  1  1  0  0  0
 11 13  1  0  0  0  0
 11 19  1  0  0  0  0
 12 35  1  0  0  0  0
 13 14  1  0  0  0  0
 14 15  1  1  0  0  0
 14 16  1  0  0  0  0
 16  2  1  6  0  0  0
 16 17  1  0  0  0  0
 17 18  1  1  0  0  0
 17 19  1  0  0  0  0
 19 20  1  6  0  0  0
 21 20  1  1  0  0  0
 21 22  1  0  0  0  0
 21 29  1  0  0  0  0
 22 23  1  1  0  0  0
 22 24  1  0  0  0  0
 24 25  1  6  0  0  0
 24 26  1  0  0  0  0
 26 27  1  1  0  0  0
 26 28  1  0  0  0  0
 28 29  1  0  0  0  0
 28 30  1  6  0  0  0
 30 31  1  0  0  0  0
 34 39  1  0  0  0  0
 35 36  2  0  0  0  0
 37 35  1  1  0  0  0
 37 38  1  0  0  0  0
 37 40  1  0  0  0  0
 38 39  1  0  0  0  0
M  END
>  <CHROM.1>
167.09210904,-179.09928967,69.72247098,-133.90377243,-55.01894141,-161.16796770
-65.82595377,80.12802449,-171.16550810,-177.40695267,-0.48090240,-9.82173272
16.62396022,2.95576375,-0.11213828,1.27571692

>  <Name>
2g5q_lig

>  <RI>
9.52566e+06

>  <Rbt.Current_Directory>
/home/itssahil/PROJECTS/Mol_Feturizer/New_Systems/rnas/2g5q

>  <Rbt.Executable>
rbdock ($Id: //depot/dev/client3/rdock/2013.1/src/exe/rbdock.cxx#4 $)

>  <Rbt.Library>
libRbt.so (2013.1, Build901 2013/11/27)

>  <Rbt.Parameter_File>
/export/apps/rDock/src/rDock_2013.1_src/data/scripts/dock_solv.prm

>  <Rbt.Receptor>
prm/pocket_docking_4.prm

>  <SCORE>
-11.0539

>  <SCORE.INTER>
-5.92201

>  <SCORE.INTER.CONST>
1

>  <SCORE.INTER.POLAR>
-1.44322

>  <SCORE.INTER.ROT>
10

>  <SCORE.INTER.SOLV>
13.3088

>  <SCORE.INTER.VDW>
-13.8402

>  <SCORE.INTER.norm>
-0.14805

>  <SCORE.INTRA>
-5.13192

>  <SCORE.INTRA.DIHEDRAL>
-12.0206

>  <SCORE.INTRA.DIHEDRAL.0>
22.5778

>  <SCORE.INTRA.POLAR>
0

>  <SCORE.INTRA.POLAR.0>
0

>  <SCORE.INTRA.REPUL>
0

>  <SCORE.INTRA.REPUL.0>
0

>  <SCORE.INTRA.SOLV>
3.92626

>  <SCORE.INTRA.SOLV.lig_0>
-102.332

>  <SCORE.INTRA.VDW>
-1.08475

>  <SCORE.INTRA.VDW.0>
-5.08747

>  <SCORE.INTRA.norm>
-0.128298

>  <SCORE.RESTR>
0

>  <SCORE.RESTR.CAVITY>
0

>  <SCORE.RESTR.norm>
0

>  <SCORE.SYSTEM>
0

>  <SCORE.SYSTEM.CONST>
0

>  <SCORE.SYSTEM.DIHEDRAL>
0

>  <SCORE.SYSTEM.SOLV>
0

>  <SCORE.SYSTEM.norm>
0

>  <SCORE.heavy>
40

>  <SCORE.norm>
-0.276348

>  <RMSD>
7.790

$$$$
2g5q_lig
 OpenBabel11021811433D
libRbt.so/2013.1/901 2013/11/27
 40 42  0  0  0  0  0  0  0  0999 V2000
    3.9973   -9.5201   12.5865 C   0  0  2  0  0  0  0  0  0  0  0  0
    3.0676  -10.5471   12.3214 O   0  0  0  0  0  0  0  0  0  0  0  0
    4.6727   -9.0966   11.2489 C   0  0  1  0  0  0  0  0  0  0  0  0
    5.5609  -10.2356   10.6595 C   0  0  2  0  0  0  0  0  0  0  0  0
    6.6500  -10.5788   11.7088 C   0  0  2  0  0  0  0  0  0  0  0  0
    7.5054  -11.6112   11.1923 O   0  0  0  0  0  0  0  0  0  0  0  0
    5.9289  -11.0471   13.0372 C   0  0  2  0  0  0  0  0  0  0  0  0
    5.0427   -9.9619   13.5468 O   0  0  0  0  0  0  0  0  0  0  0  0
    6.9112  -11.3987   14.1494 C   0  0  0  0  0  0  0  0  0  0  0  0
    6.2167  -11.9276   15.3659 N   0  0  0  0  0  0  0  0  0  0  0  0
   -0.0385  -12.1276   14.9542 C   0  0  2  0  0  0  0  0  0  0  0  0
   -0.7026  -12.8999   15.9974 N   0  0  0  0  0  0  0  0  0  0  0  0
    0.6239  -13.0993   13.8898 C   0  0  0  0  0  0  0  0  0  0  0  0
    1.3385  -12.2666   12.7537 C   0  0  2  0  0  0  0  0  0  0  0  0
    1.9457  -13.1890   11.7565 N   0  0  0  0  0  0  0  0  0  0  0  0
    2.4268  -11.3196   13.3992 C   0  0  2  0  0  0  0  0  0  0  0  0
    1.7312  -10.3716   14.4549 C   0  0  2  0  0  0  0  0  0  0  0  0
    2.7195   -9.5195   15.0426 O   0  0  0  0  0  0  0  0  0  0  0  0
    1.0382  -11.2219   15.5870 C   0  0  1  0  0  0  0  0  0  0  0  0
    0.3880  -10.3467   16.5511 O   0  0  0  0  0  0  0  0  0  0  0  0
   -0.6013   -9.4033   16.2203 C   0  0  2  0  0  0  0  0  0  0  0  0
   -0.6582   -8.3554   17.3830 C   0  0  2  0  0  0  0  0  0  0  0  0
    0.5817   -7.7369   17.5125 O   0  0  0  0  0  0  0  0  0  0  0  0
   -1.0947   -9.0315   18.7376 C   0  0  1  0  0  0  0  0  0  0  0  0
   -1.1566   -8.0347   19.8569 N   0  0  0  0  0  0  0  0  0  0  0  0
   -2.5017   -9.7170   18.5194 C   0  0  2  0  0  0  0  0  0  0  0  0
   -2.9555  -10.3436   19.7209 O   0  0  0  0  0  0  0  0  0  0  0  0
   -2.3772  -10.7508   17.3496 C   0  0  2  0  0  0  0  0  0  0  0  0
   -1.9021  -10.0836   16.0891 O   0  0  0  0  0  0  0  0  0  0  0  0
   -3.6875  -11.4242   17.0605 C   0  0  0  0  0  0  0  0  0  0  0  0
   -3.5048  -12.5918   16.2430 O   0  0  0  0  0  0  0  0  0  0  0  0
    3.6189   -8.7053   10.3031 O   0  0  0  0  0  0  0  0  0  0  0  0
    6.1422   -9.8034    9.4878 O   0  0  0  0  0  0  0  0  0  0  0  0
   -4.0041  -15.2668   17.2338 N   0  0  0  0  0  0  0  0  0  0  0  0
   -0.0629  -13.7169   16.9191 C   0  0  0  0  0  0  0  0  0  0  0  0
    1.1506  -13.8885   16.9542 O   0  0  0  0  0  0  0  0  0  0  0  0
   -1.0539  -14.4019   17.8882 C   0  0  1  0  0  0  0  0  0  0  0  0
   -1.5638  -15.7225   17.2765 C   0  0  0  0  0  0  0  0  0  0  0  0
   -2.9618  -16.1679   17.7211 C   0  0  0  0  0  0  0  0  0  0  0  0
   -0.3925  -14.6395   19.1514 O   0  0  0  0  0  0  0  0  0  0  0  0
  1  2  1  6  0  0  0
  1  3  1  0  0  0  0
  1  8  1  0  0  0  0
  3  4  1  0  0  0  0
  3 32  1  6  0  0  0
  4  5  1  0  0  0  0
  4 33  1  6  0  0  0
  5  6  1  6  0  0  0
  5  7  1  0  0  0  0
  7  8  1  0  0  0  0
  7  9  1  1  0  0  0
  9 10  1  0  0  0  0
 11 12  1  1  0  0  0
 11 13  1  0  0  0  0
 11 19  1  0  0  0  0
 12 35  1  0  0  0  0
 13 14  1  0  0  0  0
 14 15  1  6  0  0  0
 14 16  1  0  0  0  0
 16  2  1  6  0  0  0
 16 17  1  0  0  0  0
 17 18  1  1  0  0  0
 17 19  1  0  0  0  0
 19 20  1  1  0  0  0
 21 20  1  1  0  0  0
 21 22  1  0  0  0  0
 21 29  1  0  0  0  0
 22 23  1  1  0  0  0
 22 24  1  0  0  0  0
 24 25  1  1  0  0  0
 24 26  1  0  0  0  0
 26 27  1  1  0  0  0
 26 28  1  0  0  0  0
 28 29  1  0  0  0  0
 28 30  1  6  0  0  0
 30 31  1  0  0  0  0
 34 39  1  0  0  0  0
 35 36  2  0  0  0  0
 37 35  1  6  0  0  0
 37 38  1  0  0  0  0
 37 40  1  0  0  0  0
 38 39  1  0  0  0  0
M  END
>  <CHROM.1>
169.56354822,-176.12000573,66.38066215,173.93514438,-61.96011029,-160.05268475
-165.23964082,87.19083543,-151.85418066,67.24258037,1.21559629,-11.28845428
15.18940408,0.06093504,0.69330109,0.18957366

>  <Name>
2g5q_lig

>  <RI>
2.90231e+07

>  <Rbt.Current_Directory>
/home/itssahil/PROJECTS/Mol_Feturizer/New_Systems/rnas/2g5q

>  <Rbt.Executable>
rbdock ($Id: //depot/dev/client3/rdock/2013.1/src/exe/rbdock.cxx#4 $)

>  <Rbt.Library>
libRbt.so (2013.1, Build901 2013/11/27)

>  <Rbt.Parameter_File>
/export/apps/rDock/src/rDock_2013.1_src/data/scripts/dock_solv.prm

>  <Rbt.Receptor>
prm/pocket_docking_6.prm

>  <SCORE>
-16.0848

>  <SCORE.INTER>
-9.33163

>  <SCORE.INTER.CONST>
1

>  <SCORE.INTER.POLAR>
-1.16452

>  <SCORE.INTER.ROT>
10

>  <SCORE.INTER.SOLV>
18.4821

>  <SCORE.INTER.VDW>
-18.7667

>  <SCORE.INTER.norm>
-0.233291

>  <SCORE.INTRA>
-6.76732

>  <SCORE.INTRA.DIHEDRAL>
-15.1602

>  <SCORE.INTRA.DIHEDRAL.0>
22.5778

>  <SCORE.INTRA.POLAR>
0

>  <SCORE.INTRA.POLAR.0>
0

>  <SCORE.INTRA.REPUL>
0.0103649

>  <SCORE.INTRA.REPUL.0>
0

>  <SCORE.INTRA.SOLV>
3.10663

>  <SCORE.INTRA.SOLV.lig_0>
-102.332

>  <SCORE.INTRA.VDW>
-0.792337

>  <SCORE.INTRA.VDW.0>
-5.08747

>  <SCORE.INTRA.norm>
-0.169183

>  <SCORE.RESTR>
0.0141146

>  <SCORE.RESTR.CAVITY>
0.0141146

>  <SCORE.RESTR.norm>
0.000352866

>  <SCORE.SYSTEM>
0

>  <SCORE.SYSTEM.CONST>
0

>  <SCORE.SYSTEM.DIHEDRAL>
0

>  <SCORE.SYSTEM.SOLV>
0

>  <SCORE.SYSTEM.norm>
0

>  <SCORE.heavy>
40

>  <SCORE.norm>
-0.402121

>  <RMSD>
7.790

$$$$
2g5q_lig
 OpenBabel11021811433D
libRbt.so/2013.1/901 2013/11/27
 40 42  0  0  0  0  0  0  0  0999 V2000
   -4.6832   -9.5668   18.1266 C   0  0  2  0  0  0  0  0  0  0  0  0
   -3.6834   -9.0278   17.2904 O   0  0  0  0  0  0  0  0  0  0  0  0
   -4.4818  -11.1081   18.2206 C   0  0  1  0  0  0  0  0  0  0  0  0
   -4.7441  -11.8135   16.8541 C   0  0  2  0  0  0  0  0  0  0  0  0
   -6.2035  -11.5021   16.4321 C   0  0  2  0  0  0  0  0  0  0  0  0
   -6.4921  -12.1553   15.1854 O   0  0  0  0  0  0  0  0  0  0  0  0
   -6.3584   -9.9326   16.3030 C   0  0  2  0  0  0  0  0  0  0  0  0
   -6.0460   -9.2798   17.6064 O   0  0  0  0  0  0  0  0  0  0  0  0
   -7.7681   -9.5097   15.9033 C   0  0  0  0  0  0  0  0  0  0  0  0
   -8.1180   -9.9589   14.5186 N   0  0  0  0  0  0  0  0  0  0  0  0
    0.6179   -8.2907   17.1098 C   0  0  2  0  0  0  0  0  0  0  0  0
    2.0302   -8.2633   17.4707 N   0  0  0  0  0  0  0  0  0  0  0  0
   -0.2414   -7.5197   18.1975 C   0  0  0  0  0  0  0  0  0  0  0  0
   -1.7715   -7.5407   17.8066 C   0  0  2  0  0  0  0  0  0  0  0  0
   -2.5646   -6.8052   18.8284 N   0  0  0  0  0  0  0  0  0  0  0  0
   -2.2596   -9.0374   17.6670 C   0  0  2  0  0  0  0  0  0  0  0  0
   -1.3792   -9.7725   16.5801 C   0  0  2  0  0  0  0  0  0  0  0  0
   -1.8188  -11.1291   16.4599 O   0  0  0  0  0  0  0  0  0  0  0  0
    0.1409   -9.7535   16.9971 C   0  0  1  0  0  0  0  0  0  0  0  0
    0.9509  -10.4203   15.9884 O   0  0  0  0  0  0  0  0  0  0  0  0
    0.9848  -10.0513   14.6316 C   0  0  2  0  0  0  0  0  0  0  0  0
    0.8398  -11.3611   13.7851 C   0  0  2  0  0  0  0  0  0  0  0  0
   -0.3675  -11.9814   14.0917 O   0  0  0  0  0  0  0  0  0  0  0  0
    2.0528  -12.3358   14.0325 C   0  0  1  0  0  0  0  0  0  0  0  0
    1.9254  -13.5918   13.2223 N   0  0  0  0  0  0  0  0  0  0  0  0
    3.3870  -11.5693   13.6719 C   0  0  2  0  0  0  0  0  0  0  0  0
    4.5265  -12.4085   13.8700 O   0  0  0  0  0  0  0  0  0  0  0  0
    3.4725  -10.2757   14.5503 C   0  0  2  0  0  0  0  0  0  0  0  0
    2.2717   -9.3973   14.3344 O   0  0  0  0  0  0  0  0  0  0  0  0
    4.7036   -9.4740   14.2416 C   0  0  0  0  0  0  0  0  0  0  0  0
    4.3755   -8.2632   13.5406 O   0  0  0  0  0  0  0  0  0  0  0  0
   -3.1161  -11.3673   18.6955 O   0  0  0  0  0  0  0  0  0  0  0  0
   -4.5652  -13.1717   16.9980 O   0  0  0  0  0  0  0  0  0  0  0  0
    5.3289  -11.0486   19.6769 N   0  0  0  0  0  0  0  0  0  0  0  0
    2.5355   -8.4805   18.7450 C   0  0  0  0  0  0  0  0  0  0  0  0
    1.8386   -8.7159   19.7259 O   0  0  0  0  0  0  0  0  0  0  0  0
    4.0773   -8.3756   18.7942 C   0  0  1  0  0  0  0  0  0  0  0  0
    4.7094   -9.4475   17.8833 C   0  0  0  0  0  0  0  0  0  0  0  0
    4.6368  -10.8892   18.3997 C   0  0  0  0  0  0  0  0  0  0  0  0
    4.4746   -7.0483   18.3821 O   0  0  0  0  0  0  0  0  0  0  0  0
  1  2  1  6  0  0  0
  1  3  1  0  0  0  0
  1  8  1  0  0  0  0
  3  4  1  0  0  0  0
  3 32  1  6  0  0  0
  4  5  1  0  0  0  0
  4 33  1  1  0  0  0
  5  6  1  6  0  0  0
  5  7  1  0  0  0  0
  7  8  1  0  0  0  0
  7  9  1  1  0  0  0
  9 10  1  0  0  0  0
 11 12  1  1  0  0  0
 11 13  1  0  0  0  0
 11 19  1  0  0  0  0
 12 35  1  0  0  0  0
 13 14  1  0  0  0  0
 14 15  1  1  0  0  0
 14 16  1  0  0  0  0
 16  2  1  6  0  0  0
 16 17  1  0  0  0  0
 17 18  1  1  0  0  0
 17 19  1  0  0  0  0
 19 20  1  6  0  0  0
 21 20  1  1  0  0  0
 21 22  1  0  0  0  0
 21 29  1  0  0  0  0
 22 23  1  1  0  0  0
 22 24  1  0  0  0  0
 24 25  1  6  0  0  0
 24 26  1  0  0  0  0
 26 27  1  1  0  0  0
 26 28  1  0  0  0  0
 28 29  1  0  0  0  0
 28 30  1  6  0  0  0
 30 31  1  0  0  0  0
 34 39  1  0  0  0  0
 35 36  2  0  0  0  0
 37 35  1  6  0  0  0
 37 38  1  0  0  0  0
 37 40  1  0  0  0  0
 38 39  1  0  0  0  0
M  END
>  <CHROM.1>
-66.62896198,-66.24040201,43.49298420,-116.68791349,-62.59854487,-132.95431609
108.55531779,-61.44081983,-72.84289958,-60.63583086,-0.42065919,-10.05698382
16.50843050,3.13794331,-0.07682263,-2.22146227

>  <Name>
2g5q_lig

>  <RI>
0

>  <Rbt.Current_Directory>
/home/itssahil/PROJECTS/Mol_Feturizer/New_Systems/rnas/2g5q

>  <Rbt.Executable>
rbdock ($Id: //depot/dev/client3/rdock/2013.1/src/exe/rbdock.cxx#4 $)

>  <Rbt.Library>
libRbt.so (2013.1, Build901 2013/11/27)

>  <Rbt.Parameter_File>
/export/apps/rDock/src/rDock_2013.1_src/data/scripts/dock_solv.prm

>  <Rbt.Receptor>
prm/pocket_docking_3.prm

>  <SCORE>
-12.5066

>  <SCORE.INTER>
-13.7367

>  <SCORE.INTER.CONST>
1

>  <SCORE.INTER.POLAR>
-3.00663

>  <SCORE.INTER.ROT>
10

>  <SCORE.INTER.SOLV>
13.5901

>  <SCORE.INTER.VDW>
-13.9324

>  <SCORE.INTER.norm>
-0.343418

>  <SCORE.INTRA>
1.15846

>  <SCORE.INTRA.DIHEDRAL>
-2.26142

>  <SCORE.INTRA.DIHEDRAL.0>
22.5778

>  <SCORE.INTRA.POLAR>
0

>  <SCORE.INTRA.POLAR.0>
0

>  <SCORE.INTRA.REPUL>
0

>  <SCORE.INTRA.REPUL.0>
0

>  <SCORE.INTRA.SOLV>
2.99121

>  <SCORE.INTRA.SOLV.lig_0>
-102.332

>  <SCORE.INTRA.VDW>
0.793565

>  <SCORE.INTRA.VDW.0>
-5.08747

>  <SCORE.INTRA.norm>
0.0289615

>  <SCORE.RESTR>
0.071622

>  <SCORE.RESTR.CAVITY>
0.071622

>  <SCORE.RESTR.norm>
0.00179055

>  <SCORE.SYSTEM>
0

>  <SCORE.SYSTEM.CONST>
0

>  <SCORE.SYSTEM.DIHEDRAL>
0

>  <SCORE.SYSTEM.SOLV>
0

>  <SCORE.SYSTEM.norm>
0

>  <SCORE.heavy>
40

>  <SCORE.norm>
-0.312666

>  <RMSD>
7.791

$$$$
2g5q_lig
 OpenBabel11021811433D
libRbt.so/2013.1/901 2013/11/27
 40 42  0  0  0  0  0  0  0  0999 V2000
    3.0719   -2.4738   22.2994 C   0  0  2  0  0  0  0  0  0  0  0  0
    4.0035   -3.3467   21.6997 O   0  0  0  0  0  0  0  0  0  0  0  0
    3.2348   -1.0579   21.6722 C   0  0  1  0  0  0  0  0  0  0  0  0
    4.6087   -0.4149   22.0361 C   0  0  2  0  0  0  0  0  0  0  0  0
    4.6908   -0.3142   23.5814 C   0  0  2  0  0  0  0  0  0  0  0  0
    5.9361    0.2962   23.9570 O   0  0  0  0  0  0  0  0  0  0  0  0
    4.5672   -1.7735   24.1809 C   0  0  2  0  0  0  0  0  0  0  0  0
    3.2715   -2.3861   23.7700 O   0  0  0  0  0  0  0  0  0  0  0  0
    4.6216   -1.7920   25.7048 C   0  0  0  0  0  0  0  0  0  0  0  0
    3.5017   -1.0087   26.3165 N   0  0  0  0  0  0  0  0  0  0  0  0
    4.9734   -7.5909   21.3487 C   0  0  2  0  0  0  0  0  0  0  0  0
    4.8642   -9.0429   21.4241 N   0  0  0  0  0  0  0  0  0  0  0  0
    4.8505   -6.9556   22.7968 C   0  0  0  0  0  0  0  0  0  0  0  0
    4.9755   -5.3830   22.7206 C   0  0  2  0  0  0  0  0  0  0  0  0
    4.8699   -4.8005   24.0857 N   0  0  0  0  0  0  0  0  0  0  0  0
    3.8563   -4.8108   21.7625 C   0  0  2  0  0  0  0  0  0  0  0  0
    4.0082   -5.4688   20.3339 C   0  0  2  0  0  0  0  0  0  0  0  0
    2.9900   -4.9541   19.4700 O   0  0  0  0  0  0  0  0  0  0  0  0
    3.8649   -7.0357   20.4306 C   0  0  1  0  0  0  0  0  0  0  0  0
    4.0175   -7.6401   19.1154 O   0  0  0  0  0  0  0  0  0  0  0  0
    3.7490   -8.9910   18.8307 C   0  0  2  0  0  0  0  0  0  0  0  0
    4.0886   -9.2289   17.3203 C   0  0  2  0  0  0  0  0  0  0  0  0
    5.4311   -8.9405   17.0947 O   0  0  0  0  0  0  0  0  0  0  0  0
    3.1615   -8.3635   16.3854 C   0  0  1  0  0  0  0  0  0  0  0  0
    3.4761   -8.5879   14.9359 N   0  0  0  0  0  0  0  0  0  0  0  0
    1.6574   -8.7352   16.6964 C   0  0  2  0  0  0  0  0  0  0  0  0
    0.7654   -7.9842   15.8703 O   0  0  0  0  0  0  0  0  0  0  0  0
    1.3826   -8.4741   18.2159 C   0  0  2  0  0  0  0  0  0  0  0  0
    2.3230   -9.2693   19.0779 O   0  0  0  0  0  0  0  0  0  0  0  0
   -0.0239   -8.8349   18.5968 C   0  0  0  0  0  0  0  0  0  0  0  0
   -0.3106   -8.4563   19.9531 O   0  0  0  0  0  0  0  0  0  0  0  0
    3.0759   -1.1765   20.2166 O   0  0  0  0  0  0  0  0  0  0  0  0
    4.6933    0.8373   21.4682 O   0  0  0  0  0  0  0  0  0  0  0  0
    5.0589  -14.2038   22.9817 N   0  0  0  0  0  0  0  0  0  0  0  0
    5.8916   -9.9060   21.7784 C   0  0  0  0  0  0  0  0  0  0  0  0
    7.0256   -9.5379   22.0648 O   0  0  0  0  0  0  0  0  0  0  0  0
    5.4517  -11.3880   21.7554 C   0  0  1  0  0  0  0  0  0  0  0  0
    6.5154  -12.2658   22.4454 C   0  0  0  0  0  0  0  0  0  0  0  0
    6.3017  -13.7803   22.3398 C   0  0  0  0  0  0  0  0  0  0  0  0
    4.1722  -11.5122   22.4162 O   0  0  0  0  0  0  0  0  0  0  0  0
  1  2  1  6  0  0  0
  1  3  1  0  0  0  0
  1  8  1  0  0  0  0
  3  4  1  0  0  0  0
  3 32  1  6  0  0  0
  4  5  1  0  0  0  0
  4 33  1  6  0  0  0
  5  6  1  6  0  0  0
  5  7  1  0  0  0  0
  7  8  1  0  0  0  0
  7  9  1  1  0  0  0
  9 10  1  0  0  0  0
 11 12  1  1  0  0  0
 11 13  1  0  0  0  0
 11 19  1  0  0  0  0
 12 35  1  0  0  0  0
 13 14  1  0  0  0  0
 14 15  1  1  0  0  0
 14 16  1  0  0  0  0
 16  2  1  6  0  0  0
 16 17  1  0  0  0  0
 17 18  1  6  0  0  0
 17 19  1  0  0  0  0
 19 20  1  6  0  0  0
 21 20  1  6  0  0  0
 21 22  1  0  0  0  0
 21 29  1  0  0  0  0
 22 23  1  1  0  0  0
 22 24  1  0  0  0  0
 24 25  1  6  0  0  0
 24 26  1  0  0  0  0
 26 27  1  6  0  0  0
 26 28  1  0  0  0  0
 28 29  1  0  0  0  0
 28 30  1  1  0  0  0
 30 31  1  0  0  0  0
 34 39  1  0  0  0  0
 35 36  2  0  0  0  0
 37 35  1  1  0  0  0
 37 38  1  0  0  0  0
 37 40  1  0  0  0  0
 38 39  1  0  0  0  0
M  END
>  <CHROM.1>
-161.43204499,60.99453117,-80.51848078,-109.36540860,70.37389159,-178.12294412
-173.66078851,-167.60275927,-172.43493537,-62.29254341,3.94901533,-6.39357851
20.96381288,1.50596656,-1.06787955,0.31631313

>  <Name>
2g5q_lig

>  <RI>
2.47104e+07

>  <Rbt.Current_Directory>
/home/itssahil/PROJECTS/Mol_Feturizer/New_Systems/rnas/2g5q

>  <Rbt.Executable>
rbdock ($Id: //depot/dev/client3/rdock/2013.1/src/exe/rbdock.cxx#4 $)

>  <Rbt.Library>
libRbt.so (2013.1, Build901 2013/11/27)

>  <Rbt.Parameter_File>
/export/apps/rDock/src/rDock_2013.1_src/data/scripts/dock_solv.prm

>  <Rbt.Receptor>
prm/pocket_docking_7.prm

>  <SCORE>
-21.6545

>  <SCORE.INTER>
-17.977

>  <SCORE.INTER.CONST>
1

>  <SCORE.INTER.POLAR>
-1.51225

>  <SCORE.INTER.ROT>
10

>  <SCORE.INTER.SOLV>
20.71

>  <SCORE.INTER.VDW>
-24.1139

>  <SCORE.INTER.norm>
-0.449426

>  <SCORE.INTRA>
-3.67746

>  <SCORE.INTRA.DIHEDRAL>
-12.1316

>  <SCORE.INTRA.DIHEDRAL.0>
22.5778

>  <SCORE.INTRA.POLAR>
0

>  <SCORE.INTRA.POLAR.0>
0

>  <SCORE.INTRA.REPUL>
0

>  <SCORE.INTRA.REPUL.0>
0

>  <SCORE.INTRA.SOLV>
4.07928

>  <SCORE.INTRA.SOLV.lig_0>
-102.332

>  <SCORE.INTRA.VDW>
0.348717

>  <SCORE.INTRA.VDW.0>
-5.08747

>  <SCORE.INTRA.norm>
-0.0919364

>  <SCORE.RESTR>
0

>  <SCORE.RESTR.CAVITY>
0

>  <SCORE.RESTR.norm>
0

>  <SCORE.SYSTEM>
0

>  <SCORE.SYSTEM.CONST>
0

>  <SCORE.SYSTEM.DIHEDRAL>
0

>  <SCORE.SYSTEM.SOLV>
0

>  <SCORE.SYSTEM.norm>
0

>  <SCORE.heavy>
40

>  <SCORE.norm>
-0.541362

>  <RMSD>
7.797

$$$$
2g5q_lig
 OpenBabel11021811433D
libRbt.so/2013.1/901 2013/11/27
 40 42  0  0  0  0  0  0  0  0999 V2000
   -3.7363   -8.5451   16.8977 C   0  0  2  0  0  0  0  0  0  0  0  0
   -3.5513   -9.8918   17.2738 O   0  0  0  0  0  0  0  0  0  0  0  0
   -4.2889   -7.7539   18.1198 C   0  0  1  0  0  0  0  0  0  0  0  0
   -5.7277   -8.2145   18.5087 C   0  0  2  0  0  0  0  0  0  0  0  0
   -6.6467   -7.9871   17.2804 C   0  0  2  0  0  0  0  0  0  0  0  0
   -7.9899   -8.3789   17.6071 O   0  0  0  0  0  0  0  0  0  0  0  0
   -6.0814   -8.8400   16.0733 C   0  0  2  0  0  0  0  0  0  0  0  0
   -4.6857   -8.4194   15.7605 O   0  0  0  0  0  0  0  0  0  0  0  0
   -6.9059   -8.6798   14.8004 C   0  0  0  0  0  0  0  0  0  0  0  0
   -8.2724   -9.2762   14.9375 N   0  0  0  0  0  0  0  0  0  0  0  0
   -0.3919  -12.8325   16.6046 C   0  0  2  0  0  0  0  0  0  0  0  0
    0.5304  -13.7389   15.9310 N   0  0  0  0  0  0  0  0  0  0  0  0
   -1.8916  -13.2416   16.2892 C   0  0  0  0  0  0  0  0  0  0  0  0
   -2.8942  -12.2665   17.0229 C   0  0  2  0  0  0  0  0  0  0  0  0
   -4.2965  -12.6675   16.7282 N   0  0  0  0  0  0  0  0  0  0  0  0
   -2.6128  -10.7797   16.5666 C   0  0  2  0  0  0  0  0  0  0  0  0
   -1.1112  -10.4109   16.8924 C   0  0  2  0  0  0  0  0  0  0  0  0
   -0.8570   -9.0665   16.4727 O   0  0  0  0  0  0  0  0  0  0  0  0
   -0.1282  -11.3857   16.1386 C   0  0  1  0  0  0  0  0  0  0  0  0
    1.2537  -11.0516   16.4502 O   0  0  0  0  0  0  0  0  0  0  0  0
    2.3668  -11.7630   15.9674 C   0  0  2  0  0  0  0  0  0  0  0  0
    3.6285  -11.2349   16.7305 C   0  0  2  0  0  0  0  0  0  0  0  0
    3.4687  -11.4480   18.0964 O   0  0  0  0  0  0  0  0  0  0  0  0
    3.8823   -9.7103   16.4241 C   0  0  1  0  0  0  0  0  0  0  0  0
    5.0918   -9.1961   17.1472 N   0  0  0  0  0  0  0  0  0  0  0  0
    4.0484   -9.5390   14.8619 C   0  0  2  0  0  0  0  0  0  0  0  0
    4.2894   -8.1721   14.5217 O   0  0  0  0  0  0  0  0  0  0  0  0
    2.7579  -10.0817   14.1602 C   0  0  2  0  0  0  0  0  0  0  0  0
    2.5128  -11.5203   14.5210 O   0  0  0  0  0  0  0  0  0  0  0  0
    2.8534   -9.9812   12.6654 C   0  0  0  0  0  0  0  0  0  0  0  0
    4.0299  -10.6424   12.1721 O   0  0  0  0  0  0  0  0  0  0  0  0
   -3.3570   -7.9276   19.2421 O   0  0  0  0  0  0  0  0  0  0  0  0
   -6.1706   -7.4750   19.5832 O   0  0  0  0  0  0  0  0  0  0  0  0
    1.5742  -12.7946   12.1246 N   0  0  0  0  0  0  0  0  0  0  0  0
    0.4161  -14.1658   14.6154 C   0  0  0  0  0  0  0  0  0  0  0  0
   -0.4920  -13.8287   13.8637 O   0  0  0  0  0  0  0  0  0  0  0  0
    1.5538  -15.1298   14.2068 C   0  0  1  0  0  0  0  0  0  0  0  0
    2.7598  -14.3288   13.6756 C   0  0  0  0  0  0  0  0  0  0  0  0
    2.6298  -13.7984   12.2430 C   0  0  0  0  0  0  0  0  0  0  0  0
    1.9291  -15.9304   15.3502 O   0  0  0  0  0  0  0  0  0  0  0  0
  1  2  1  1  0  0  0
  1  3  1  0  0  0  0
  1  8  1  0  0  0  0
  3  4  1  0  0  0  0
  3 32  1  1  0  0  0
  4  5  1  0  0  0  0
  4 33  1  1  0  0  0
  5  6  1  1  0  0  0
  5  7  1  0  0  0  0
  7  8  1  0  0  0  0
  7  9  1  6  0  0  0
  9 10  1  0  0  0  0
 11 12  1  6  0  0  0
 11 13  1  0  0  0  0
 11 19  1  0  0  0  0
 12 35  1  0  0  0  0
 13 14  1  0  0  0  0
 14 15  1  6  0  0  0
 14 16  1  0  0  0  0
 16  2  1  1  0  0  0
 16 17  1  0  0  0  0
 17 18  1  6  0  0  0
 17 19  1  0  0  0  0
 19 20  1  1  0  0  0
 21 20  1  1  0  0  0
 21 22  1  0  0  0  0
 21 29  1  0  0  0  0
 22 23  1  1  0  0  0
 22 24  1  0  0  0  0
 24 25  1  1  0  0  0
 24 26  1  0  0  0  0
 26 27  1  1  0  0  0
 26 28  1  0  0  0  0
 28 29  1  0  0  0  0
 28 30  1  6  0  0  0
 30 31  1  0  0  0  0
 34 39  1  0  0  0  0
 35 36  2  0  0  0  0
 37 35  1  1  0  0  0
 37 38  1  0  0  0  0
 37 40  1  0  0  0  0
 38 39  1  0  0  0  0
M  END
>  <CHROM.1>
-156.95169645,-67.55665373,44.63657493,-167.31461042,58.44549376,-170.38947969
55.03174055,-88.12396163,-77.69218824,65.72293591,-0.76027022,-10.77845957
15.86867910,-2.71331636,-0.11057227,-2.69889887

>  <Name>
2g5q_lig

>  <RI>
2.90231e+07

>  <Rbt.Current_Directory>
/home/itssahil/PROJECTS/Mol_Feturizer/New_Systems/rnas/2g5q

>  <Rbt.Executable>
rbdock ($Id: //depot/dev/client3/rdock/2013.1/src/exe/rbdock.cxx#4 $)

>  <Rbt.Library>
libRbt.so (2013.1, Build901 2013/11/27)

>  <Rbt.Parameter_File>
/export/apps/rDock/src/rDock_2013.1_src/data/scripts/dock_solv.prm

>  <Rbt.Receptor>
prm/pocket_docking_6.prm

>  <SCORE>
-13.1856

>  <SCORE.INTER>
-8.78838

>  <SCORE.INTER.CONST>
1

>  <SCORE.INTER.POLAR>
-1.25762

>  <SCORE.INTER.ROT>
10

>  <SCORE.INTER.SOLV>
12.1109

>  <SCORE.INTER.VDW>
-15.9705

>  <SCORE.INTER.norm>
-0.21971

>  <SCORE.INTRA>
-4.39724

>  <SCORE.INTRA.DIHEDRAL>
-15.8855

>  <SCORE.INTRA.DIHEDRAL.0>
22.5778

>  <SCORE.INTRA.POLAR>
0

>  <SCORE.INTRA.POLAR.0>
0

>  <SCORE.INTRA.REPUL>
0

>  <SCORE.INTRA.REPUL.0>
0

>  <SCORE.INTRA.SOLV>
7.34239

>  <SCORE.INTRA.SOLV.lig_0>
-102.332

>  <SCORE.INTRA.VDW>
-0.125657

>  <SCORE.INTRA.VDW.0>
-5.08747

>  <SCORE.INTRA.norm>
-0.109931

>  <SCORE.RESTR>
0

>  <SCORE.RESTR.CAVITY>
0

>  <SCORE.RESTR.norm>
0

>  <SCORE.SYSTEM>
0

>  <SCORE.SYSTEM.CONST>
0

>  <SCORE.SYSTEM.DIHEDRAL>
0

>  <SCORE.SYSTEM.SOLV>
0

>  <SCORE.SYSTEM.norm>
0

>  <SCORE.heavy>
40

>  <SCORE.norm>
-0.329641

>  <RMSD>
7.798

$$$$
2g5q_lig
 OpenBabel11021811433D
libRbt.so/2013.1/901 2013/11/27
 40 42  0  0  0  0  0  0  0  0999 V2000
   -4.4101   -8.6931   17.7109 C   0  0  2  0  0  0  0  0  0  0  0  0
   -3.4372   -8.7506   16.6912 O   0  0  0  0  0  0  0  0  0  0  0  0
   -5.0141  -10.1145   17.9092 C   0  0  1  0  0  0  0  0  0  0  0  0
   -5.8322  -10.5779   16.6644 C   0  0  2  0  0  0  0  0  0  0  0  0
   -6.9732   -9.5523   16.4382 C   0  0  2  0  0  0  0  0  0  0  0  0
   -7.7660   -9.9577   15.3105 O   0  0  0  0  0  0  0  0  0  0  0  0
   -6.3216   -8.1308   16.1958 C   0  0  2  0  0  0  0  0  0  0  0  0
   -5.4992   -7.7383   17.3758 O   0  0  0  0  0  0  0  0  0  0  0  0
   -7.3598   -7.0358   15.9745 C   0  0  0  0  0  0  0  0  0  0  0  0
   -8.3165   -6.9287   17.1212 N   0  0  0  0  0  0  0  0  0  0  0  0
    0.8625   -9.4521   16.3792 C   0  0  2  0  0  0  0  0  0  0  0  0
    2.1875  -10.0219   16.5929 N   0  0  0  0  0  0  0  0  0  0  0  0
    0.2800   -8.8910   17.7436 C   0  0  0  0  0  0  0  0  0  0  0  0
   -1.1525   -8.2663   17.5153 C   0  0  2  0  0  0  0  0  0  0  0  0
   -1.6827   -7.7339   18.7996 N   0  0  0  0  0  0  0  0  0  0  0  0
   -2.1146   -9.3620   16.9055 C   0  0  2  0  0  0  0  0  0  0  0  0
   -1.5000   -9.8991   15.5525 C   0  0  2  0  0  0  0  0  0  0  0  0
   -2.3695  -10.8955   15.0055 O   0  0  0  0  0  0  0  0  0  0  0  0
   -0.0785  -10.5317   15.8055 C   0  0  1  0  0  0  0  0  0  0  0  0
    0.4905  -11.0143   14.5558 O   0  0  0  0  0  0  0  0  0  0  0  0
   -0.1614  -11.9029   13.6819 C   0  0  2  0  0  0  0  0  0  0  0  0
    0.0570  -13.3514   14.2362 C   0  0  2  0  0  0  0  0  0  0  0  0
   -0.4798  -13.4451   15.5166 O   0  0  0  0  0  0  0  0  0  0  0  0
    1.5849  -13.7363   14.2363 C   0  0  1  0  0  0  0  0  0  0  0  0
    1.8041  -15.1243   14.7614 N   0  0  0  0  0  0  0  0  0  0  0  0
    2.1303  -13.6034   12.7591 C   0  0  2  0  0  0  0  0  0  0  0  0
    3.5156  -13.9483   12.6941 O   0  0  0  0  0  0  0  0  0  0  0  0
    1.8845  -12.1374   12.2662 C   0  0  2  0  0  0  0  0  0  0  0  0
    0.4252  -11.7833   12.3352 O   0  0  0  0  0  0  0  0  0  0  0  0
    2.3502  -11.9403   10.8527 C   0  0  0  0  0  0  0  0  0  0  0  0
    3.3614  -10.9224   10.7737 O   0  0  0  0  0  0  0  0  0  0  0  0
   -3.9160  -11.0471   18.1969 O   0  0  0  0  0  0  0  0  0  0  0  0
   -6.3528  -11.8315   16.8990 O   0  0  0  0  0  0  0  0  0  0  0  0
    4.9335   -9.0600   19.7941 N   0  0  0  0  0  0  0  0  0  0  0  0
    3.2719   -9.8693   15.7404 C   0  0  0  0  0  0  0  0  0  0  0  0
    3.2335   -9.2345   14.6921 O   0  0  0  0  0  0  0  0  0  0  0  0
    4.5323  -10.6047   16.2513 C   0  0  1  0  0  0  0  0  0  0  0  0
    5.1398   -9.8438   17.4472 C   0  0  0  0  0  0  0  0  0  0  0  0
    4.2906   -9.8191   18.7234 C   0  0  0  0  0  0  0  0  0  0  0  0
    4.1736  -11.9538   16.6262 O   0  0  0  0  0  0  0  0  0  0  0  0
  1  2  1  6  0  0  0
  1  3  1  0  0  0  0
  1  8  1  0  0  0  0
  3  4  1  0  0  0  0
  3 32  1  6  0  0  0
  4  5  1  0  0  0  0
  4 33  1  1  0  0  0
  5  6  1  6  0  0  0
  5  7  1  0  0  0  0
  7  8  1  0  0  0  0
  7  9  1  1  0  0  0
  9 10  1  0  0  0  0
 11 12  1  1  0  0  0
 11 13  1  0  0  0  0
 11 19  1  0  0  0  0
 12 35  1  0  0  0  0
 13 14  1  0  0  0  0
 14 15  1  1  0  0  0
 14 16  1  0  0  0  0
 16  2  1  6  0  0  0
 16 17  1  0  0  0  0
 17 18  1  1  0  0  0
 17 19  1  0  0  0  0
 19 20  1  6  0  0  0
 21 20  1  1  0  0  0
 21 22  1  0  0  0  0
 21 29  1  0  0  0  0
 22 23  1  1  0  0  0
 22 24  1  0  0  0  0
 24 25  1  6  0  0  0
 24 26  1  0  0  0  0
 26 27  1  1  0  0  0
 26 28  1  0  0  0  0
 28 29  1  0  0  0  0
 28 30  1  6  0  0  0
 30 31  1  0  0  0  0
 34 39  1  0  0  0  0
 35 36  2  0  0  0  0
 37 35  1  1  0  0  0
 37 38  1  0  0  0  0
 37 40  1  0  0  0  0
 38 39  1  0  0  0  0
M  END
>  <CHROM.1>
-74.05476708,57.33724276,-138.83919501,-86.10344394,-173.10810940,-81.91432943
-120.20856092,-73.60084885,66.79243648,-179.08501553,-0.76828056,-10.48794815
15.74240003,-2.79314349,0.09062715,-2.21548888

>  <Name>
2g5q_lig

>  <RI>
9.52566e+06

>  <Rbt.Current_Directory>
/home/itssahil/PROJECTS/Mol_Feturizer/New_Systems/rnas/2g5q

>  <Rbt.Executable>
rbdock ($Id: //depot/dev/client3/rdock/2013.1/src/exe/rbdock.cxx#4 $)

>  <Rbt.Library>
libRbt.so (2013.1, Build901 2013/11/27)

>  <Rbt.Parameter_File>
/export/apps/rDock/src/rDock_2013.1_src/data/scripts/dock_solv.prm

>  <Rbt.Receptor>
prm/pocket_docking_4.prm

>  <SCORE>
-13.5457

>  <SCORE.INTER>
-10.396

>  <SCORE.INTER.CONST>
1

>  <SCORE.INTER.POLAR>
-0.848528

>  <SCORE.INTER.ROT>
10

>  <SCORE.INTER.SOLV>
12.2242

>  <SCORE.INTER.VDW>
-18.4436

>  <SCORE.INTER.norm>
-0.259901

>  <SCORE.INTRA>
-3.14971

>  <SCORE.INTRA.DIHEDRAL>
-9.05172

>  <SCORE.INTRA.DIHEDRAL.0>
22.5778

>  <SCORE.INTRA.POLAR>
0

>  <SCORE.INTRA.POLAR.0>
0

>  <SCORE.INTRA.REPUL>
0

>  <SCORE.INTRA.REPUL.0>
0

>  <SCORE.INTRA.SOLV>
2.11776

>  <SCORE.INTRA.SOLV.lig_0>
-102.332

>  <SCORE.INTRA.VDW>
0.317264

>  <SCORE.INTRA.VDW.0>
-5.08747

>  <SCORE.INTRA.norm>
-0.0787428

>  <SCORE.RESTR>
0

>  <SCORE.RESTR.CAVITY>
0

>  <SCORE.RESTR.norm>
0

>  <SCORE.SYSTEM>
0

>  <SCORE.SYSTEM.CONST>
0

>  <SCORE.SYSTEM.DIHEDRAL>
0

>  <SCORE.SYSTEM.SOLV>
0

>  <SCORE.SYSTEM.norm>
0

>  <SCORE.heavy>
40

>  <SCORE.norm>
-0.338644

>  <RMSD>
7.822

$$$$
2g5q_lig
 OpenBabel11021811433D
libRbt.so/2013.1/901 2013/11/27
 40 42  0  0  0  0  0  0  0  0999 V2000
   -3.8857  -10.6583   16.2556 C   0  0  2  0  0  0  0  0  0  0  0  0
   -3.0221   -9.5673   16.4864 O   0  0  0  0  0  0  0  0  0  0  0  0
   -5.3544  -10.1412   16.2392 C   0  0  1  0  0  0  0  0  0  0  0  0
   -5.8044   -9.6227   17.6400 C   0  0  2  0  0  0  0  0  0  0  0  0
   -5.6754  -10.7974   18.6443 C   0  0  2  0  0  0  0  0  0  0  0  0
   -6.1038  -10.3651   19.9458 O   0  0  0  0  0  0  0  0  0  0  0  0
   -4.1641  -11.2662   18.6678 C   0  0  2  0  0  0  0  0  0  0  0  0
   -3.7434  -11.7013   17.3053 O   0  0  0  0  0  0  0  0  0  0  0  0
   -3.9234  -12.4342   19.6182 C   0  0  0  0  0  0  0  0  0  0  0  0
   -4.1716  -12.0573   21.0458 N   0  0  0  0  0  0  0  0  0  0  0  0
    1.2774   -8.8217   16.2962 C   0  0  2  0  0  0  0  0  0  0  0  0
    2.7132   -8.9600   16.5083 N   0  0  0  0  0  0  0  0  0  0  0  0
    0.5332   -8.6347   17.6844 C   0  0  0  0  0  0  0  0  0  0  0  0
   -1.0220   -8.4773   17.4586 C   0  0  2  0  0  0  0  0  0  0  0  0
   -1.7066   -8.2915   18.7666 N   0  0  0  0  0  0  0  0  0  0  0  0
   -1.5750   -9.7455   16.6946 C   0  0  2  0  0  0  0  0  0  0  0  0
   -0.8083   -9.9010   15.3217 C   0  0  2  0  0  0  0  0  0  0  0  0
   -1.3062  -11.0535   14.6346 O   0  0  0  0  0  0  0  0  0  0  0  0
    0.7389  -10.0721   15.5706 C   0  0  1  0  0  0  0  0  0  0  0  0
    1.4439  -10.2028   14.3041 O   0  0  0  0  0  0  0  0  0  0  0  0
    1.2246  -11.2411   13.3810 C   0  0  2  0  0  0  0  0  0  0  0  0
    1.7827  -12.5595   14.0162 C   0  0  2  0  0  0  0  0  0  0  0  0
    1.1158  -12.8191   15.2097 O   0  0  0  0  0  0  0  0  0  0  0  0
    3.3381  -12.4650   14.2490 C   0  0  1  0  0  0  0  0  0  0  0  0
    3.8831  -13.7253   14.8531 N   0  0  0  0  0  0  0  0  0  0  0  0
    4.0304  -12.1642   12.8606 C   0  0  2  0  0  0  0  0  0  0  0  0
    5.4491  -12.0743   13.0072 O   0  0  0  0  0  0  0  0  0  0  0  0
    3.4323  -10.8378   12.2816 C   0  0  2  0  0  0  0  0  0  0  0  0
    1.9404  -10.9413   12.1281 O   0  0  0  0  0  0  0  0  0  0  0  0
    4.0208  -10.5002   10.9424 C   0  0  0  0  0  0  0  0  0  0  0  0
    3.4994   -9.2584   10.4414 O   0  0  0  0  0  0  0  0  0  0  0  0
   -5.4604   -9.0834   15.2253 O   0  0  0  0  0  0  0  0  0  0  0  0
   -7.1108   -9.1915   17.5709 O   0  0  0  0  0  0  0  0  0  0  0  0
    7.2016  -10.6613   17.4374 N   0  0  0  0  0  0  0  0  0  0  0  0
    3.5333   -8.0015   17.0871 C   0  0  0  0  0  0  0  0  0  0  0  0
    3.1362   -6.9114   17.4838 O   0  0  0  0  0  0  0  0  0  0  0  0
    5.0097   -8.4545   17.1607 C   0  0  1  0  0  0  0  0  0  0  0  0
    5.1907   -9.4840   18.2945 C   0  0  0  0  0  0  0  0  0  0  0  0
    6.6319   -9.9300   18.5672 C   0  0  0  0  0  0  0  0  0  0  0  0
    5.3962   -9.0167   15.8864 O   0  0  0  0  0  0  0  0  0  0  0  0
  1  2  1  1  0  0  0
  1  3  1  0  0  0  0
  1  8  1  0  0  0  0
  3  4  1  0  0  0  0
  3 32  1  6  0  0  0
  4  5  1  0  0  0  0
  4 33  1  6  0  0  0
  5  6  1  1  0  0  0
  5  7  1  0  0  0  0
  7  8  1  0  0  0  0
  7  9  1  1  0  0  0
  9 10  1  0  0  0  0
 11 12  1  1  0  0  0
 11 13  1  0  0  0  0
 11 19  1  0  0  0  0
 12 35  1  0  0  0  0
 13 14  1  0  0  0  0
 14 15  1  1  0  0  0
 14 16  1  0  0  0  0
 16  2  1  6  0  0  0
 16 17  1  0  0  0  0
 17 18  1  1  0  0  0
 17 19  1  0  0  0  0
 19 20  1  6  0  0  0
 21 20  1  1  0  0  0
 21 22  1  0  0  0  0
 21 29  1  0  0  0  0
 22 23  1  1  0  0  0
 22 24  1  0  0  0  0
 24 25  1  6  0  0  0
 24 26  1  0  0  0  0
 26 27  1  1  0  0  0
 26 28  1  0  0  0  0
 28 29  1  0  0  0  0
 28 30  1  6  0  0  0
 30 31  1  0  0  0  0
 34 39  1  0  0  0  0
 35 36  2  0  0  0  0
 37 35  1  6  0  0  0
 37 38  1  0  0  0  0
 37 40  1  0  0  0  0
 38 39  1  0  0  0  0
M  END
>  <CHROM.1>
173.67195312,-64.80014926,-61.23175378,-158.21040983,179.21033775,-69.75264095
-178.01182189,-75.60104146,-174.75420146,-65.09057105,0.27219626,-10.30008370
16.05083415,2.79977696,0.09193362,1.27511974

>  <Name>
2g5q_lig

>  <RI>
9.52566e+06

>  <Rbt.Current_Directory>
/home/itssahil/PROJECTS/Mol_Feturizer/New_Systems/rnas/2g5q

>  <Rbt.Executable>
rbdock ($Id: //depot/dev/client3/rdock/2013.1/src/exe/rbdock.cxx#4 $)

>  <Rbt.Library>
libRbt.so (2013.1, Build901 2013/11/27)

>  <Rbt.Parameter_File>
/export/apps/rDock/src/rDock_2013.1_src/data/scripts/dock_solv.prm

>  <Rbt.Receptor>
prm/pocket_docking_4.prm

>  <SCORE>
-14.7453

>  <SCORE.INTER>
-7.37413

>  <SCORE.INTER.CONST>
1

>  <SCORE.INTER.POLAR>
-1.00505

>  <SCORE.INTER.ROT>
10

>  <SCORE.INTER.SOLV>
8.98994

>  <SCORE.INTER.VDW>
-14.8293

>  <SCORE.INTER.norm>
-0.184353

>  <SCORE.INTRA>
-7.37115

>  <SCORE.INTRA.DIHEDRAL>
-18.4645

>  <SCORE.INTRA.DIHEDRAL.0>
22.5778

>  <SCORE.INTRA.POLAR>
0

>  <SCORE.INTRA.POLAR.0>
0

>  <SCORE.INTRA.REPUL>
0

>  <SCORE.INTRA.REPUL.0>
0

>  <SCORE.INTRA.SOLV>
1.92082

>  <SCORE.INTRA.SOLV.lig_0>
-102.332

>  <SCORE.INTRA.VDW>
0.900688

>  <SCORE.INTRA.VDW.0>
-5.08747

>  <SCORE.INTRA.norm>
-0.184279

>  <SCORE.RESTR>
0

>  <SCORE.RESTR.CAVITY>
0

>  <SCORE.RESTR.norm>
0

>  <SCORE.SYSTEM>
0

>  <SCORE.SYSTEM.CONST>
0

>  <SCORE.SYSTEM.DIHEDRAL>
0

>  <SCORE.SYSTEM.SOLV>
0

>  <SCORE.SYSTEM.norm>
0

>  <SCORE.heavy>
40

>  <SCORE.norm>
-0.368632

>  <RMSD>
7.826

$$$$
2g5q_lig
 OpenBabel11021811433D
libRbt.so/2013.1/901 2013/11/27
 40 42  0  0  0  0  0  0  0  0999 V2000
   -4.9154  -11.1125   15.4780 C   0  0  2  0  0  0  0  0  0  0  0  0
   -4.4198   -9.8415   15.8364 O   0  0  0  0  0  0  0  0  0  0  0  0
   -6.3586  -11.2660   16.0422 C   0  0  1  0  0  0  0  0  0  0  0  0
   -6.3724  -11.3068   17.6016 C   0  0  2  0  0  0  0  0  0  0  0  0
   -5.5046  -12.5105   18.0521 C   0  0  2  0  0  0  0  0  0  0  0  0
   -5.5109  -12.5963   19.4863 O   0  0  0  0  0  0  0  0  0  0  0  0
   -4.0370  -12.2983   17.4999 C   0  0  2  0  0  0  0  0  0  0  0  0
   -4.0599  -12.2047   16.0121 O   0  0  0  0  0  0  0  0  0  0  0  0
   -3.0951  -13.4377   17.8743 C   0  0  0  0  0  0  0  0  0  0  0  0
   -3.0008  -14.4674   16.7915 N   0  0  0  0  0  0  0  0  0  0  0  0
   -0.5358   -8.2540   17.0496 C   0  0  2  0  0  0  0  0  0  0  0  0
    0.7010   -8.0508   17.7944 N   0  0  0  0  0  0  0  0  0  0  0  0
   -1.7893   -7.9976   17.9871 C   0  0  0  0  0  0  0  0  0  0  0  0
   -3.1315   -8.2097   17.1821 C   0  0  2  0  0  0  0  0  0  0  0  0
   -4.2987   -7.9554   18.0692 N   0  0  0  0  0  0  0  0  0  0  0  0
   -3.1661   -9.6751   16.5912 C   0  0  2  0  0  0  0  0  0  0  0  0
   -1.9023   -9.8939   15.6682 C   0  0  2  0  0  0  0  0  0  0  0  0
   -1.9325  -11.2234   15.1395 O   0  0  0  0  0  0  0  0  0  0  0  0
   -0.5749   -9.6928   16.4944 C   0  0  1  0  0  0  0  0  0  0  0  0
    0.5873   -9.8827   15.6391 O   0  0  0  0  0  0  0  0  0  0  0  0
    0.6710  -10.8521   14.6234 C   0  0  2  0  0  0  0  0  0  0  0  0
    0.9696  -12.2275   15.3107 C   0  0  2  0  0  0  0  0  0  0  0  0
   -0.0577  -12.5372   16.1968 O   0  0  0  0  0  0  0  0  0  0  0  0
    2.3619  -12.2049   16.0479 C   0  0  1  0  0  0  0  0  0  0  0  0
    2.6593  -13.5199   16.7058 N   0  0  0  0  0  0  0  0  0  0  0  0
    3.4782  -11.8428   14.9895 C   0  0  2  0  0  0  0  0  0  0  0  0
    4.7698  -11.8142   15.6003 O   0  0  0  0  0  0  0  0  0  0  0  0
    3.1233  -10.4614   14.3425 C   0  0  2  0  0  0  0  0  0  0  0  0
    1.7647  -10.5004   13.7003 O   0  0  0  0  0  0  0  0  0  0  0  0
    4.1258  -10.0619   13.2990 C   0  0  0  0  0  0  0  0  0  0  0  0
    3.8604   -8.7411   12.7991 O   0  0  0  0  0  0  0  0  0  0  0  0
   -7.1734  -10.1535   15.5355 O   0  0  0  0  0  0  0  0  0  0  0  0
   -7.6681  -11.4565   18.0445 O   0  0  0  0  0  0  0  0  0  0  0  0
    4.4660  -11.5339   20.2695 N   0  0  0  0  0  0  0  0  0  0  0  0
    1.0946   -8.7803   18.9076 C   0  0  0  0  0  0  0  0  0  0  0  0
    0.4317   -9.6862   19.4007 O   0  0  0  0  0  0  0  0  0  0  0  0
    2.4568   -8.3115   19.4690 C   0  0  1  0  0  0  0  0  0  0  0  0
    3.1168   -9.4496   20.2734 C   0  0  0  0  0  0  0  0  0  0  0  0
    3.7011  -10.6001   19.4456 C   0  0  0  0  0  0  0  0  0  0  0  0
    3.3026   -7.8962   18.3729 O   0  0  0  0  0  0  0  0  0  0  0  0
  1  2  1  1  0  0  0
  1  3  1  0  0  0  0
  1  8  1  0  0  0  0
  3  4  1  0  0  0  0
  3 32  1  1  0  0  0
  4  5  1  0  0  0  0
  4 33  1  6  0  0  0
  5  6  1  1  0  0  0
  5  7  1  0  0  0  0
  7  8  1  0  0  0  0
  7  9  1  6  0  0  0
  9 10  1  0  0  0  0
 11 12  1  1  0  0  0
 11 13  1  0  0  0  0
 11 19  1  0  0  0  0
 12 35  1  0  0  0  0
 13 14  1  0  0  0  0
 14 15  1  1  0  0  0
 14 16  1  0  0  0  0
 16  2  1  6  0  0  0
 16 17  1  0  0  0  0
 17 18  1  1  0  0  0
 17 19  1  0  0  0  0
 19 20  1  6  0  0  0
 21 20  1  1  0  0  0
 21 22  1  0  0  0  0
 21 29  1  0  0  0  0
 22 23  1  1  0  0  0
 22 24  1  0  0  0  0
 24 25  1  6  0  0  0
 24 26  1  0  0  0  0
 26 27  1  1  0  0  0
 26 28  1  0  0  0  0
 28 29  1  0  0  0  0
 28 30  1  6  0  0  0
 30 31  1  0  0  0  0
 34 39  1  0  0  0  0
 35 36  2  0  0  0  0
 37 35  1  6  0  0  0
 37 38  1  0  0  0  0
 37 40  1  0  0  0  0
 38 39  1  0  0  0  0
M  END
>  <CHROM.1>
123.53963382,94.92240701,61.58811986,-163.46688004,-157.39435873,-78.34720843
-174.72581382,-156.59624358,73.73108763,171.99027305,-0.80444023,-10.62052857
16.77126920,3.12089610,0.12301380,1.14689349

>  <Name>
2g5q_lig

>  <RI>
0

>  <Rbt.Current_Directory>
/home/itssahil/PROJECTS/Mol_Feturizer/New_Systems/rnas/2g5q

>  <Rbt.Executable>
rbdock ($Id: //depot/dev/client3/rdock/2013.1/src/exe/rbdock.cxx#4 $)

>  <Rbt.Library>
libRbt.so (2013.1, Build901 2013/11/27)

>  <Rbt.Parameter_File>
/export/apps/rDock/src/rDock_2013.1_src/data/scripts/dock_solv.prm

>  <Rbt.Receptor>
prm/pocket_docking_3.prm

>  <SCORE>
-4.93217

>  <SCORE.INTER>
-8.14661

>  <SCORE.INTER.CONST>
1

>  <SCORE.INTER.POLAR>
-2.45166

>  <SCORE.INTER.ROT>
10

>  <SCORE.INTER.SOLV>
10.5807

>  <SCORE.INTER.VDW>
-11.0525

>  <SCORE.INTER.norm>
-0.203665

>  <SCORE.INTRA>
1.98998

>  <SCORE.INTRA.DIHEDRAL>
-4.71912

>  <SCORE.INTRA.DIHEDRAL.0>
22.5778

>  <SCORE.INTRA.POLAR>
0

>  <SCORE.INTRA.POLAR.0>
0

>  <SCORE.INTRA.REPUL>
0.0169912

>  <SCORE.INTRA.REPUL.0>
0

>  <SCORE.INTRA.SOLV>
2.99693

>  <SCORE.INTRA.SOLV.lig_0>
-102.332

>  <SCORE.INTRA.VDW>
2.76612

>  <SCORE.INTRA.VDW.0>
-5.08747

>  <SCORE.INTRA.norm>
0.0497495

>  <SCORE.RESTR>
1.22445

>  <SCORE.RESTR.CAVITY>
1.22445

>  <SCORE.RESTR.norm>
0.0306112

>  <SCORE.SYSTEM>
0

>  <SCORE.SYSTEM.CONST>
0

>  <SCORE.SYSTEM.DIHEDRAL>
0

>  <SCORE.SYSTEM.SOLV>
0

>  <SCORE.SYSTEM.norm>
0

>  <SCORE.heavy>
40

>  <SCORE.norm>
-0.123304

>  <RMSD>
7.841

$$$$
2g5q_lig
 OpenBabel11021811433D
libRbt.so/2013.1/901 2013/11/27
 40 42  0  0  0  0  0  0  0  0999 V2000
    2.2818   -2.2548   22.3553 C   0  0  2  0  0  0  0  0  0  0  0  0
    2.7245   -2.9691   21.2224 O   0  0  0  0  0  0  0  0  0  0  0  0
    1.2591   -1.1730   21.8986 C   0  0  1  0  0  0  0  0  0  0  0  0
    1.9308   -0.0697   21.0239 C   0  0  2  0  0  0  0  0  0  0  0  0
    3.0481    0.5924   21.8713 C   0  0  2  0  0  0  0  0  0  0  0  0
    3.6775    1.6331   21.1063 O   0  0  0  0  0  0  0  0  0  0  0  0
    4.0907   -0.5262   22.2786 C   0  0  2  0  0  0  0  0  0  0  0  0
    3.4109   -1.5962   23.0634 O   0  0  0  0  0  0  0  0  0  0  0  0
    5.2331    0.0144   23.1320 C   0  0  0  0  0  0  0  0  0  0  0  0
    6.2814   -1.0230   23.3897 N   0  0  0  0  0  0  0  0  0  0  0  0
    5.2751   -6.5002   20.9018 C   0  0  2  0  0  0  0  0  0  0  0  0
    5.7445   -7.8774   20.9960 N   0  0  0  0  0  0  0  0  0  0  0  0
    4.9323   -5.9375   22.3446 C   0  0  0  0  0  0  0  0  0  0  0  0
    4.4301   -4.4432   22.2478 C   0  0  2  0  0  0  0  0  0  0  0  0
    4.1228   -3.9239   23.6079 N   0  0  0  0  0  0  0  0  0  0  0  0
    3.1636   -4.3725   21.3050 C   0  0  2  0  0  0  0  0  0  0  0  0
    3.5423   -4.9443   19.8814 C   0  0  2  0  0  0  0  0  0  0  0  0
    2.3924   -4.8851   19.0315 O   0  0  0  0  0  0  0  0  0  0  0  0
    4.0256   -6.4401   19.9989 C   0  0  1  0  0  0  0  0  0  0  0  0
    4.3853   -6.9603   18.6881 O   0  0  0  0  0  0  0  0  0  0  0  0
    4.7116   -8.3046   18.4338 C   0  0  2  0  0  0  0  0  0  0  0  0
    4.8960   -8.4582   16.8860 C   0  0  2  0  0  0  0  0  0  0  0  0
    5.9179   -7.6182   16.4540 O   0  0  0  0  0  0  0  0  0  0  0  0
    3.5536   -8.1524   16.1198 C   0  0  1  0  0  0  0  0  0  0  0  0
    3.7189   -8.3013   14.6363 N   0  0  0  0  0  0  0  0  0  0  0  0
    2.4389   -9.1333   16.6607 C   0  0  2  0  0  0  0  0  0  0  0  0
    1.1946   -8.9078   15.9950 O   0  0  0  0  0  0  0  0  0  0  0  0
    2.3026   -8.9297   18.2075 C   0  0  2  0  0  0  0  0  0  0  0  0
    3.6146   -9.1711   18.9004 O   0  0  0  0  0  0  0  0  0  0  0  0
    1.2793   -9.8533   18.8021 C   0  0  0  0  0  0  0  0  0  0  0  0
    1.1851   -9.6806   20.2255 O   0  0  0  0  0  0  0  0  0  0  0  0
    0.1758   -1.8418   21.1655 O   0  0  0  0  0  0  0  0  0  0  0  0
    0.9864    0.8647   20.6602 O   0  0  0  0  0  0  0  0  0  0  0  0
    6.4864  -12.5436   18.5014 N   0  0  0  0  0  0  0  0  0  0  0  0
    5.0800   -8.9072   21.6474 C   0  0  0  0  0  0  0  0  0  0  0  0
    4.0110   -8.7692   22.2318 O   0  0  0  0  0  0  0  0  0  0  0  0
    5.8474  -10.2471   21.5692 C   0  0  1  0  0  0  0  0  0  0  0  0
    5.8574  -10.7665   20.1172 C   0  0  0  0  0  0  0  0  0  0  0  0
    6.4540  -12.1638   19.9123 C   0  0  0  0  0  0  0  0  0  0  0  0
    7.1940  -10.0503   22.0563 O   0  0  0  0  0  0  0  0  0  0  0  0
  1  2  1  6  0  0  0
  1  3  1  0  0  0  0
  1  8  1  0  0  0  0
  3  4  1  0  0  0  0
  3 32  1  6  0  0  0
  4  5  1  0  0  0  0
  4 33  1  1  0  0  0
  5  6  1  6  0  0  0
  5  7  1  0  0  0  0
  7  8  1  0  0  0  0
  7  9  1  1  0  0  0
  9 10  1  0  0  0  0
 11 12  1  1  0  0  0
 11 13  1  0  0  0  0
 11 19  1  0  0  0  0
 12 35  1  0  0  0  0
 13 14  1  0  0  0  0
 14 15  1  1  0  0  0
 14 16  1  0  0  0  0
 16  2  1  6  0  0  0
 16 17  1  0  0  0  0
 17 18  1  6  0  0  0
 17 19  1  0  0  0  0
 19 20  1  6  0  0  0
 21 20  1  6  0  0  0
 21 22  1  0  0  0  0
 21 29  1  0  0  0  0
 22 23  1  6  0  0  0
 22 24  1  0  0  0  0
 24 25  1  6  0  0  0
 24 26  1  0  0  0  0
 26 27  1  6  0  0  0
 26 28  1  0  0  0  0
 28 29  1  0  0  0  0
 28 30  1  1  0  0  0
 30 31  1  0  0  0  0
 34 39  1  0  0  0  0
 35 36  2  0  0  0  0
 37 35  1  6  0  0  0
 37 38  1  0  0  0  0
 37 40  1  0  0  0  0
 38 39  1  0  0  0  0
M  END
>  <CHROM.1>
-151.21980904,-174.11570877,52.47289351,-62.42829879,67.93974011,174.62884090
178.62026181,-67.95239029,-173.67836466,-176.98837797,3.79385496,-5.85061065
20.22905950,-1.80649525,0.86693609,-2.61770007

>  <Name>
2g5q_lig

>  <RI>
224

>  <Rbt.Current_Directory>
/home/itssahil/PROJECTS/Mol_Feturizer/New_Systems/rnas/2g5q

>  <Rbt.Executable>
rbdock ($Id: //depot/dev/client3/rdock/2013.1/src/exe/rbdock.cxx#4 $)

>  <Rbt.Library>
libRbt.so (2013.1, Build901 2013/11/27)

>  <Rbt.Parameter_File>
/export/apps/rDock/src/rDock_2013.1_src/data/scripts/dock_solv.prm

>  <Rbt.Receptor>
prm/pocket_docking_8.prm

>  <SCORE>
-26.5439

>  <SCORE.INTER>
-20.046

>  <SCORE.INTER.CONST>
1

>  <SCORE.INTER.POLAR>
-2.11396

>  <SCORE.INTER.ROT>
10

>  <SCORE.INTER.SOLV>
20.5807

>  <SCORE.INTER.VDW>
-23.4443

>  <SCORE.INTER.norm>
-0.501149

>  <SCORE.INTRA>
-6.49799

>  <SCORE.INTRA.DIHEDRAL>
-17.4984

>  <SCORE.INTRA.DIHEDRAL.0>
22.5778

>  <SCORE.INTRA.POLAR>
0

>  <SCORE.INTRA.POLAR.0>
0

>  <SCORE.INTRA.REPUL>
0

>  <SCORE.INTRA.REPUL.0>
0

>  <SCORE.INTRA.SOLV>
3.40314

>  <SCORE.INTRA.SOLV.lig_0>
-102.332

>  <SCORE.INTRA.VDW>
0.549649

>  <SCORE.INTRA.VDW.0>
-5.08747

>  <SCORE.INTRA.norm>
-0.16245

>  <SCORE.RESTR>
0

>  <SCORE.RESTR.CAVITY>
0

>  <SCORE.RESTR.norm>
0

>  <SCORE.SYSTEM>
0

>  <SCORE.SYSTEM.CONST>
0

>  <SCORE.SYSTEM.DIHEDRAL>
0

>  <SCORE.SYSTEM.SOLV>
0

>  <SCORE.SYSTEM.norm>
0

>  <SCORE.heavy>
40

>  <SCORE.norm>
-0.663599

>  <RMSD>
7.844

$$$$
2g5q_lig
 OpenBabel11021811433D
libRbt.so/2013.1/901 2013/11/27
 40 42  0  0  0  0  0  0  0  0999 V2000
   -4.2155   -9.6338   16.9689 C   0  0  2  0  0  0  0  0  0  0  0  0
   -3.1450   -8.7244   16.8406 O   0  0  0  0  0  0  0  0  0  0  0  0
   -5.5351   -8.9174   16.5563 C   0  0  1  0  0  0  0  0  0  0  0  0
   -5.9153   -7.7790   17.5529 C   0  0  2  0  0  0  0  0  0  0  0  0
   -6.0832   -8.4148   18.9573 C   0  0  2  0  0  0  0  0  0  0  0  0
   -6.4573   -7.3991   19.9021 O   0  0  0  0  0  0  0  0  0  0  0  0
   -4.7120   -9.0930   19.3621 C   0  0  2  0  0  0  0  0  0  0  0  0
   -4.3437  -10.1359   18.3623 O   0  0  0  0  0  0  0  0  0  0  0  0
   -4.7675   -9.7662   20.7293 C   0  0  0  0  0  0  0  0  0  0  0  0
   -5.8073  -10.8421   20.7839 N   0  0  0  0  0  0  0  0  0  0  0  0
    1.2043   -8.9136   16.4873 C   0  0  2  0  0  0  0  0  0  0  0  0
    2.5962   -9.2646   16.7428 N   0  0  0  0  0  0  0  0  0  0  0  0
    0.5742   -8.2074   17.7601 C   0  0  0  0  0  0  0  0  0  0  0  0
   -0.9318   -7.8189   17.4851 C   0  0  2  0  0  0  0  0  0  0  0  0
   -1.5075   -7.1477   18.6818 N   0  0  0  0  0  0  0  0  0  0  0  0
   -1.7499   -9.1163   17.1036 C   0  0  2  0  0  0  0  0  0  0  0  0
   -1.0909   -9.7930   15.8368 C   0  0  2  0  0  0  0  0  0  0  0  0
   -1.8294  -10.9708   15.4970 O   0  0  0  0  0  0  0  0  0  0  0  0
    0.4056  -10.1863   16.1378 C   0  0  1  0  0  0  0  0  0  0  0  0
    1.0138  -10.7981   14.9655 O   0  0  0  0  0  0  0  0  0  0  0  0
    2.2408  -11.4854   14.9797 C   0  0  2  0  0  0  0  0  0  0  0  0
    2.6246  -11.7915   13.4923 C   0  0  2  0  0  0  0  0  0  0  0  0
    2.7426  -10.5975   12.7875 O   0  0  0  0  0  0  0  0  0  0  0  0
    1.5664  -12.7429   12.8158 C   0  0  1  0  0  0  0  0  0  0  0  0
    1.9278  -13.0458   11.3917 N   0  0  0  0  0  0  0  0  0  0  0  0
    1.4784  -14.0718   13.6664 C   0  0  2  0  0  0  0  0  0  0  0  0
    0.5357  -14.9813   13.0952 O   0  0  0  0  0  0  0  0  0  0  0  0
    1.0906  -13.6984   15.1370 C   0  0  2  0  0  0  0  0  0  0  0  0
    2.0882  -12.7438   15.7315 O   0  0  0  0  0  0  0  0  0  0  0  0
    1.0175  -14.9117   16.0182 C   0  0  0  0  0  0  0  0  0  0  0  0
   -0.0559  -15.7807   15.6213 O   0  0  0  0  0  0  0  0  0  0  0  0
   -5.3696   -8.3934   15.1938 O   0  0  0  0  0  0  0  0  0  0  0  0
   -7.0931   -7.1904   17.1483 O   0  0  0  0  0  0  0  0  0  0  0  0
    7.3380  -11.5314   16.9842 N   0  0  0  0  0  0  0  0  0  0  0  0
    3.6374   -9.1225   15.8361 C   0  0  0  0  0  0  0  0  0  0  0  0
    3.4987   -8.6860   14.6988 O   0  0  0  0  0  0  0  0  0  0  0  0
    4.9919   -9.5929   16.4145 C   0  0  1  0  0  0  0  0  0  0  0  0
    4.9023  -11.0747   16.8321 C   0  0  0  0  0  0  0  0  0  0  0  0
    6.0602  -11.5973   17.6903 C   0  0  0  0  0  0  0  0  0  0  0  0
    6.0238   -9.3979   15.4213 O   0  0  0  0  0  0  0  0  0  0  0  0
  1  2  1  1  0  0  0
  1  3  1  0  0  0  0
  1  8  1  0  0  0  0
  3  4  1  0  0  0  0
  3 32  1  6  0  0  0
  4  5  1  0  0  0  0
  4 33  1  6  0  0  0
  5  6  1  1  0  0  0
  5  7  1  0  0  0  0
  7  8  1  0  0  0  0
  7  9  1  1  0  0  0
  9 10  1  0  0  0  0
 11 12  1  1  0  0  0
 11 13  1  0  0  0  0
 11 19  1  0  0  0  0
 12 35  1  0  0  0  0
 13 14  1  0  0  0  0
 14 15  1  1  0  0  0
 14 16  1  0  0  0  0
 16  2  1  6  0  0  0
 16 17  1  0  0  0  0
 17 18  1  1  0  0  0
 17 19  1  0  0  0  0
 19 20  1  6  0  0  0
 21 20  1  6  0  0  0
 21 22  1  0  0  0  0
 21 29  1  0  0  0  0
 22 23  1  6  0  0  0
 22 24  1  0  0  0  0
 24 25  1  6  0  0  0
 24 26  1  0  0  0  0
 26 27  1  6  0  0  0
 26 28  1  0  0  0  0
 28 29  1  0  0  0  0
 28 30  1  1  0  0  0
 30 31  1  0  0  0  0
 34 39  1  0  0  0  0
 35 36  2  0  0  0  0
 37 35  1  6  0  0  0
 37 38  1  0  0  0  0
 37 40  1  0  0  0  0
 38 39  1  0  0  0  0
M  END
>  <CHROM.1>
-177.40653453,59.82177712,-138.85808885,-155.68054516,73.23377095,-171.72006526
-65.92045286,58.81065320,-167.46606872,-62.29921841,-0.30279937,-10.39675538
16.32297641,2.68303753,0.10316092,0.60863033

>  <Name>
2g5q_lig

>  <RI>
0

>  <Rbt.Current_Directory>
/home/itssahil/PROJECTS/Mol_Feturizer/New_Systems/rnas/2g5q

>  <Rbt.Executable>
rbdock ($Id: //depot/dev/client3/rdock/2013.1/src/exe/rbdock.cxx#4 $)

>  <Rbt.Library>
libRbt.so (2013.1, Build901 2013/11/27)

>  <Rbt.Parameter_File>
/export/apps/rDock/src/rDock_2013.1_src/data/scripts/dock_solv.prm

>  <Rbt.Receptor>
prm/pocket_docking_5.prm

>  <SCORE>
-15.9549

>  <SCORE.INTER>
-9.05985

>  <SCORE.INTER.CONST>
1

>  <SCORE.INTER.POLAR>
-1.68922

>  <SCORE.INTER.ROT>
10

>  <SCORE.INTER.SOLV>
16.801

>  <SCORE.INTER.VDW>
-16.2762

>  <SCORE.INTER.norm>
-0.226496

>  <SCORE.INTRA>
-6.89503

>  <SCORE.INTRA.DIHEDRAL>
-16.4136

>  <SCORE.INTRA.DIHEDRAL.0>
22.5778

>  <SCORE.INTRA.POLAR>
0

>  <SCORE.INTRA.POLAR.0>
0

>  <SCORE.INTRA.REPUL>
0

>  <SCORE.INTRA.REPUL.0>
0

>  <SCORE.INTRA.SOLV>
3.31091

>  <SCORE.INTRA.SOLV.lig_0>
-102.332

>  <SCORE.INTRA.VDW>
-0.34368

>  <SCORE.INTRA.VDW.0>
-5.08747

>  <SCORE.INTRA.norm>
-0.172376

>  <SCORE.RESTR>
0

>  <SCORE.RESTR.CAVITY>
0

>  <SCORE.RESTR.norm>
0

>  <SCORE.SYSTEM>
0

>  <SCORE.SYSTEM.CONST>
0

>  <SCORE.SYSTEM.DIHEDRAL>
0

>  <SCORE.SYSTEM.SOLV>
0

>  <SCORE.SYSTEM.norm>
0

>  <SCORE.heavy>
40

>  <SCORE.norm>
-0.398872

>  <RMSD>
7.854

$$$$
2g5q_lig
 OpenBabel11021811433D
libRbt.so/2013.1/901 2013/11/27
 40 42  0  0  0  0  0  0  0  0999 V2000
   -4.0391   -9.8527   17.2030 C   0  0  2  0  0  0  0  0  0  0  0  0
   -3.1197   -8.7833   17.1754 O   0  0  0  0  0  0  0  0  0  0  0  0
   -5.4180   -9.3426   16.6900 C   0  0  1  0  0  0  0  0  0  0  0  0
   -6.0533   -8.3035   17.6648 C   0  0  2  0  0  0  0  0  0  0  0  0
   -6.2309   -8.9927   19.0426 C   0  0  2  0  0  0  0  0  0  0  0  0
   -6.8365   -8.0723   19.9649 O   0  0  0  0  0  0  0  0  0  0  0  0
   -4.8065   -9.4567   19.5525 C   0  0  2  0  0  0  0  0  0  0  0  0
   -4.1978  -10.4034   18.5747 O   0  0  0  0  0  0  0  0  0  0  0  0
   -4.8645  -10.1642   20.9022 C   0  0  0  0  0  0  0  0  0  0  0  0
   -5.5506  -11.4919   20.8114 N   0  0  0  0  0  0  0  0  0  0  0  0
    1.1811   -8.1453   17.5911 C   0  0  2  0  0  0  0  0  0  0  0  0
    2.5509   -8.2467   18.0802 N   0  0  0  0  0  0  0  0  0  0  0  0
    0.2214   -7.6400   18.7485 C   0  0  0  0  0  0  0  0  0  0  0  0
   -1.2626   -7.5218   18.2209 C   0  0  2  0  0  0  0  0  0  0  0  0
   -2.1501   -7.0366   19.3122 N   0  0  0  0  0  0  0  0  0  0  0  0
   -1.7402   -8.9247   17.6715 C   0  0  2  0  0  0  0  0  0  0  0  0
   -0.7594   -9.3960   16.5258 C   0  0  2  0  0  0  0  0  0  0  0  0
   -1.1901  -10.6692   16.0343 O   0  0  0  0  0  0  0  0  0  0  0  0
    0.7120   -9.5222   17.0772 C   0  0  1  0  0  0  0  0  0  0  0  0
    1.6154   -9.9445   16.0170 O   0  0  0  0  0  0  0  0  0  0  0  0
    2.2760  -11.1859   15.9896 C   0  0  2  0  0  0  0  0  0  0  0  0
    3.3557  -11.1182   14.8571 C   0  0  2  0  0  0  0  0  0  0  0  0
    4.2554  -10.0931   15.1332 O   0  0  0  0  0  0  0  0  0  0  0  0
    2.6872  -10.9159   13.4447 C   0  0  1  0  0  0  0  0  0  0  0  0
    3.7134  -10.8543   12.3523 N   0  0  0  0  0  0  0  0  0  0  0  0
    1.6774  -12.1063   13.1985 C   0  0  2  0  0  0  0  0  0  0  0  0
    1.0426  -11.9811   11.9243 O   0  0  0  0  0  0  0  0  0  0  0  0
    0.6266  -12.1178   14.3597 C   0  0  2  0  0  0  0  0  0  0  0  0
    1.3019  -12.2522   15.6960 O   0  0  0  0  0  0  0  0  0  0  0  0
   -0.3533  -13.2454   14.2120 C   0  0  0  0  0  0  0  0  0  0  0  0
    0.3103  -14.5198   14.2364 O   0  0  0  0  0  0  0  0  0  0  0  0
   -5.2285   -8.7652   15.3525 O   0  0  0  0  0  0  0  0  0  0  0  0
   -7.2731   -7.8975   17.1702 O   0  0  0  0  0  0  0  0  0  0  0  0
    3.4269   -5.6573   21.0586 N   0  0  0  0  0  0  0  0  0  0  0  0
    3.3452   -7.1757   18.4652 C   0  0  0  0  0  0  0  0  0  0  0  0
    2.9799   -6.0059   18.4292 O   0  0  0  0  0  0  0  0  0  0  0  0
    4.7513   -7.6207   18.9295 C   0  0  1  0  0  0  0  0  0  0  0  0
    4.8225   -7.6247   20.4699 C   0  0  0  0  0  0  0  0  0  0  0  0
    4.7604   -6.2494   21.1445 C   0  0  0  0  0  0  0  0  0  0  0  0
    5.0319   -8.9345   18.3962 O   0  0  0  0  0  0  0  0  0  0  0  0
  1  2  1  1  0  0  0
  1  3  1  0  0  0  0
  1  8  1  0  0  0  0
  3  4  1  0  0  0  0
  3 32  1  6  0  0  0
  4  5  1  0  0  0  0
  4 33  1  6  0  0  0
  5  6  1  1  0  0  0
  5  7  1  0  0  0  0
  7  8  1  0  0  0  0
  7  9  1  1  0  0  0
  9 10  1  0  0  0  0
 11 12  1  1  0  0  0
 11 13  1  0  0  0  0
 11 19  1  0  0  0  0
 12 35  1  0  0  0  0
 13 14  1  0  0  0  0
 14 15  1  1  0  0  0
 14 16  1  0  0  0  0
 16  2  1  6  0  0  0
 16 17  1  0  0  0  0
 17 18  1  1  0  0  0
 17 19  1  0  0  0  0
 19 20  1  6  0  0  0
 21 20  1  6  0  0  0
 21 22  1  0  0  0  0
 21 29  1  0  0  0  0
 22 23  1  1  0  0  0
 22 24  1  0  0  0  0
 24 25  1  6  0  0  0
 24 26  1  0  0  0  0
 26 27  1  6  0  0  0
 26 28  1  0  0  0  0
 28 29  1  0  0  0  0
 28 30  1  6  0  0  0
 30 31  1  0  0  0  0
 34 39  1  0  0  0  0
 35 36  2  0  0  0  0
 37 35  1  1  0  0  0
 37 38  1  0  0  0  0
 37 40  1  0  0  0  0
 38 39  1  0  0  0  0
M  END
>  <CHROM.1>
176.57707101,68.22089318,-66.82401192,-149.91180940,127.24877065,-168.59700144
60.57044774,-101.33862327,-68.34855611,71.49790374,-0.38407031,-9.47701004
17.16718493,2.93710131,0.10418195,0.89588857

>  <Name>
2g5q_lig

>  <RI>
9.52566e+06

>  <Rbt.Current_Directory>
/home/itssahil/PROJECTS/Mol_Feturizer/New_Systems/rnas/2g5q

>  <Rbt.Executable>
rbdock ($Id: //depot/dev/client3/rdock/2013.1/src/exe/rbdock.cxx#4 $)

>  <Rbt.Library>
libRbt.so (2013.1, Build901 2013/11/27)

>  <Rbt.Parameter_File>
/export/apps/rDock/src/rDock_2013.1_src/data/scripts/dock_solv.prm

>  <Rbt.Receptor>
prm/pocket_docking_4.prm

>  <SCORE>
-13.9417

>  <SCORE.INTER>
-12.0722

>  <SCORE.INTER.CONST>
1

>  <SCORE.INTER.POLAR>
-0.912231

>  <SCORE.INTER.ROT>
10

>  <SCORE.INTER.SOLV>
13.5449

>  <SCORE.INTER.VDW>
-19.789

>  <SCORE.INTER.norm>
-0.301805

>  <SCORE.INTRA>
-1.86948

>  <SCORE.INTRA.DIHEDRAL>
-8.24488

>  <SCORE.INTRA.DIHEDRAL.0>
22.5778

>  <SCORE.INTRA.POLAR>
0

>  <SCORE.INTRA.POLAR.0>
0

>  <SCORE.INTRA.REPUL>
0.031049

>  <SCORE.INTRA.REPUL.0>
0

>  <SCORE.INTRA.SOLV>
4.79267

>  <SCORE.INTRA.SOLV.lig_0>
-102.332

>  <SCORE.INTRA.VDW>
-0.29862

>  <SCORE.INTRA.VDW.0>
-5.08747

>  <SCORE.INTRA.norm>
-0.046737

>  <SCORE.RESTR>
0

>  <SCORE.RESTR.CAVITY>
0

>  <SCORE.RESTR.norm>
0

>  <SCORE.SYSTEM>
0

>  <SCORE.SYSTEM.CONST>
0

>  <SCORE.SYSTEM.DIHEDRAL>
0

>  <SCORE.SYSTEM.SOLV>
0

>  <SCORE.SYSTEM.norm>
0

>  <SCORE.heavy>
40

>  <SCORE.norm>
-0.348542

>  <RMSD>
7.860

$$$$
2g5q_lig
 OpenBabel11021811433D
libRbt.so/2013.1/901 2013/11/27
 40 42  0  0  0  0  0  0  0  0999 V2000
   -4.4624   -9.4280   17.9272 C   0  0  2  0  0  0  0  0  0  0  0  0
   -3.4146   -8.9988   17.0862 O   0  0  0  0  0  0  0  0  0  0  0  0
   -4.3755  -10.9744   18.0882 C   0  0  1  0  0  0  0  0  0  0  0  0
   -4.6698  -11.7164   16.7479 C   0  0  2  0  0  0  0  0  0  0  0  0
   -6.0967  -11.3184   16.2890 C   0  0  2  0  0  0  0  0  0  0  0  0
   -6.4151  -12.0014   15.0657 O   0  0  0  0  0  0  0  0  0  0  0  0
   -6.1348   -9.7487   16.0925 C   0  0  2  0  0  0  0  0  0  0  0  0
   -5.7934   -9.0655   17.3729 O   0  0  0  0  0  0  0  0  0  0  0  0
   -7.5042   -9.2422   15.6521 C   0  0  0  0  0  0  0  0  0  0  0  0
   -7.9030   -9.7898   14.3169 N   0  0  0  0  0  0  0  0  0  0  0  0
    0.9396   -8.6829   16.9511 C   0  0  2  0  0  0  0  0  0  0  0  0
    2.3480   -8.8658   17.2810 N   0  0  0  0  0  0  0  0  0  0  0  0
    0.1676   -8.0398   18.1784 C   0  0  0  0  0  0  0  0  0  0  0  0
   -1.3572   -7.8333   17.8227 C   0  0  2  0  0  0  0  0  0  0  0  0
   -2.0673   -7.2196   18.9774 N   0  0  0  0  0  0  0  0  0  0  0  0
   -1.9987   -9.2218   17.4246 C   0  0  2  0  0  0  0  0  0  0  0  0
   -1.2019   -9.8321   16.2041 C   0  0  2  0  0  0  0  0  0  0  0  0
   -1.7804  -11.0921   15.8496 O   0  0  0  0  0  0  0  0  0  0  0  0
    0.3129  -10.0443   16.5855 C   0  0  1  0  0  0  0  0  0  0  0  0
    1.0469  -10.5949   15.4557 O   0  0  0  0  0  0  0  0  0  0  0  0
    0.8949  -10.1598   14.1269 C   0  0  2  0  0  0  0  0  0  0  0  0
    0.7116  -11.4334   13.2339 C   0  0  2  0  0  0  0  0  0  0  0  0
   -0.4166  -12.1341   13.6495 O   0  0  0  0  0  0  0  0  0  0  0  0
    1.9925  -12.3497   13.2796 C   0  0  1  0  0  0  0  0  0  0  0  0
    1.8284  -13.5704   12.4233 N   0  0  0  0  0  0  0  0  0  0  0  0
    3.2324  -11.4936   12.8030 C   0  0  2  0  0  0  0  0  0  0  0  0
    4.4279  -12.2764   12.8161 O   0  0  0  0  0  0  0  0  0  0  0  0
    3.3615  -10.2409   13.7340 C   0  0  2  0  0  0  0  0  0  0  0  0
    2.1014   -9.4215   13.7127 O   0  0  0  0  0  0  0  0  0  0  0  0
    4.5040   -9.3579   13.3232 C   0  0  0  0  0  0  0  0  0  0  0  0
    5.7619  -10.0418   13.4448 O   0  0  0  0  0  0  0  0  0  0  0  0
   -3.0389  -11.3115   18.5963 O   0  0  0  0  0  0  0  0  0  0  0  0
   -4.5926  -13.0767   16.9508 O   0  0  0  0  0  0  0  0  0  0  0  0
    4.5427   -9.4616   20.3326 N   0  0  0  0  0  0  0  0  0  0  0  0
    3.4089   -8.2470   16.6346 C   0  0  0  0  0  0  0  0  0  0  0  0
    3.2778   -7.4711   15.6943 O   0  0  0  0  0  0  0  0  0  0  0  0
    4.7787   -8.6586   17.2217 C   0  0  1  0  0  0  0  0  0  0  0  0
    5.0637   -7.8591   18.5091 C   0  0  0  0  0  0  0  0  0  0  0  0
    4.1730   -8.1912   19.7119 C   0  0  0  0  0  0  0  0  0  0  0  0
    4.7720  -10.0795   17.4872 O   0  0  0  0  0  0  0  0  0  0  0  0
  1  2  1  6  0  0  0
  1  3  1  0  0  0  0
  1  8  1  0  0  0  0
  3  4  1  0  0  0  0
  3 32  1  6  0  0  0
  4  5  1  0  0  0  0
  4 33  1  1  0  0  0
  5  6  1  6  0  0  0
  5  7  1  0  0  0  0
  7  8  1  0  0  0  0
  7  9  1  1  0  0  0
  9 10  1  0  0  0  0
 11 12  1  1  0  0  0
 11 13  1  0  0  0  0
 11 19  1  0  0  0  0
 12 35  1  0  0  0  0
 13 14  1  0  0  0  0
 14 15  1  1  0  0  0
 14 16  1  0  0  0  0
 16  2  1  6  0  0  0
 16 17  1  0  0  0  0
 17 18  1  1  0  0  0
 17 19  1  0  0  0  0
 19 20  1  6  0  0  0
 21 20  1  1  0  0  0
 21 22  1  0  0  0  0
 21 29  1  0  0  0  0
 22 23  1  1  0  0  0
 22 24  1  0  0  0  0
 24 25  1  6  0  0  0
 24 26  1  0  0  0  0
 26 27  1  1  0  0  0
 26 28  1  0  0  0  0
 28 29  1  0  0  0  0
 28 30  1  6  0  0  0
 30 31  1  0  0  0  0
 34 39  1  0  0  0  0
 35 36  2  0  0  0  0
 37 35  1  1  0  0  0
 37 38  1  0  0  0  0
 37 40  1  0  0  0  0
 38 39  1  0  0  0  0
M  END
>  <CHROM.1>
-60.16057311,-62.79073020,-117.34996920,-108.21743078,-76.67767510,-131.48304685
-63.01115170,-80.24244660,68.61905196,75.25736289,-0.23745056,-10.04041975
16.05888153,-3.09623547,-0.11071394,-2.13283374

>  <Name>
2g5q_lig

>  <RI>
0

>  <Rbt.Current_Directory>
/home/itssahil/PROJECTS/Mol_Feturizer/New_Systems/rnas/2g5q

>  <Rbt.Executable>
rbdock ($Id: //depot/dev/client3/rdock/2013.1/src/exe/rbdock.cxx#4 $)

>  <Rbt.Library>
libRbt.so (2013.1, Build901 2013/11/27)

>  <Rbt.Parameter_File>
/export/apps/rDock/src/rDock_2013.1_src/data/scripts/dock_solv.prm

>  <Rbt.Receptor>
prm/pocket_docking_3.prm

>  <SCORE>
-8.98805

>  <SCORE.INTER>
-9.46484

>  <SCORE.INTER.CONST>
1

>  <SCORE.INTER.POLAR>
-1.37956

>  <SCORE.INTER.ROT>
10

>  <SCORE.INTER.SOLV>
15.6875

>  <SCORE.INTER.VDW>
-17.2072

>  <SCORE.INTER.norm>
-0.236621

>  <SCORE.INTRA>
0.308996

>  <SCORE.INTRA.DIHEDRAL>
-4.62301

>  <SCORE.INTRA.DIHEDRAL.0>
22.5778

>  <SCORE.INTRA.POLAR>
0

>  <SCORE.INTRA.POLAR.0>
0

>  <SCORE.INTRA.REPUL>
0

>  <SCORE.INTRA.REPUL.0>
0

>  <SCORE.INTRA.SOLV>
5.451

>  <SCORE.INTRA.SOLV.lig_0>
-102.332

>  <SCORE.INTRA.VDW>
-0.104997

>  <SCORE.INTRA.VDW.0>
-5.08747

>  <SCORE.INTRA.norm>
0.0077249

>  <SCORE.RESTR>
0.167802

>  <SCORE.RESTR.CAVITY>
0.167802

>  <SCORE.RESTR.norm>
0.00419504

>  <SCORE.SYSTEM>
0

>  <SCORE.SYSTEM.CONST>
0

>  <SCORE.SYSTEM.DIHEDRAL>
0

>  <SCORE.SYSTEM.SOLV>
0

>  <SCORE.SYSTEM.norm>
0

>  <SCORE.heavy>
40

>  <SCORE.norm>
-0.224701

>  <RMSD>
7.863

$$$$
2g5q_lig
 OpenBabel11021811433D
libRbt.so/2013.1/901 2013/11/27
 40 42  0  0  0  0  0  0  0  0999 V2000
    5.4156   -3.2783   24.3822 C   0  0  2  0  0  0  0  0  0  0  0  0
    5.1445   -2.8385   23.0697 O   0  0  0  0  0  0  0  0  0  0  0  0
    4.2450   -2.8396   25.3105 C   0  0  1  0  0  0  0  0  0  0  0  0
    4.1737   -1.2888   25.4637 C   0  0  2  0  0  0  0  0  0  0  0  0
    5.5220   -0.8088   26.0609 C   0  0  2  0  0  0  0  0  0  0  0  0
    5.4873    0.6165   26.2394 O   0  0  0  0  0  0  0  0  0  0  0  0
    6.6817   -1.2316   25.0707 C   0  0  2  0  0  0  0  0  0  0  0  0
    6.6902   -2.7123   24.8972 O   0  0  0  0  0  0  0  0  0  0  0  0
    8.0627   -0.8192   25.5690 C   0  0  0  0  0  0  0  0  0  0  0  0
    9.1474   -1.2308   24.6226 N   0  0  0  0  0  0  0  0  0  0  0  0
    2.3766   -5.5231   21.0181 C   0  0  2  0  0  0  0  0  0  0  0  0
    1.7958   -6.3964   20.0053 N   0  0  0  0  0  0  0  0  0  0  0  0
    2.6128   -4.0725   20.4215 C   0  0  0  0  0  0  0  0  0  0  0  0
    3.2353   -3.1209   21.5176 C   0  0  2  0  0  0  0  0  0  0  0  0
    3.4415   -1.7615   20.9490 N   0  0  0  0  0  0  0  0  0  0  0  0
    4.5929   -3.7375   22.0418 C   0  0  2  0  0  0  0  0  0  0  0  0
    4.3185   -5.1809   22.6233 C   0  0  2  0  0  0  0  0  0  0  0  0
    5.5500   -5.7397   23.0914 O   0  0  0  0  0  0  0  0  0  0  0  0
    3.7125   -6.1178   21.5097 C   0  0  1  0  0  0  0  0  0  0  0  0
    3.4492   -7.4429   22.0512 O   0  0  0  0  0  0  0  0  0  0  0  0
    4.3996   -8.2183   22.7394 C   0  0  2  0  0  0  0  0  0  0  0  0
    5.3829   -8.8104   21.6737 C   0  0  2  0  0  0  0  0  0  0  0  0
    6.0054   -7.7718   20.9879 O   0  0  0  0  0  0  0  0  0  0  0  0
    4.6309   -9.7723   20.6777 C   0  0  1  0  0  0  0  0  0  0  0  0
    5.5656  -10.3482   19.6555 N   0  0  0  0  0  0  0  0  0  0  0  0
    3.9447  -10.9203   21.5194 C   0  0  2  0  0  0  0  0  0  0  0  0
    3.2502  -11.8324   20.6663 O   0  0  0  0  0  0  0  0  0  0  0  0
    2.9764  -10.2648   22.5612 C   0  0  2  0  0  0  0  0  0  0  0  0
    3.7148   -9.3090   23.4562 O   0  0  0  0  0  0  0  0  0  0  0  0
    2.3071  -11.2953   23.4237 C   0  0  0  0  0  0  0  0  0  0  0  0
    1.4602  -12.1567   22.6454 O   0  0  0  0  0  0  0  0  0  0  0  0
    2.9928   -3.3742   24.7589 O   0  0  0  0  0  0  0  0  0  0  0  0
    3.1323   -0.9587   26.3028 O   0  0  0  0  0  0  0  0  0  0  0  0
    4.1194   -9.4829   15.7221 N   0  0  0  0  0  0  0  0  0  0  0  0
    2.3786   -6.7047   18.7840 C   0  0  0  0  0  0  0  0  0  0  0  0
    3.4604   -6.2637   18.4120 O   0  0  0  0  0  0  0  0  0  0  0  0
    1.5024   -7.6544   17.9350 C   0  0  1  0  0  0  0  0  0  0  0  0
    2.3697   -8.7811   17.3379 C   0  0  0  0  0  0  0  0  0  0  0  0
    3.4137   -8.3431   16.3042 C   0  0  0  0  0  0  0  0  0  0  0  0
    0.4511   -8.1971   18.7653 O   0  0  0  0  0  0  0  0  0  0  0  0
  1  2  1  6  0  0  0
  1  3  1  0  0  0  0
  1  8  1  0  0  0  0
  3  4  1  0  0  0  0
  3 32  1  6  0  0  0
  4  5  1  0  0  0  0
  4 33  1  1  0  0  0
  5  6  1  6  0  0  0
  5  7  1  0  0  0  0
  7  8  1  0  0  0  0
  7  9  1  1  0  0  0
  9 10  1  0  0  0  0
 11 12  1  6  0  0  0
 11 13  1  0  0  0  0
 11 19  1  0  0  0  0
 12 35  1  0  0  0  0
 13 14  1  0  0  0  0
 14 15  1  6  0  0  0
 14 16  1  0  0  0  0
 16  2  1  1  0  0  0
 16 17  1  0  0  0  0
 17 18  1  6  0  0  0
 17 19  1  0  0  0  0
 19 20  1  1  0  0  0
 21 20  1  6  0  0  0
 21 22  1  0  0  0  0
 21 29  1  0  0  0  0
 22 23  1  6  0  0  0
 22 24  1  0  0  0  0
 24 25  1  6  0  0  0
 24 26  1  0  0  0  0
 26 27  1  6  0  0  0
 26 28  1  0  0  0  0
 28 29  1  0  0  0  0
 28 30  1  1  0  0  0
 30 31  1  0  0  0  0
 34 39  1  0  0  0  0
 35 36  2  0  0  0  0
 37 35  1  1  0  0  0
 37 38  1  0  0  0  0
 37 40  1  0  0  0  0
 38 39  1  0  0  0  0
M  END
>  <CHROM.1>
-99.71336296,179.81698007,59.40514845,122.16117723,-171.85666434,-75.99815625
-63.85821118,-134.47160116,-66.27199634,-175.81247044,4.07270162,-5.91118615
22.03223899,-0.68215047,1.23844935,2.85709041

>  <Name>
2g5q_lig

>  <RI>
224

>  <Rbt.Current_Directory>
/home/itssahil/PROJECTS/Mol_Feturizer/New_Systems/rnas/2g5q

>  <Rbt.Executable>
rbdock ($Id: //depot/dev/client3/rdock/2013.1/src/exe/rbdock.cxx#4 $)

>  <Rbt.Library>
libRbt.so (2013.1, Build901 2013/11/27)

>  <Rbt.Parameter_File>
/export/apps/rDock/src/rDock_2013.1_src/data/scripts/dock_solv.prm

>  <Rbt.Receptor>
prm/pocket_docking_8.prm

>  <SCORE>
-17.0434

>  <SCORE.INTER>
-16.8132

>  <SCORE.INTER.CONST>
1

>  <SCORE.INTER.POLAR>
-1.46596

>  <SCORE.INTER.ROT>
10

>  <SCORE.INTER.SOLV>
16.9101

>  <SCORE.INTER.VDW>
-22.2257

>  <SCORE.INTER.norm>
-0.42033

>  <SCORE.INTRA>
-0.230144

>  <SCORE.INTRA.DIHEDRAL>
-6.03157

>  <SCORE.INTRA.DIHEDRAL.0>
22.5778

>  <SCORE.INTRA.POLAR>
0

>  <SCORE.INTRA.POLAR.0>
0

>  <SCORE.INTRA.REPUL>
0

>  <SCORE.INTRA.REPUL.0>
0

>  <SCORE.INTRA.SOLV>
0.88597

>  <SCORE.INTRA.SOLV.lig_0>
-102.332

>  <SCORE.INTRA.VDW>
2.34266

>  <SCORE.INTRA.VDW.0>
-5.08747

>  <SCORE.INTRA.norm>
-0.00575359

>  <SCORE.RESTR>
0

>  <SCORE.RESTR.CAVITY>
0

>  <SCORE.RESTR.norm>
0

>  <SCORE.SYSTEM>
0

>  <SCORE.SYSTEM.CONST>
0

>  <SCORE.SYSTEM.DIHEDRAL>
0

>  <SCORE.SYSTEM.SOLV>
0

>  <SCORE.SYSTEM.norm>
0

>  <SCORE.heavy>
40

>  <SCORE.norm>
-0.426084

>  <RMSD>
7.877

$$$$
2g5q_lig
 OpenBabel11021811433D
libRbt.so/2013.1/901 2013/11/27
 40 42  0  0  0  0  0  0  0  0999 V2000
   -3.1593  -10.6339   16.8131 C   0  0  2  0  0  0  0  0  0  0  0  0
   -2.5910   -9.3718   17.0841 O   0  0  0  0  0  0  0  0  0  0  0  0
   -4.6723  -10.4457   16.4966 C   0  0  1  0  0  0  0  0  0  0  0  0
   -5.4714   -9.9574   17.7443 C   0  0  2  0  0  0  0  0  0  0  0  0
   -5.2996  -11.0183   18.8623 C   0  0  2  0  0  0  0  0  0  0  0  0
   -6.0421  -10.6151   20.0244 O   0  0  0  0  0  0  0  0  0  0  0  0
   -3.7568  -11.1499   19.1885 C   0  0  2  0  0  0  0  0  0  0  0  0
   -3.0097  -11.5610   17.9656 O   0  0  0  0  0  0  0  0  0  0  0  0
   -3.4688  -12.1835   20.2723 C   0  0  0  0  0  0  0  0  0  0  0  0
   -4.0240  -11.7738   21.6010 N   0  0  0  0  0  0  0  0  0  0  0  0
    1.4613   -7.8358   17.6291 C   0  0  2  0  0  0  0  0  0  0  0  0
    2.8099   -7.6536   18.1524 N   0  0  0  0  0  0  0  0  0  0  0  0
    0.3905   -7.5800   18.7710 C   0  0  0  0  0  0  0  0  0  0  0  0
   -1.0723   -7.7694   18.2064 C   0  0  2  0  0  0  0  0  0  0  0  0
   -2.0669   -7.5159   19.2838 N   0  0  0  0  0  0  0  0  0  0  0  0
   -1.2245   -9.2267   17.6140 C   0  0  2  0  0  0  0  0  0  0  0  0
   -0.1406   -9.4451   16.4850 C   0  0  2  0  0  0  0  0  0  0  0  0
   -0.2761  -10.7673   15.9545 O   0  0  0  0  0  0  0  0  0  0  0  0
    1.3112   -9.2669   17.0729 C   0  0  1  0  0  0  0  0  0  0  0  0
    2.3069   -9.4564   16.0284 O   0  0  0  0  0  0  0  0  0  0  0  0
    3.1343  -10.5887   15.9216 C   0  0  2  0  0  0  0  0  0  0  0  0
    4.4585  -10.1377   15.2170 C   0  0  2  0  0  0  0  0  0  0  0  0
    5.0778   -9.1514   15.9787 O   0  0  0  0  0  0  0  0  0  0  0  0
    4.1786   -9.6264   13.7531 C   0  0  1  0  0  0  0  0  0  0  0  0
    5.4419   -9.1963   13.0680 N   0  0  0  0  0  0  0  0  0  0  0  0
    3.4723  -10.7885   12.9481 C   0  0  2  0  0  0  0  0  0  0  0  0
    3.1987  -10.3849   11.6048 O   0  0  0  0  0  0  0  0  0  0  0  0
    2.1591  -11.1906   13.7008 C   0  0  2  0  0  0  0  0  0  0  0  0
    2.4556  -11.6161   15.1117 O   0  0  0  0  0  0  0  0  0  0  0  0
    1.4445  -12.3158   13.0102 C   0  0  0  0  0  0  0  0  0  0  0  0
    1.0873  -11.9593   11.6648 O   0  0  0  0  0  0  0  0  0  0  0  0
   -4.7966   -9.4944   15.3841 O   0  0  0  0  0  0  0  0  0  0  0  0
   -6.8012   -9.8211   17.4120 O   0  0  0  0  0  0  0  0  0  0  0  0
    4.9263   -8.1900   22.5369 N   0  0  0  0  0  0  0  0  0  0  0  0
    3.4192   -8.4677   19.0970 C   0  0  0  0  0  0  0  0  0  0  0  0
    2.8795   -9.4417   19.6101 O   0  0  0  0  0  0  0  0  0  0  0  0
    4.8510   -7.9990   19.4444 C   0  0  1  0  0  0  0  0  0  0  0  0
    4.7958   -6.8384   20.4583 C   0  0  0  0  0  0  0  0  0  0  0  0
    4.1680   -7.1687   21.8173 C   0  0  0  0  0  0  0  0  0  0  0  0
    5.5979   -9.1156   19.9780 O   0  0  0  0  0  0  0  0  0  0  0  0
  1  2  1  1  0  0  0
  1  3  1  0  0  0  0
  1  8  1  0  0  0  0
  3  4  1  0  0  0  0
  3 32  1  6  0  0  0
  4  5  1  0  0  0  0
  4 33  1  6  0  0  0
  5  6  1  1  0  0  0
  5  7  1  0  0  0  0
  7  8  1  0  0  0  0
  7  9  1  1  0  0  0
  9 10  1  0  0  0  0
 11 12  1  1  0  0  0
 11 13  1  0  0  0  0
 11 19  1  0  0  0  0
 12 35  1  0  0  0  0
 13 14  1  0  0  0  0
 14 15  1  1  0  0  0
 14 16  1  0  0  0  0
 16  2  1  6  0  0  0
 16 17  1  0  0  0  0
 17 18  1  1  0  0  0
 17 19  1  0  0  0  0
 19 20  1  6  0  0  0
 21 20  1  6  0  0  0
 21 22  1  0  0  0  0
 21 29  1  0  0  0  0
 22 23  1  1  0  0  0
 22 24  1  0  0  0  0
 24 25  1  6  0  0  0
 24 26  1  0  0  0  0
 26 27  1  6  0  0  0
 26 28  1  0  0  0  0
 28 29  1  0  0  0  0
 28 30  1  6  0  0  0
 30 31  1  0  0  0  0
 34 39  1  0  0  0  0
 35 36  2  0  0  0  0
 37 35  1  1  0  0  0
 37 38  1  0  0  0  0
 37 40  1  0  0  0  0
 38 39  1  0  0  0  0
M  END
>  <CHROM.1>
170.69564997,-66.08211650,67.06390225,-162.89944634,133.52987351,-151.76864879
-59.45443051,80.68808159,62.18974560,62.62668395,0.40728741,-9.74203912,17.19718229
2.97454299,0.18867739,1.26038948

>  <Name>
2g5q_lig

>  <RI>
9.52566e+06

>  <Rbt.Current_Directory>
/home/itssahil/PROJECTS/Mol_Feturizer/New_Systems/rnas/2g5q

>  <Rbt.Executable>
rbdock ($Id: //depot/dev/client3/rdock/2013.1/src/exe/rbdock.cxx#4 $)

>  <Rbt.Library>
libRbt.so (2013.1, Build901 2013/11/27)

>  <Rbt.Parameter_File>
/export/apps/rDock/src/rDock_2013.1_src/data/scripts/dock_solv.prm

>  <Rbt.Receptor>
prm/pocket_docking_4.prm

>  <SCORE>
-10.3575

>  <SCORE.INTER>
-7.20278

>  <SCORE.INTER.CONST>
1

>  <SCORE.INTER.POLAR>
-0.891982

>  <SCORE.INTER.ROT>
10

>  <SCORE.INTER.SOLV>
12.6681

>  <SCORE.INTER.VDW>
-16.3179

>  <SCORE.INTER.norm>
-0.18007

>  <SCORE.INTRA>
-3.15575

>  <SCORE.INTRA.DIHEDRAL>
-9.72317

>  <SCORE.INTRA.DIHEDRAL.0>
22.5778

>  <SCORE.INTRA.POLAR>
0

>  <SCORE.INTRA.POLAR.0>
0

>  <SCORE.INTRA.REPUL>
0

>  <SCORE.INTRA.REPUL.0>
0

>  <SCORE.INTRA.SOLV>
4.13258

>  <SCORE.INTRA.SOLV.lig_0>
-102.332

>  <SCORE.INTRA.VDW>
-0.360458

>  <SCORE.INTRA.VDW.0>
-5.08747

>  <SCORE.INTRA.norm>
-0.0788938

>  <SCORE.RESTR>
0.00102276

>  <SCORE.RESTR.CAVITY>
0.00102276

>  <SCORE.RESTR.norm>
2.5569e-05

>  <SCORE.SYSTEM>
0

>  <SCORE.SYSTEM.CONST>
0

>  <SCORE.SYSTEM.DIHEDRAL>
0

>  <SCORE.SYSTEM.SOLV>
0

>  <SCORE.SYSTEM.norm>
0

>  <SCORE.heavy>
40

>  <SCORE.norm>
-0.258938

>  <RMSD>
7.880

$$$$
2g5q_lig
 OpenBabel11021811433D
libRbt.so/2013.1/901 2013/11/27
 40 42  0  0  0  0  0  0  0  0999 V2000
   -4.2564   -9.7310   17.1596 C   0  0  2  0  0  0  0  0  0  0  0  0
   -3.2502   -8.7448   17.0926 O   0  0  0  0  0  0  0  0  0  0  0  0
   -5.6042   -9.1056   16.6937 C   0  0  1  0  0  0  0  0  0  0  0  0
   -6.1120   -8.0130   17.6846 C   0  0  2  0  0  0  0  0  0  0  0  0
   -6.2978   -8.6806   19.0719 C   0  0  2  0  0  0  0  0  0  0  0  0
   -6.7882   -7.7090   20.0100 O   0  0  0  0  0  0  0  0  0  0  0  0
   -4.9010   -9.2640   19.5329 C   0  0  2  0  0  0  0  0  0  0  0  0
   -4.4118  -10.2623   18.5394 O   0  0  0  0  0  0  0  0  0  0  0  0
   -4.9704   -9.9601   20.8879 C   0  0  0  0  0  0  0  0  0  0  0  0
   -3.6321  -10.4668   21.3284 N   0  0  0  0  0  0  0  0  0  0  0  0
    1.1101   -8.5557   16.9228 C   0  0  2  0  0  0  0  0  0  0  0  0
    2.5155   -8.8165   17.2103 N   0  0  0  0  0  0  0  0  0  0  0  0
    0.3751   -8.0181   18.2215 C   0  0  0  0  0  0  0  0  0  0  0  0
   -1.1463   -7.7275   17.9125 C   0  0  2  0  0  0  0  0  0  0  0  0
   -1.8213   -7.2136   19.1349 N   0  0  0  0  0  0  0  0  0  0  0  0
   -1.8385   -9.0466   17.3843 C   0  0  2  0  0  0  0  0  0  0  0  0
   -1.0774   -9.5531   16.0955 C   0  0  2  0  0  0  0  0  0  0  0  0
   -1.7019  -10.7508   15.6228 O   0  0  0  0  0  0  0  0  0  0  0  0
    0.4340   -9.8516   16.4294 C   0  0  1  0  0  0  0  0  0  0  0  0
    1.1354  -10.3062   15.2379 O   0  0  0  0  0  0  0  0  0  0  0  0
    2.4673  -10.7580   15.2291 C   0  0  2  0  0  0  0  0  0  0  0  0
    2.9919  -10.6442   13.7577 C   0  0  2  0  0  0  0  0  0  0  0  0
    2.9240   -9.3181   13.3413 O   0  0  0  0  0  0  0  0  0  0  0  0
    2.1765  -11.5815   12.7887 C   0  0  1  0  0  0  0  0  0  0  0  0
    2.6747  -11.4830   11.3772 N   0  0  0  0  0  0  0  0  0  0  0  0
    2.2904  -13.0651   13.3209 C   0  0  2  0  0  0  0  0  0  0  0  0
    1.5738  -13.9667   12.4749 O   0  0  0  0  0  0  0  0  0  0  0  0
    1.7502  -13.1113   14.7901 C   0  0  2  0  0  0  0  0  0  0  0  0
    2.5106  -12.1624   15.6739 O   0  0  0  0  0  0  0  0  0  0  0  0
    1.8550  -14.4885   15.3783 C   0  0  0  0  0  0  0  0  0  0  0  0
    1.0216  -15.4222   14.6722 O   0  0  0  0  0  0  0  0  0  0  0  0
   -5.4145   -8.5504   15.3468 O   0  0  0  0  0  0  0  0  0  0  0  0
   -7.3096   -7.5049   17.2318 O   0  0  0  0  0  0  0  0  0  0  0  0
    7.7214   -8.8788   15.2914 N   0  0  0  0  0  0  0  0  0  0  0  0
    3.4281   -7.8748   17.6650 C   0  0  0  0  0  0  0  0  0  0  0  0
    3.1510   -6.6984   17.8716 O   0  0  0  0  0  0  0  0  0  0  0  0
    4.8404   -8.4708   17.8662 C   0  0  1  0  0  0  0  0  0  0  0  0
    5.6571   -8.3461   16.5641 C   0  0  0  0  0  0  0  0  0  0  0  0
    7.0408   -9.0062   16.5784 C   0  0  0  0  0  0  0  0  0  0  0  0
    5.4949   -7.7801   18.9543 O   0  0  0  0  0  0  0  0  0  0  0  0
  1  2  1  1  0  0  0
  1  3  1  0  0  0  0
  1  8  1  0  0  0  0
  3  4  1  0  0  0  0
  3 32  1  6  0  0  0
  4  5  1  0  0  0  0
  4 33  1  6  0  0  0
  5  6  1  1  0  0  0
  5  7  1  0  0  0  0
  7  8  1  0  0  0  0
  7  9  1  1  0  0  0
  9 10  1  0  0  0  0
 11 12  1  1  0  0  0
 11 13  1  0  0  0  0
 11 19  1  0  0  0  0
 12 35  1  0  0  0  0
 13 14  1  0  0  0  0
 14 15  1  1  0  0  0
 14 16  1  0  0  0  0
 16  2  1  6  0  0  0
 16 17  1  0  0  0  0
 17 18  1  1  0  0  0
 17 19  1  0  0  0  0
 19 20  1  6  0  0  0
 21 20  1  6  0  0  0
 21 22  1  0  0  0  0
 21 29  1  0  0  0  0
 22 23  1  6  0  0  0
 22 24  1  0  0  0  0
 24 25  1  6  0  0  0
 24 26  1  0  0  0  0
 26 27  1  6  0  0  0
 26 28  1  0  0  0  0
 28 29  1  0  0  0  0
 28 30  1  1  0  0  0
 30 31  1  0  0  0  0
 34 39  1  0  0  0  0
 35 36  2  0  0  0  0
 37 35  1  6  0  0  0
 37 38  1  0  0  0  0
 37 40  1  0  0  0  0
 38 39  1  0  0  0  0
M  END
>  <CHROM.1>
-175.86462833,-178.15563427,-59.13672905,-152.41765129,66.03937976,-159.53324368
-64.22682074,89.71344118,-174.92142350,177.98900301,-0.11121238,-9.78500577
16.59703679,2.78163628,0.12870482,0.76124402

>  <Name>
2g5q_lig

>  <RI>
2.47104e+07

>  <Rbt.Current_Directory>
/home/itssahil/PROJECTS/Mol_Feturizer/New_Systems/rnas/2g5q

>  <Rbt.Executable>
rbdock ($Id: //depot/dev/client3/rdock/2013.1/src/exe/rbdock.cxx#4 $)

>  <Rbt.Library>
libRbt.so (2013.1, Build901 2013/11/27)

>  <Rbt.Parameter_File>
/export/apps/rDock/src/rDock_2013.1_src/data/scripts/dock_solv.prm

>  <Rbt.Receptor>
prm/pocket_docking_7.prm

>  <SCORE>
-21.2736

>  <SCORE.INTER>
-13.8496

>  <SCORE.INTER.CONST>
1

>  <SCORE.INTER.POLAR>
-1.94011

>  <SCORE.INTER.ROT>
10

>  <SCORE.INTER.SOLV>
16.1611

>  <SCORE.INTER.VDW>
-18.4197

>  <SCORE.INTER.norm>
-0.34624

>  <SCORE.INTRA>
-7.42404

>  <SCORE.INTRA.DIHEDRAL>
-15.4631

>  <SCORE.INTRA.DIHEDRAL.0>
22.5778

>  <SCORE.INTRA.POLAR>
0

>  <SCORE.INTRA.POLAR.0>
0

>  <SCORE.INTRA.REPUL>
0

>  <SCORE.INTRA.REPUL.0>
0

>  <SCORE.INTRA.SOLV>
-0.76478

>  <SCORE.INTRA.SOLV.lig_0>
-102.332

>  <SCORE.INTRA.VDW>
0.689892

>  <SCORE.INTRA.VDW.0>
-5.08747

>  <SCORE.INTRA.norm>
-0.185601

>  <SCORE.RESTR>
0

>  <SCORE.RESTR.CAVITY>
0

>  <SCORE.RESTR.norm>
0

>  <SCORE.SYSTEM>
0

>  <SCORE.SYSTEM.CONST>
0

>  <SCORE.SYSTEM.DIHEDRAL>
0

>  <SCORE.SYSTEM.SOLV>
0

>  <SCORE.SYSTEM.norm>
0

>  <SCORE.heavy>
40

>  <SCORE.norm>
-0.531841

>  <RMSD>
7.898

$$$$
2g5q_lig
 OpenBabel11021811433D
libRbt.so/2013.1/901 2013/11/27
 40 42  0  0  0  0  0  0  0  0999 V2000
   -4.2406   -9.6621   17.2759 C   0  0  2  0  0  0  0  0  0  0  0  0
   -3.2212   -8.6936   17.1648 O   0  0  0  0  0  0  0  0  0  0  0  0
   -5.5952   -9.0149   16.8625 C   0  0  1  0  0  0  0  0  0  0  0  0
   -6.0437   -7.9108   17.8691 C   0  0  2  0  0  0  0  0  0  0  0  0
   -6.1847   -8.5710   19.2653 C   0  0  2  0  0  0  0  0  0  0  0  0
   -6.6201   -7.5883   20.2188 O   0  0  0  0  0  0  0  0  0  0  0  0
   -4.7806   -9.1771   19.6715 C   0  0  2  0  0  0  0  0  0  0  0  0
   -4.3492  -10.1866   18.6627 O   0  0  0  0  0  0  0  0  0  0  0  0
   -4.8071   -9.8679   21.0308 C   0  0  0  0  0  0  0  0  0  0  0  0
   -5.7423  -11.0370   21.0487 N   0  0  0  0  0  0  0  0  0  0  0  0
    1.1375   -8.5503   16.9235 C   0  0  2  0  0  0  0  0  0  0  0  0
    2.5446   -8.8266   17.1871 N   0  0  0  0  0  0  0  0  0  0  0  0
    0.4297   -8.0082   18.2353 C   0  0  0  0  0  0  0  0  0  0  0  0
   -1.0934   -7.7007   17.9522 C   0  0  2  0  0  0  0  0  0  0  0  0
   -1.7427   -7.1828   19.1868 N   0  0  0  0  0  0  0  0  0  0  0  0
   -1.8081   -9.0111   17.4324 C   0  0  2  0  0  0  0  0  0  0  0  0
   -1.0739   -9.5224   16.1300 C   0  0  2  0  0  0  0  0  0  0  0  0
   -1.7187  -10.7122   15.6648 O   0  0  0  0  0  0  0  0  0  0  0  0
    0.4396   -9.8377   16.4382 C   0  0  1  0  0  0  0  0  0  0  0  0
    1.1164  -10.2967   15.2343 O   0  0  0  0  0  0  0  0  0  0  0  0
    2.4458  -10.7545   15.2009 C   0  0  2  0  0  0  0  0  0  0  0  0
    2.9309  -10.6798   13.7136 C   0  0  2  0  0  0  0  0  0  0  0  0
    2.8569   -9.3643   13.2660 O   0  0  0  0  0  0  0  0  0  0  0  0
    2.0860  -11.6374   12.7906 C   0  0  1  0  0  0  0  0  0  0  0  0
    2.5462  -11.5763   11.3642 N   0  0  0  0  0  0  0  0  0  0  0  0
    2.2086  -13.1078   13.3565 C   0  0  2  0  0  0  0  0  0  0  0  0
    1.4658  -14.0269   12.5530 O   0  0  0  0  0  0  0  0  0  0  0  0
    1.7080  -13.1148   14.8404 C   0  0  2  0  0  0  0  0  0  0  0  0
    2.4957  -12.1476   15.6794 O   0  0  0  0  0  0  0  0  0  0  0  0
    1.8234  -14.4774   15.4599 C   0  0  0  0  0  0  0  0  0  0  0  0
    0.9654  -15.4240   14.8020 O   0  0  0  0  0  0  0  0  0  0  0  0
   -5.4507   -8.4670   15.5071 O   0  0  0  0  0  0  0  0  0  0  0  0
   -7.2498   -7.3834   17.4633 O   0  0  0  0  0  0  0  0  0  0  0  0
    7.7599   -9.3556   17.4524 N   0  0  0  0  0  0  0  0  0  0  0  0
    3.4719   -7.8985   17.6397 C   0  0  0  0  0  0  0  0  0  0  0  0
    3.2082   -6.7224   17.8646 O   0  0  0  0  0  0  0  0  0  0  0  0
    4.8817   -8.5091   17.8130 C   0  0  1  0  0  0  0  0  0  0  0  0
    5.7214   -8.2691   16.5420 C   0  0  0  0  0  0  0  0  0  0  0  0
    6.8652   -9.2610   16.3007 C   0  0  0  0  0  0  0  0  0  0  0  0
    5.5150   -7.9169   18.9696 O   0  0  0  0  0  0  0  0  0  0  0  0
  1  2  1  1  0  0  0
  1  3  1  0  0  0  0
  1  8  1  0  0  0  0
  3  4  1  0  0  0  0
  3 32  1  6  0  0  0
  4  5  1  0  0  0  0
  4 33  1  6  0  0  0
  5  6  1  1  0  0  0
  5  7  1  0  0  0  0
  7  8  1  0  0  0  0
  7  9  1  1  0  0  0
  9 10  1  0  0  0  0
 11 12  1  1  0  0  0
 11 13  1  0  0  0  0
 11 19  1  0  0  0  0
 12 35  1  0  0  0  0
 13 14  1  0  0  0  0
 14 15  1  1  0  0  0
 14 16  1  0  0  0  0
 16  2  1  6  0  0  0
 16 17  1  0  0  0  0
 17 18  1  1  0  0  0
 17 19  1  0  0  0  0
 19 20  1  6  0  0  0
 21 20  1  6  0  0  0
 21 22  1  0  0  0  0
 21 29  1  0  0  0  0
 22 23  1  6  0  0  0
 22 24  1  0  0  0  0
 24 25  1  6  0  0  0
 24 26  1  0  0  0  0
 26 27  1  6  0  0  0
 26 28  1  0  0  0  0
 28 29  1  0  0  0  0
 28 30  1  1  0  0  0
 30 31  1  0  0  0  0
 34 39  1  0  0  0  0
 35 36  2  0  0  0  0
 37 35  1  6  0  0  0
 37 38  1  0  0  0  0
 37 40  1  0  0  0  0
 38 39  1  0  0  0  0
M  END
>  <CHROM.1>
-177.39313331,62.30022363,-58.55682352,-150.93095260,65.62011834,-160.98488705
-64.35301041,94.50884229,-155.39853321,-54.11593144,-0.15340213,-9.79863089
16.68984630,2.77898766,0.11944015,0.76310386

>  <Name>
2g5q_lig

>  <RI>
0

>  <Rbt.Current_Directory>
/home/itssahil/PROJECTS/Mol_Feturizer/New_Systems/rnas/2g5q

>  <Rbt.Executable>
rbdock ($Id: //depot/dev/client3/rdock/2013.1/src/exe/rbdock.cxx#4 $)

>  <Rbt.Library>
libRbt.so (2013.1, Build901 2013/11/27)

>  <Rbt.Parameter_File>
/export/apps/rDock/src/rDock_2013.1_src/data/scripts/dock_solv.prm

>  <Rbt.Receptor>
prm/pocket_docking_5.prm

>  <SCORE>
-18.1845

>  <SCORE.INTER>
-13.1104

>  <SCORE.INTER.CONST>
1

>  <SCORE.INTER.POLAR>
-1.94133

>  <SCORE.INTER.ROT>
10

>  <SCORE.INTER.SOLV>
18.6597

>  <SCORE.INTER.VDW>
-18.7558

>  <SCORE.INTER.norm>
-0.32776

>  <SCORE.INTRA>
-5.07408

>  <SCORE.INTRA.DIHEDRAL>
-13.3996

>  <SCORE.INTRA.DIHEDRAL.0>
22.5778

>  <SCORE.INTRA.POLAR>
0

>  <SCORE.INTRA.POLAR.0>
0

>  <SCORE.INTRA.REPUL>
0

>  <SCORE.INTRA.REPUL.0>
0

>  <SCORE.INTRA.SOLV>
2.22409

>  <SCORE.INTRA.SOLV.lig_0>
-102.332

>  <SCORE.INTRA.VDW>
0.513652

>  <SCORE.INTRA.VDW.0>
-5.08747

>  <SCORE.INTRA.norm>
-0.126852

>  <SCORE.RESTR>
0

>  <SCORE.RESTR.CAVITY>
0

>  <SCORE.RESTR.norm>
0

>  <SCORE.SYSTEM>
0

>  <SCORE.SYSTEM.CONST>
0

>  <SCORE.SYSTEM.DIHEDRAL>
0

>  <SCORE.SYSTEM.SOLV>
0

>  <SCORE.SYSTEM.norm>
0

>  <SCORE.heavy>
40

>  <SCORE.norm>
-0.454612

>  <RMSD>
7.903

$$$$
2g5q_lig
 OpenBabel11021811433D
libRbt.so/2013.1/901 2013/11/27
 40 42  0  0  0  0  0  0  0  0999 V2000
   -1.9471   -8.9058   19.8118 C   0  0  2  0  0  0  0  0  0  0  0  0
   -1.5229   -9.6712   18.7056 O   0  0  0  0  0  0  0  0  0  0  0  0
   -2.8100   -9.8063   20.7442 C   0  0  1  0  0  0  0  0  0  0  0  0
   -4.1516  -10.2267   20.0682 C   0  0  2  0  0  0  0  0  0  0  0  0
   -4.9336   -8.9332   19.7215 C   0  0  2  0  0  0  0  0  0  0  0  0
   -6.1897   -9.2797   19.1161 O   0  0  0  0  0  0  0  0  0  0  0  0
   -4.0469   -8.0658   18.7389 C   0  0  2  0  0  0  0  0  0  0  0  0
   -2.7480   -7.7273   19.3877 O   0  0  0  0  0  0  0  0  0  0  0  0
   -4.7172   -6.7551   18.3407 C   0  0  0  0  0  0  0  0  0  0  0  0
   -5.9029   -6.9773   17.4538 N   0  0  0  0  0  0  0  0  0  0  0  0
    1.9269   -9.7176   16.0272 C   0  0  2  0  0  0  0  0  0  0  0  0
    2.9503   -9.2779   15.0864 N   0  0  0  0  0  0  0  0  0  0  0  0
    0.4831   -9.5076   15.4050 C   0  0  0  0  0  0  0  0  0  0  0  0
   -0.6285   -9.9894   16.4182 C   0  0  2  0  0  0  0  0  0  0  0  0
   -1.9767   -9.7976   15.8185 N   0  0  0  0  0  0  0  0  0  0  0  0
   -0.4844   -9.1944   17.7765 C   0  0  2  0  0  0  0  0  0  0  0  0
    0.9650   -9.4241   18.3624 C   0  0  2  0  0  0  0  0  0  0  0  0
    1.0954   -8.6982   19.5889 O   0  0  0  0  0  0  0  0  0  0  0  0
    2.0577   -8.9226   17.3428 C   0  0  1  0  0  0  0  0  0  0  0  0
    3.3918   -9.1466   17.8797 O   0  0  0  0  0  0  0  0  0  0  0  0
    4.5004   -8.3241   17.6101 C   0  0  2  0  0  0  0  0  0  0  0  0
    5.7531   -8.9935   18.2704 C   0  0  2  0  0  0  0  0  0  0  0  0
    5.9429  -10.2609   17.7281 O   0  0  0  0  0  0  0  0  0  0  0  0
    5.5992   -9.0680   19.8367 C   0  0  1  0  0  0  0  0  0  0  0  0
    6.7966   -9.7037   20.4790 N   0  0  0  0  0  0  0  0  0  0  0  0
    5.3818   -7.6017   20.3844 C   0  0  2  0  0  0  0  0  0  0  0  0
    5.2425   -7.6042   21.8067 O   0  0  0  0  0  0  0  0  0  0  0  0
    4.1182   -6.9914   19.6893 C   0  0  2  0  0  0  0  0  0  0  0  0
    4.2735   -6.9901   18.1941 O   0  0  0  0  0  0  0  0  0  0  0  0
    3.8634   -5.5814   20.1372 C   0  0  0  0  0  0  0  0  0  0  0  0
    3.4760   -5.5352   21.5202 O   0  0  0  0  0  0  0  0  0  0  0  0
   -2.0136  -10.9837   21.1153 O   0  0  0  0  0  0  0  0  0  0  0  0
   -4.8783  -11.0081   20.9393 O   0  0  0  0  0  0  0  0  0  0  0  0
    2.6821  -11.0614   11.6232 N   0  0  0  0  0  0  0  0  0  0  0  0
    3.6976  -10.1130   14.2677 C   0  0  0  0  0  0  0  0  0  0  0  0
    3.5835  -11.3337   14.2499 O   0  0  0  0  0  0  0  0  0  0  0  0
    4.7045   -9.3334   13.3910 C   0  0  1  0  0  0  0  0  0  0  0  0
    4.9163  -10.0661   12.0507 C   0  0  0  0  0  0  0  0  0  0  0  0
    3.6951  -10.1325   11.1262 C   0  0  0  0  0  0  0  0  0  0  0  0
    4.2053   -7.9943   13.1740 O   0  0  0  0  0  0  0  0  0  0  0  0
  1  2  1  6  0  0  0
  1  3  1  0  0  0  0
  1  8  1  0  0  0  0
  3  4  1  0  0  0  0
  3 32  1  6  0  0  0
  4  5  1  0  0  0  0
  4 33  1  1  0  0  0
  5  6  1  6  0  0  0
  5  7  1  0  0  0  0
  7  8  1  0  0  0  0
  7  9  1  1  0  0  0
  9 10  1  0  0  0  0
 11 12  1  6  0  0  0
 11 13  1  0  0  0  0
 11 19  1  0  0  0  0
 12 35  1  0  0  0  0
 13 14  1  0  0  0  0
 14 15  1  6  0  0  0
 14 16  1  0  0  0  0
 16  2  1  1  0  0  0
 16 17  1  0  0  0  0
 17 18  1  1  0  0  0
 17 19  1  0  0  0  0
 19 20  1  1  0  0  0
 21 20  1  1  0  0  0
 21 22  1  0  0  0  0
 21 29  1  0  0  0  0
 22 23  1  6  0  0  0
 22 24  1  0  0  0  0
 24 25  1  1  0  0  0
 24 26  1  0  0  0  0
 26 27  1  1  0  0  0
 26 28  1  0  0  0  0
 28 29  1  0  0  0  0
 28 30  1  1  0  0  0
 30 31  1  0  0  0  0
 34 39  1  0  0  0  0
 35 36  2  0  0  0  0
 37 35  1  1  0  0  0
 37 38  1  0  0  0  0
 37 40  1  0  0  0  0
 38 39  1  0  0  0  0
M  END
>  <CHROM.1>
-167.97488449,-69.27959972,-100.43626888,-159.30172529,92.10790319,-174.82863952
-67.46412499,-148.67534857,65.71797369,-72.44128901,1.15012478,-8.96226271
17.77337806,-2.79972865,-0.08881742,-1.83875422

>  <Name>
2g5q_lig

>  <RI>
0

>  <Rbt.Current_Directory>
/home/itssahil/PROJECTS/Mol_Feturizer/New_Systems/rnas/2g5q

>  <Rbt.Executable>
rbdock ($Id: //depot/dev/client3/rdock/2013.1/src/exe/rbdock.cxx#4 $)

>  <Rbt.Library>
libRbt.so (2013.1, Build901 2013/11/27)

>  <Rbt.Parameter_File>
/export/apps/rDock/src/rDock_2013.1_src/data/scripts/dock_solv.prm

>  <Rbt.Receptor>
prm/pocket_docking_5.prm

>  <SCORE>
-18.7852

>  <SCORE.INTER>
-14.8965

>  <SCORE.INTER.CONST>
1

>  <SCORE.INTER.POLAR>
-1.87553

>  <SCORE.INTER.ROT>
10

>  <SCORE.INTER.SOLV>
18.4207

>  <SCORE.INTER.VDW>
-20.0861

>  <SCORE.INTER.norm>
-0.372412

>  <SCORE.INTRA>
-3.88877

>  <SCORE.INTRA.DIHEDRAL>
-12.0436

>  <SCORE.INTRA.DIHEDRAL.0>
22.5778

>  <SCORE.INTRA.POLAR>
0

>  <SCORE.INTRA.POLAR.0>
0

>  <SCORE.INTRA.REPUL>
0

>  <SCORE.INTRA.REPUL.0>
0

>  <SCORE.INTRA.SOLV>
3.81124

>  <SCORE.INTRA.SOLV.lig_0>
-102.332

>  <SCORE.INTRA.VDW>
0.227424

>  <SCORE.INTRA.VDW.0>
-5.08747

>  <SCORE.INTRA.norm>
-0.0972192

>  <SCORE.RESTR>
0

>  <SCORE.RESTR.CAVITY>
0

>  <SCORE.RESTR.norm>
0

>  <SCORE.SYSTEM>
0

>  <SCORE.SYSTEM.CONST>
0

>  <SCORE.SYSTEM.DIHEDRAL>
0

>  <SCORE.SYSTEM.SOLV>
0

>  <SCORE.SYSTEM.norm>
0

>  <SCORE.heavy>
40

>  <SCORE.norm>
-0.469631

>  <RMSD>
7.920

$$$$
2g5q_lig
 OpenBabel11021811433D
libRbt.so/2013.1/901 2013/11/27
 40 42  0  0  0  0  0  0  0  0999 V2000
    2.8274  -15.4569   15.5909 C   0  0  2  0  0  0  0  0  0  0  0  0
    3.1259  -14.5464   16.6259 O   0  0  0  0  0  0  0  0  0  0  0  0
    3.7089  -16.7279   15.7707 C   0  0  1  0  0  0  0  0  0  0  0  0
    5.2225  -16.4224   15.5488 C   0  0  2  0  0  0  0  0  0  0  0  0
    5.3887  -15.8708   14.1090 C   0  0  2  0  0  0  0  0  0  0  0  0
    6.7767  -15.5979   13.8570 O   0  0  0  0  0  0  0  0  0  0  0  0
    4.5162  -14.5572   13.9771 C   0  0  2  0  0  0  0  0  0  0  0  0
    3.0836  -14.8664   14.2509 O   0  0  0  0  0  0  0  0  0  0  0  0
    4.5945  -13.9338   12.5876 C   0  0  0  0  0  0  0  0  0  0  0  0
    3.8586  -12.6319   12.5137 N   0  0  0  0  0  0  0  0  0  0  0  0
    0.9549  -11.0943   18.1905 C   0  0  2  0  0  0  0  0  0  0  0  0
    0.3622   -9.7661   18.2914 N   0  0  0  0  0  0  0  0  0  0  0  0
    2.5248  -10.9810   17.9940 C   0  0  0  0  0  0  0  0  0  0  0  0
    3.1721  -12.4180   17.8914 C   0  0  2  0  0  0  0  0  0  0  0  0
    4.6451  -12.2980   17.7187 N   0  0  0  0  0  0  0  0  0  0  0  0
    2.5143  -13.2081   16.6910 C   0  0  2  0  0  0  0  0  0  0  0  0
    0.9533  -13.2965   16.9195 C   0  0  2  0  0  0  0  0  0  0  0  0
    0.3592  -14.0067   15.8284 O   0  0  0  0  0  0  0  0  0  0  0  0
    0.3259  -11.8528   17.0034 C   0  0  1  0  0  0  0  0  0  0  0  0
   -1.1099  -11.9370   17.2263 O   0  0  0  0  0  0  0  0  0  0  0  0
   -2.0041  -12.6072   16.3722 C   0  0  2  0  0  0  0  0  0  0  0  0
   -3.4451  -12.0885   16.7007 C   0  0  2  0  0  0  0  0  0  0  0  0
   -3.5043  -10.7146   16.4876 O   0  0  0  0  0  0  0  0  0  0  0  0
   -3.8560  -12.4477   18.1787 C   0  0  1  0  0  0  0  0  0  0  0  0
   -5.2370  -11.9588   18.5016 N   0  0  0  0  0  0  0  0  0  0  0  0
   -3.7616  -14.0155   18.3531 C   0  0  2  0  0  0  0  0  0  0  0  0
   -4.1314  -14.4044   19.6775 O   0  0  0  0  0  0  0  0  0  0  0  0
   -2.3015  -14.4685   18.0131 C   0  0  2  0  0  0  0  0  0  0  0  0
   -1.9211  -14.0580   16.6178 O   0  0  0  0  0  0  0  0  0  0  0  0
   -2.1402  -15.9567   18.1262 C   0  0  0  0  0  0  0  0  0  0  0  0
   -3.0296  -16.6473   17.2334 O   0  0  0  0  0  0  0  0  0  0  0  0
    3.4707  -17.2687   17.1157 O   0  0  0  0  0  0  0  0  0  0  0  0
    5.9515  -17.5804   15.7064 O   0  0  0  0  0  0  0  0  0  0  0  0
   -4.6935   -6.2798   18.7039 N   0  0  0  0  0  0  0  0  0  0  0  0
   -0.8486   -9.4738   18.9037 C   0  0  0  0  0  0  0  0  0  0  0  0
   -1.5693  -10.3148   19.4296 O   0  0  0  0  0  0  0  0  0  0  0  0
   -1.1971   -7.9691   18.8339 C   0  0  1  0  0  0  0  0  0  0  0  0
   -2.7243   -7.7756   18.9259 C   0  0  0  0  0  0  0  0  0  0  0  0
   -3.2352   -6.3573   18.6470 C   0  0  0  0  0  0  0  0  0  0  0  0
   -0.5233   -7.2770   19.9092 O   0  0  0  0  0  0  0  0  0  0  0  0
  1  2  1  1  0  0  0
  1  3  1  0  0  0  0
  1  8  1  0  0  0  0
  3  4  1  0  0  0  0
  3 32  1  1  0  0  0
  4  5  1  0  0  0  0
  4 33  1  6  0  0  0
  5  6  1  1  0  0  0
  5  7  1  0  0  0  0
  7  8  1  0  0  0  0
  7  9  1  6  0  0  0
  9 10  1  0  0  0  0
 11 12  1  6  0  0  0
 11 13  1  0  0  0  0
 11 19  1  0  0  0  0
 12 35  1  0  0  0  0
 13 14  1  0  0  0  0
 14 15  1  6  0  0  0
 14 16  1  0  0  0  0
 16  2  1  1  0  0  0
 16 17  1  0  0  0  0
 17 18  1  6  0  0  0
 17 19  1  0  0  0  0
 19 20  1  1  0  0  0
 21 20  1  1  0  0  0
 21 22  1  0  0  0  0
 21 29  1  0  0  0  0
 22 23  1  1  0  0  0
 22 24  1  0  0  0  0
 24 25  1  6  0  0  0
 24 26  1  0  0  0  0
 26 27  1  1  0  0  0
 26 28  1  0  0  0  0
 28 29  1  0  0  0  0
 28 30  1  6  0  0  0
 30 31  1  0  0  0  0
 34 39  1  0  0  0  0
 35 36  2  0  0  0  0
 37 35  1  1  0  0  0
 37 38  1  0  0  0  0
 37 40  1  0  0  0  0
 38 39  1  0  0  0  0
M  END
>  <CHROM.1>
176.29508729,-175.14472867,-156.62212559,-174.79332461,-177.44161680,-162.35585939
59.61996703,154.82388366,-170.63238587,177.72259050,0.42619991,-12.81811213
16.97238096,0.66734937,-0.31169813,-2.95346437

>  <Name>
2g5q_lig

>  <RI>
2.90231e+07

>  <Rbt.Current_Directory>
/home/itssahil/PROJECTS/Mol_Feturizer/New_Systems/rnas/2g5q

>  <Rbt.Executable>
rbdock ($Id: //depot/dev/client3/rdock/2013.1/src/exe/rbdock.cxx#4 $)

>  <Rbt.Library>
libRbt.so (2013.1, Build901 2013/11/27)

>  <Rbt.Parameter_File>
/export/apps/rDock/src/rDock_2013.1_src/data/scripts/dock_solv.prm

>  <Rbt.Receptor>
prm/pocket_docking_6.prm

>  <SCORE>
-10.8469

>  <SCORE.INTER>
-2.58759

>  <SCORE.INTER.CONST>
1

>  <SCORE.INTER.POLAR>
0

>  <SCORE.INTER.ROT>
10

>  <SCORE.INTER.SOLV>
13.0687

>  <SCORE.INTER.VDW>
-16.348

>  <SCORE.INTER.norm>
-0.0646898

>  <SCORE.INTRA>
-8.25926

>  <SCORE.INTRA.DIHEDRAL>
-18.6917

>  <SCORE.INTRA.DIHEDRAL.0>
22.5778

>  <SCORE.INTRA.POLAR>
0

>  <SCORE.INTRA.POLAR.0>
0

>  <SCORE.INTRA.REPUL>
0

>  <SCORE.INTRA.REPUL.0>
0

>  <SCORE.INTRA.SOLV>
-0.0710912

>  <SCORE.INTRA.SOLV.lig_0>
-102.332

>  <SCORE.INTRA.VDW>
1.12213

>  <SCORE.INTRA.VDW.0>
-5.08747

>  <SCORE.INTRA.norm>
-0.206482

>  <SCORE.RESTR>
0

>  <SCORE.RESTR.CAVITY>
0

>  <SCORE.RESTR.norm>
0

>  <SCORE.SYSTEM>
0

>  <SCORE.SYSTEM.CONST>
0

>  <SCORE.SYSTEM.DIHEDRAL>
0

>  <SCORE.SYSTEM.SOLV>
0

>  <SCORE.SYSTEM.norm>
0

>  <SCORE.heavy>
40

>  <SCORE.norm>
-0.271171

>  <RMSD>
7.923

$$$$
2g5q_lig
 OpenBabel11021811433D
libRbt.so/2013.1/901 2013/11/27
 40 42  0  0  0  0  0  0  0  0999 V2000
    1.2222  -12.2965   13.1895 C   0  0  2  0  0  0  0  0  0  0  0  0
    1.5583  -12.3552   14.5581 O   0  0  0  0  0  0  0  0  0  0  0  0
    1.9255  -13.4719   12.4490 C   0  0  1  0  0  0  0  0  0  0  0  0
    3.4770  -13.3090   12.4405 C   0  0  2  0  0  0  0  0  0  0  0  0
    3.8093  -11.9709   11.7306 C   0  0  2  0  0  0  0  0  0  0  0  0
    5.2344  -11.7948   11.6818 O   0  0  0  0  0  0  0  0  0  0  0  0
    3.1168  -10.7972   12.5349 C   0  0  2  0  0  0  0  0  0  0  0  0
    1.6415  -11.0084   12.5771 O   0  0  0  0  0  0  0  0  0  0  0  0
    3.3674   -9.4275   11.9131 C   0  0  0  0  0  0  0  0  0  0  0  0
    4.8234   -9.0793   11.8895 N   0  0  0  0  0  0  0  0  0  0  0  0
   -0.4659  -11.3119   18.2852 C   0  0  2  0  0  0  0  0  0  0  0  0
   -1.1462  -10.5385   19.3171 N   0  0  0  0  0  0  0  0  0  0  0  0
    0.9736  -10.7073   18.0060 C   0  0  0  0  0  0  0  0  0  0  0  0
    1.7171  -11.5466   16.8937 C   0  0  2  0  0  0  0  0  0  0  0  0
    3.0695  -10.9764   16.6492 N   0  0  0  0  0  0  0  0  0  0  0  0
    0.8494  -11.5568   15.5727 C   0  0  2  0  0  0  0  0  0  0  0  0
   -0.5758  -12.1606   15.8910 C   0  0  2  0  0  0  0  0  0  0  0  0
   -1.3617  -12.1629   14.6950 O   0  0  0  0  0  0  0  0  0  0  0  0
   -1.3059  -11.2996   16.9913 C   0  0  1  0  0  0  0  0  0  0  0  0
   -2.6130  -11.8650   17.2914 O   0  0  0  0  0  0  0  0  0  0  0  0
   -3.6245  -12.0681   16.3354 C   0  0  2  0  0  0  0  0  0  0  0  0
   -4.2936  -10.6795   16.0576 C   0  0  2  0  0  0  0  0  0  0  0  0
   -3.3376   -9.7911   15.5747 O   0  0  0  0  0  0  0  0  0  0  0  0
   -4.9863  -10.1120   17.3541 C   0  0  1  0  0  0  0  0  0  0  0  0
   -5.6343   -8.7837   17.0970 N   0  0  0  0  0  0  0  0  0  0  0  0
   -6.0515  -11.1684   17.8507 C   0  0  2  0  0  0  0  0  0  0  0  0
   -6.7208  -10.7043   19.0249 O   0  0  0  0  0  0  0  0  0  0  0  0
   -5.3212  -12.5290   18.1115 C   0  0  2  0  0  0  0  0  0  0  0  0
   -4.6219  -13.0116   16.8713 O   0  0  0  0  0  0  0  0  0  0  0  0
   -6.2771  -13.5967   18.5584 C   0  0  0  0  0  0  0  0  0  0  0  0
   -7.2809  -13.8488   17.5616 O   0  0  0  0  0  0  0  0  0  0  0  0
    1.5298  -14.7292   13.0977 O   0  0  0  0  0  0  0  0  0  0  0  0
    4.0448  -14.3657   11.7635 O   0  0  0  0  0  0  0  0  0  0  0  0
   -3.9909  -11.9218   21.9301 N   0  0  0  0  0  0  0  0  0  0  0  0
   -1.7151   -9.2858   19.1348 C   0  0  0  0  0  0  0  0  0  0  0  0
   -1.7018   -8.6773   18.0704 O   0  0  0  0  0  0  0  0  0  0  0  0
   -2.3537   -8.7334   20.4300 C   0  0  1  0  0  0  0  0  0  0  0  0
   -2.6649   -9.8905   21.4008 C   0  0  0  0  0  0  0  0  0  0  0  0
   -3.7296  -10.8883   20.9304 C   0  0  0  0  0  0  0  0  0  0  0  0
   -1.4498   -7.7812   21.0345 O   0  0  0  0  0  0  0  0  0  0  0  0
  1  2  1  1  0  0  0
  1  3  1  0  0  0  0
  1  8  1  0  0  0  0
  3  4  1  0  0  0  0
  3 32  1  1  0  0  0
  4  5  1  0  0  0  0
  4 33  1  6  0  0  0
  5  6  1  1  0  0  0
  5  7  1  0  0  0  0
  7  8  1  0  0  0  0
  7  9  1  6  0  0  0
  9 10  1  0  0  0  0
 11 12  1  1  0  0  0
 11 13  1  0  0  0  0
 11 19  1  0  0  0  0
 12 35  1  0  0  0  0
 13 14  1  0  0  0  0
 14 15  1  6  0  0  0
 14 16  1  0  0  0  0
 16  2  1  6  0  0  0
 16 17  1  0  0  0  0
 17 18  1  6  0  0  0
 17 19  1  0  0  0  0
 19 20  1  1  0  0  0
 21 20  1  1  0  0  0
 21 22  1  0  0  0  0
 21 29  1  0  0  0  0
 22 23  1  1  0  0  0
 22 24  1  0  0  0  0
 24 25  1  6  0  0  0
 24 26  1  0  0  0  0
 26 27  1  1  0  0  0
 26 28  1  0  0  0  0
 28 29  1  0  0  0  0
 28 30  1  6  0  0  0
 30 31  1  0  0  0  0
 34 39  1  0  0  0  0
 35 36  2  0  0  0  0
 37 35  1  6  0  0  0
 37 38  1  0  0  0  0
 37 40  1  0  0  0  0
 38 39  1  0  0  0  0
M  END
>  <CHROM.1>
-167.46580521,-61.62112821,75.27126127,-164.32263558,-177.04391868,-77.88618172
60.70563302,-21.46857245,-65.41637745,-178.07343234,-1.03163770,-11.32289166
16.29545555,0.60229516,-0.35368870,-2.18998056

>  <Name>
2g5q_lig

>  <RI>
0

>  <Rbt.Current_Directory>
/home/itssahil/PROJECTS/Mol_Feturizer/New_Systems/rnas/2g5q

>  <Rbt.Executable>
rbdock ($Id: //depot/dev/client3/rdock/2013.1/src/exe/rbdock.cxx#4 $)

>  <Rbt.Library>
libRbt.so (2013.1, Build901 2013/11/27)

>  <Rbt.Parameter_File>
/export/apps/rDock/src/rDock_2013.1_src/data/scripts/dock_solv.prm

>  <Rbt.Receptor>
prm/pocket_docking_5.prm

>  <SCORE>
-9.83098

>  <SCORE.INTER>
-3.38304

>  <SCORE.INTER.CONST>
1

>  <SCORE.INTER.POLAR>
-0.69711

>  <SCORE.INTER.ROT>
10

>  <SCORE.INTER.SOLV>
9.38137

>  <SCORE.INTER.VDW>
-13.3254

>  <SCORE.INTER.norm>
-0.0845761

>  <SCORE.INTRA>
-6.44794

>  <SCORE.INTRA.DIHEDRAL>
-16.8511

>  <SCORE.INTRA.DIHEDRAL.0>
22.5778

>  <SCORE.INTRA.POLAR>
0

>  <SCORE.INTRA.POLAR.0>
0

>  <SCORE.INTRA.REPUL>
0

>  <SCORE.INTRA.REPUL.0>
0

>  <SCORE.INTRA.SOLV>
2.78759

>  <SCORE.INTRA.SOLV.lig_0>
-102.332

>  <SCORE.INTRA.VDW>
0.583834

>  <SCORE.INTRA.VDW.0>
-5.08747

>  <SCORE.INTRA.norm>
-0.161198

>  <SCORE.RESTR>
0

>  <SCORE.RESTR.CAVITY>
0

>  <SCORE.RESTR.norm>
0

>  <SCORE.SYSTEM>
0

>  <SCORE.SYSTEM.CONST>
0

>  <SCORE.SYSTEM.DIHEDRAL>
0

>  <SCORE.SYSTEM.SOLV>
0

>  <SCORE.SYSTEM.norm>
0

>  <SCORE.heavy>
40

>  <SCORE.norm>
-0.245775

>  <RMSD>
7.942

$$$$
2g5q_lig
 OpenBabel11021811433D
libRbt.so/2013.1/901 2013/11/27
 40 42  0  0  0  0  0  0  0  0999 V2000
   -3.6881   -9.7605   18.2672 C   0  0  2  0  0  0  0  0  0  0  0  0
   -2.5582   -9.2921   17.5648 O   0  0  0  0  0  0  0  0  0  0  0  0
   -3.6748  -11.3176   18.2582 C   0  0  1  0  0  0  0  0  0  0  0  0
   -3.8854  -11.8930   16.8236 C   0  0  2  0  0  0  0  0  0  0  0  0
   -5.2528  -11.3792   16.3027 C   0  0  2  0  0  0  0  0  0  0  0  0
   -5.4948  -11.9076   14.9887 O   0  0  0  0  0  0  0  0  0  0  0  0
   -5.2135   -9.7974   16.2829 C   0  0  2  0  0  0  0  0  0  0  0  0
   -4.9533   -9.2760   17.6553 O   0  0  0  0  0  0  0  0  0  0  0  0
   -6.5209   -9.1807   15.7972 C   0  0  0  0  0  0  0  0  0  0  0  0
   -6.5061   -7.6864   15.8906 N   0  0  0  0  0  0  0  0  0  0  0  0
    1.3755   -7.6424   18.5039 C   0  0  2  0  0  0  0  0  0  0  0  0
    2.6664   -7.4322   19.1482 N   0  0  0  0  0  0  0  0  0  0  0  0
    0.2014   -7.4554   19.5538 C   0  0  0  0  0  0  0  0  0  0  0  0
   -1.1994   -7.6752   18.8583 C   0  0  2  0  0  0  0  0  0  0  0  0
   -2.2919   -7.4861   19.8506 N   0  0  0  0  0  0  0  0  0  0  0  0
   -1.2487   -9.1186   18.2161 C   0  0  2  0  0  0  0  0  0  0  0  0
   -0.0640   -9.2682   17.1812 C   0  0  2  0  0  0  0  0  0  0  0  0
   -0.1068  -10.5778   16.6058 O   0  0  0  0  0  0  0  0  0  0  0  0
    1.3242   -9.0606   17.8987 C   0  0  1  0  0  0  0  0  0  0  0  0
    2.4128   -9.1867   16.9409 O   0  0  0  0  0  0  0  0  0  0  0  0
    3.0092  -10.4079   16.5789 C   0  0  2  0  0  0  0  0  0  0  0  0
    4.4025  -10.0797   15.9432 C   0  0  2  0  0  0  0  0  0  0  0  0
    5.1911   -9.4086   16.8728 O   0  0  0  0  0  0  0  0  0  0  0  0
    4.2411   -9.2321   14.6248 C   0  0  1  0  0  0  0  0  0  0  0  0
    5.5705   -8.9164   14.0057 N   0  0  0  0  0  0  0  0  0  0  0  0
    3.3338  -10.0463   13.6192 C   0  0  2  0  0  0  0  0  0  0  0  0
    3.1567   -9.3283   12.3964 O   0  0  0  0  0  0  0  0  0  0  0  0
    1.9602  -10.3397   14.3117 C   0  0  2  0  0  0  0  0  0  0  0  0
    2.1548  -11.0972   15.5955 O   0  0  0  0  0  0  0  0  0  0  0  0
    1.0506  -11.1408   13.4259 C   0  0  0  0  0  0  0  0  0  0  0  0
   -0.2630  -11.2580   13.9966 O   0  0  0  0  0  0  0  0  0  0  0  0
   -2.3991  -11.7719   18.8277 O   0  0  0  0  0  0  0  0  0  0  0  0
   -3.8782  -13.2694   16.8764 O   0  0  0  0  0  0  0  0  0  0  0  0
    4.7395  -10.7034   21.0136 N   0  0  0  0  0  0  0  0  0  0  0  0
    3.0883   -8.0504   20.3170 C   0  0  0  0  0  0  0  0  0  0  0  0
    2.4083   -8.8491   20.9518 O   0  0  0  0  0  0  0  0  0  0  0  0
    4.5074   -7.6062   20.7405 C   0  0  1  0  0  0  0  0  0  0  0  0
    5.5625   -8.5404   20.1141 C   0  0  0  0  0  0  0  0  0  0  0  0
    5.8898   -9.8076   20.9126 C   0  0  0  0  0  0  0  0  0  0  0  0
    4.7184   -6.2377   20.3257 O   0  0  0  0  0  0  0  0  0  0  0  0
  1  2  1  6  0  0  0
  1  3  1  0  0  0  0
  1  8  1  0  0  0  0
  3  4  1  0  0  0  0
  3 32  1  6  0  0  0
  4  5  1  0  0  0  0
  4 33  1  1  0  0  0
  5  6  1  6  0  0  0
  5  7  1  0  0  0  0
  7  8  1  0  0  0  0
  7  9  1  1  0  0  0
  9 10  1  0  0  0  0
 11 12  1  1  0  0  0
 11 13  1  0  0  0  0
 11 19  1  0  0  0  0
 12 35  1  0  0  0  0
 13 14  1  0  0  0  0
 14 15  1  1  0  0  0
 14 16  1  0  0  0  0
 16  2  1  6  0  0  0
 16 17  1  0  0  0  0
 17 18  1  1  0  0  0
 17 19  1  0  0  0  0
 19 20  1  6  0  0  0
 21 20  1  6  0  0  0
 21 22  1  0  0  0  0
 21 29  1  0  0  0  0
 22 23  1  1  0  0  0
 22 24  1  0  0  0  0
 24 25  1  6  0  0  0
 24 26  1  0  0  0  0
 26 27  1  6  0  0  0
 26 28  1  0  0  0  0
 28 29  1  0  0  0  0
 28 30  1  6  0  0  0
 30 31  1  0  0  0  0
 34 39  1  0  0  0  0
 35 36  2  0  0  0  0
 37 35  1  6  0  0  0
 37 38  1  0  0  0  0
 37 40  1  0  0  0  0
 38 39  1  0  0  0  0
M  END
>  <CHROM.1>
-85.82155149,175.33297349,51.25948584,-87.05019394,154.50913883,-160.92748925
-172.57227495,-90.32481510,-86.74797406,64.58440523,0.33005054,-9.58960720
17.27953023,2.92804900,-0.09905150,-1.92362535

>  <Name>
2g5q_lig

>  <RI>
9.52566e+06

>  <Rbt.Current_Directory>
/home/itssahil/PROJECTS/Mol_Feturizer/New_Systems/rnas/2g5q

>  <Rbt.Executable>
rbdock ($Id: //depot/dev/client3/rdock/2013.1/src/exe/rbdock.cxx#4 $)

>  <Rbt.Library>
libRbt.so (2013.1, Build901 2013/11/27)

>  <Rbt.Parameter_File>
/export/apps/rDock/src/rDock_2013.1_src/data/scripts/dock_solv.prm

>  <Rbt.Receptor>
prm/pocket_docking_4.prm

>  <SCORE>
-9.86313

>  <SCORE.INTER>
-7.3256

>  <SCORE.INTER.CONST>
1

>  <SCORE.INTER.POLAR>
-0.960535

>  <SCORE.INTER.ROT>
10

>  <SCORE.INTER.SOLV>
13.4202

>  <SCORE.INTER.VDW>
-16.422

>  <SCORE.INTER.norm>
-0.18314

>  <SCORE.INTRA>
-2.53753

>  <SCORE.INTRA.DIHEDRAL>
-8.12752

>  <SCORE.INTRA.DIHEDRAL.0>
22.5778

>  <SCORE.INTRA.POLAR>
0

>  <SCORE.INTRA.POLAR.0>
0

>  <SCORE.INTRA.REPUL>
0

>  <SCORE.INTRA.REPUL.0>
0

>  <SCORE.INTRA.SOLV>
3.70195

>  <SCORE.INTRA.SOLV.lig_0>
-102.332

>  <SCORE.INTRA.VDW>
-0.324744

>  <SCORE.INTRA.VDW.0>
-5.08747

>  <SCORE.INTRA.norm>
-0.0634382

>  <SCORE.RESTR>
0

>  <SCORE.RESTR.CAVITY>
0

>  <SCORE.RESTR.norm>
0

>  <SCORE.SYSTEM>
0

>  <SCORE.SYSTEM.CONST>
0

>  <SCORE.SYSTEM.DIHEDRAL>
0

>  <SCORE.SYSTEM.SOLV>
0

>  <SCORE.SYSTEM.norm>
0

>  <SCORE.heavy>
40

>  <SCORE.norm>
-0.246578

>  <RMSD>
7.949

$$$$
2g5q_lig
 OpenBabel11021811433D
libRbt.so/2013.1/901 2013/11/27
 40 42  0  0  0  0  0  0  0  0999 V2000
    5.2382   -3.4364   24.2820 C   0  0  2  0  0  0  0  0  0  0  0  0
    4.1762   -3.6550   23.3798 O   0  0  0  0  0  0  0  0  0  0  0  0
    4.6462   -3.0654   25.6737 C   0  0  1  0  0  0  0  0  0  0  0  0
    3.9149   -1.6877   25.6463 C   0  0  2  0  0  0  0  0  0  0  0  0
    4.9451   -0.6125   25.2133 C   0  0  2  0  0  0  0  0  0  0  0  0
    4.3139    0.6781   25.1982 O   0  0  0  0  0  0  0  0  0  0  0  0
    5.4907   -0.9974   23.7787 C   0  0  2  0  0  0  0  0  0  0  0  0
    6.1327   -2.3424   23.8206 O   0  0  0  0  0  0  0  0  0  0  0  0
    6.5282   -0.0089   23.2571 C   0  0  0  0  0  0  0  0  0  0  0  0
    7.7020    0.1119   24.1786 N   0  0  0  0  0  0  0  0  0  0  0  0
    3.4625   -6.1382   19.8582 C   0  0  2  0  0  0  0  0  0  0  0  0
    3.6302   -6.7589   18.5496 N   0  0  0  0  0  0  0  0  0  0  0  0
    3.3683   -4.5618   19.7096 C   0  0  0  0  0  0  0  0  0  0  0  0
    3.1793   -3.8857   21.1244 C   0  0  2  0  0  0  0  0  0  0  0  0
    3.0813   -2.4090   20.9702 N   0  0  0  0  0  0  0  0  0  0  0  0
    4.3837   -4.2873   22.0659 C   0  0  2  0  0  0  0  0  0  0  0  0
    4.4477   -5.8616   22.1858 C   0  0  2  0  0  0  0  0  0  0  0  0
    5.5426   -6.2231   23.0335 O   0  0  0  0  0  0  0  0  0  0  0  0
    4.6519   -6.5147   20.7657 C   0  0  1  0  0  0  0  0  0  0  0  0
    4.6982   -7.9651   20.8775 O   0  0  0  0  0  0  0  0  0  0  0  0
    5.4135   -8.6587   21.8703 C   0  0  2  0  0  0  0  0  0  0  0  0
    5.9674   -9.9712   21.2193 C   0  0  2  0  0  0  0  0  0  0  0  0
    6.8021   -9.6455   20.1545 O   0  0  0  0  0  0  0  0  0  0  0  0
    4.7944  -10.9118   20.7484 C   0  0  1  0  0  0  0  0  0  0  0  0
    5.3150  -12.1742   20.1274 N   0  0  0  0  0  0  0  0  0  0  0  0
    3.8856  -11.2364   21.9998 C   0  0  2  0  0  0  0  0  0  0  0  0
    2.8037  -12.0959   21.6351 O   0  0  0  0  0  0  0  0  0  0  0  0
    3.3639   -9.8877   22.6011 C   0  0  2  0  0  0  0  0  0  0  0  0
    4.5076   -8.9905   22.9844 O   0  0  0  0  0  0  0  0  0  0  0  0
    2.5142  -10.1130   23.8180 C   0  0  0  0  0  0  0  0  0  0  0  0
    3.2418  -10.8137   24.8400 O   0  0  0  0  0  0  0  0  0  0  0  0
    3.7342   -4.1396   26.0890 O   0  0  0  0  0  0  0  0  0  0  0  0
    3.4242   -1.4045   26.9019 O   0  0  0  0  0  0  0  0  0  0  0  0
    5.4803   -7.2646   14.5019 N   0  0  0  0  0  0  0  0  0  0  0  0
    2.6537   -7.4756   17.8721 C   0  0  0  0  0  0  0  0  0  0  0  0
    1.5257   -7.6758   18.3091 O   0  0  0  0  0  0  0  0  0  0  0  0
    3.1522   -8.0095   16.5094 C   0  0  1  0  0  0  0  0  0  0  0  0
    4.6582   -8.3322   16.5873 C   0  0  0  0  0  0  0  0  0  0  0  0
    5.3709   -8.5195   15.2429 C   0  0  0  0  0  0  0  0  0  0  0  0
    2.3899   -9.1851   16.1543 O   0  0  0  0  0  0  0  0  0  0  0  0
  1  2  1  6  0  0  0
  1  3  1  0  0  0  0
  1  8  1  0  0  0  0
  3  4  1  0  0  0  0
  3 32  1  6  0  0  0
  4  5  1  0  0  0  0
  4 33  1  1  0  0  0
  5  6  1  6  0  0  0
  5  7  1  0  0  0  0
  7  8  1  0  0  0  0
  7  9  1  1  0  0  0
  9 10  1  0  0  0  0
 11 12  1  6  0  0  0
 11 13  1  0  0  0  0
 11 19  1  0  0  0  0
 12 35  1  0  0  0  0
 13 14  1  0  0  0  0
 14 15  1  6  0  0  0
 14 16  1  0  0  0  0
 16  2  1  1  0  0  0
 16 17  1  0  0  0  0
 17 18  1  1  0  0  0
 17 19  1  0  0  0  0
 19 20  1  1  0  0  0
 21 20  1  6  0  0  0
 21 22  1  0  0  0  0
 21 29  1  0  0  0  0
 22 23  1  6  0  0  0
 22 24  1  0  0  0  0
 24 25  1  1  0  0  0
 24 26  1  0  0  0  0
 26 27  1  6  0  0  0
 26 28  1  0  0  0  0
 28 29  1  0  0  0  0
 28 30  1  1  0  0  0
 30 31  1  0  0  0  0
 34 39  1  0  0  0  0
 35 36  2  0  0  0  0
 37 35  1  1  0  0  0
 37 38  1  0  0  0  0
 37 40  1  0  0  0  0
 38 39  1  0  0  0  0
M  END
>  <CHROM.1>
-167.12138460,58.03145910,-107.15805769,-158.46908950,-163.11356519,-144.93366760
58.65944177,32.23585599,-164.69422353,69.29156885,4.35534714,-6.16641265
21.63304446,0.55670859,1.47006028,1.62371253

>  <Name>
2g5q_lig

>  <RI>
224

>  <Rbt.Current_Directory>
/home/itssahil/PROJECTS/Mol_Feturizer/New_Systems/rnas/2g5q

>  <Rbt.Executable>
rbdock ($Id: //depot/dev/client3/rdock/2013.1/src/exe/rbdock.cxx#4 $)

>  <Rbt.Library>
libRbt.so (2013.1, Build901 2013/11/27)

>  <Rbt.Parameter_File>
/export/apps/rDock/src/rDock_2013.1_src/data/scripts/dock_solv.prm

>  <Rbt.Receptor>
prm/pocket_docking_8.prm

>  <SCORE>
-32.4221

>  <SCORE.INTER>
-29.6265

>  <SCORE.INTER.CONST>
1

>  <SCORE.INTER.POLAR>
-3.09247

>  <SCORE.INTER.ROT>
10

>  <SCORE.INTER.SOLV>
20.7871

>  <SCORE.INTER.VDW>
-26.6385

>  <SCORE.INTER.norm>
-0.740662

>  <SCORE.INTRA>
-2.79556

>  <SCORE.INTRA.DIHEDRAL>
-10.1586

>  <SCORE.INTRA.DIHEDRAL.0>
22.5778

>  <SCORE.INTRA.POLAR>
0

>  <SCORE.INTRA.POLAR.0>
0

>  <SCORE.INTRA.REPUL>
0

>  <SCORE.INTRA.REPUL.0>
0

>  <SCORE.INTRA.SOLV>
1.09288

>  <SCORE.INTRA.SOLV.lig_0>
-102.332

>  <SCORE.INTRA.VDW>
1.7373

>  <SCORE.INTRA.VDW.0>
-5.08747

>  <SCORE.INTRA.norm>
-0.0698889

>  <SCORE.RESTR>
0

>  <SCORE.RESTR.CAVITY>
0

>  <SCORE.RESTR.norm>
0

>  <SCORE.SYSTEM>
0

>  <SCORE.SYSTEM.CONST>
0

>  <SCORE.SYSTEM.DIHEDRAL>
0

>  <SCORE.SYSTEM.SOLV>
0

>  <SCORE.SYSTEM.norm>
0

>  <SCORE.heavy>
40

>  <SCORE.norm>
-0.810551

>  <RMSD>
7.957

$$$$
2g5q_lig
 OpenBabel11021811433D
libRbt.so/2013.1/901 2013/11/27
 40 42  0  0  0  0  0  0  0  0999 V2000
   -3.1635  -11.5137   15.7407 C   0  0  2  0  0  0  0  0  0  0  0  0
   -2.7313  -10.3598   16.4272 O   0  0  0  0  0  0  0  0  0  0  0  0
   -4.7204  -11.5408   15.7350 C   0  0  1  0  0  0  0  0  0  0  0  0
   -5.3041  -11.7410   17.1677 C   0  0  2  0  0  0  0  0  0  0  0  0
   -4.7603  -13.0851   17.7177 C   0  0  2  0  0  0  0  0  0  0  0  0
   -5.2951  -13.3177   19.0308 O   0  0  0  0  0  0  0  0  0  0  0  0
   -3.1803  -13.0045   17.7515 C   0  0  2  0  0  0  0  0  0  0  0  0
   -2.6525  -12.7549   16.3796 O   0  0  0  0  0  0  0  0  0  0  0  0
   -2.5348  -14.2866   18.2661 C   0  0  0  0  0  0  0  0  0  0  0  0
   -1.0507  -14.1501   18.4094 N   0  0  0  0  0  0  0  0  0  0  0  0
    1.3559   -8.8224   16.5192 C   0  0  2  0  0  0  0  0  0  0  0  0
    2.7389   -8.6012   16.9244 N   0  0  0  0  0  0  0  0  0  0  0  0
    0.3696   -8.4331   17.6989 C   0  0  0  0  0  0  0  0  0  0  0  0
   -1.1303   -8.6645   17.2615 C   0  0  2  0  0  0  0  0  0  0  0  0
   -2.0451   -8.2852   18.3721 N   0  0  0  0  0  0  0  0  0  0  0  0
   -1.3301  -10.1750   16.8416 C   0  0  2  0  0  0  0  0  0  0  0  0
   -0.3297  -10.5259   15.6699 C   0  0  2  0  0  0  0  0  0  0  0  0
   -0.5080  -11.8956   15.2956 O   0  0  0  0  0  0  0  0  0  0  0  0
    1.1607  -10.3030   16.1322 C   0  0  1  0  0  0  0  0  0  0  0  0
    2.0793  -10.6151   15.0473 O   0  0  0  0  0  0  0  0  0  0  0  0
    1.9143  -10.1762   13.7213 C   0  0  2  0  0  0  0  0  0  0  0  0
    2.2363  -11.3878   12.7823 C   0  0  2  0  0  0  0  0  0  0  0  0
    1.3648  -12.4363   13.0609 O   0  0  0  0  0  0  0  0  0  0  0  0
    3.7360  -11.8452   12.9375 C   0  0  1  0  0  0  0  0  0  0  0  0
    4.0556  -13.0027   12.0384 N   0  0  0  0  0  0  0  0  0  0  0  0
    4.6676  -10.6104   12.6138 C   0  0  2  0  0  0  0  0  0  0  0  0
    6.0464  -10.9673   12.7312 O   0  0  0  0  0  0  0  0  0  0  0  0
    4.2980   -9.4383   13.5844 C   0  0  2  0  0  0  0  0  0  0  0  0
    2.8471   -9.0672   13.4532 O   0  0  0  0  0  0  0  0  0  0  0  0
    5.1231   -8.2131   13.3167 C   0  0  0  0  0  0  0  0  0  0  0  0
    4.7768   -7.1446   14.2130 O   0  0  0  0  0  0  0  0  0  0  0  0
   -5.2020  -10.2875   15.1386 O   0  0  0  0  0  0  0  0  0  0  0  0
   -6.6797  -11.7705   17.1020 O   0  0  0  0  0  0  0  0  0  0  0  0
    6.8237  -11.5398   16.4960 N   0  0  0  0  0  0  0  0  0  0  0  0
    3.3351   -9.1307   18.0604 C   0  0  0  0  0  0  0  0  0  0  0  0
    2.7535   -9.8488   18.8662 O   0  0  0  0  0  0  0  0  0  0  0  0
    4.8127   -8.6997   18.2067 C   0  0  1  0  0  0  0  0  0  0  0  0
    5.6841   -9.4401   17.1720 C   0  0  0  0  0  0  0  0  0  0  0  0
    5.7987  -10.9573   17.3597 C   0  0  0  0  0  0  0  0  0  0  0  0
    4.9076   -7.2681   18.0316 O   0  0  0  0  0  0  0  0  0  0  0  0
  1  2  1  1  0  0  0
  1  3  1  0  0  0  0
  1  8  1  0  0  0  0
  3  4  1  0  0  0  0
  3 32  1  1  0  0  0
  4  5  1  0  0  0  0
  4 33  1  6  0  0  0
  5  6  1  1  0  0  0
  5  7  1  0  0  0  0
  7  8  1  0  0  0  0
  7  9  1  6  0  0  0
  9 10  1  0  0  0  0
 11 12  1  1  0  0  0
 11 13  1  0  0  0  0
 11 19  1  0  0  0  0
 12 35  1  0  0  0  0
 13 14  1  0  0  0  0
 14 15  1  1  0  0  0
 14 16  1  0  0  0  0
 16  2  1  6  0  0  0
 16 17  1  0  0  0  0
 17 18  1  1  0  0  0
 17 19  1  0  0  0  0
 19 20  1  6  0  0  0
 21 20  1  1  0  0  0
 21 22  1  0  0  0  0
 21 29  1  0  0  0  0
 22 23  1  1  0  0  0
 22 24  1  0  0  0  0
 24 25  1  6  0  0  0
 24 26  1  0  0  0  0
 26 27  1  1  0  0  0
 26 28  1  0  0  0  0
 28 29  1  0  0  0  0
 28 30  1  6  0  0  0
 30 31  1  0  0  0  0
 34 39  1  0  0  0  0
 35 36  2  0  0  0  0
 37 35  1  6  0  0  0
 37 38  1  0  0  0  0
 37 40  1  0  0  0  0
 38 39  1  0  0  0  0
M  END
>  <CHROM.1>
167.55054625,-174.80163596,54.26585609,166.70381019,-73.44100146,-136.67311809
-179.95531995,-72.98873219,-66.14939583,-169.64404584,0.74011361,-10.63370580
15.97348624,3.04776583,0.32834120,1.07214340

>  <Name>
2g5q_lig

>  <RI>
2.90231e+07

>  <Rbt.Current_Directory>
/home/itssahil/PROJECTS/Mol_Feturizer/New_Systems/rnas/2g5q

>  <Rbt.Executable>
rbdock ($Id: //depot/dev/client3/rdock/2013.1/src/exe/rbdock.cxx#4 $)

>  <Rbt.Library>
libRbt.so (2013.1, Build901 2013/11/27)

>  <Rbt.Parameter_File>
/export/apps/rDock/src/rDock_2013.1_src/data/scripts/dock_solv.prm

>  <Rbt.Receptor>
prm/pocket_docking_6.prm

>  <SCORE>
-20.5285

>  <SCORE.INTER>
-14.8665

>  <SCORE.INTER.CONST>
1

>  <SCORE.INTER.POLAR>
-2.80894

>  <SCORE.INTER.ROT>
10

>  <SCORE.INTER.SOLV>
10.2326

>  <SCORE.INTER.VDW>
-14.2254

>  <SCORE.INTER.norm>
-0.371662

>  <SCORE.INTRA>
-5.66202

>  <SCORE.INTRA.DIHEDRAL>
-12.5948

>  <SCORE.INTRA.DIHEDRAL.0>
22.5778

>  <SCORE.INTRA.POLAR>
0

>  <SCORE.INTRA.POLAR.0>
0

>  <SCORE.INTRA.REPUL>
0

>  <SCORE.INTRA.REPUL.0>
0

>  <SCORE.INTRA.SOLV>
0.774615

>  <SCORE.INTRA.SOLV.lig_0>
-102.332

>  <SCORE.INTRA.VDW>
0.248081

>  <SCORE.INTRA.VDW.0>
-5.08747

>  <SCORE.INTRA.norm>
-0.14155

>  <SCORE.RESTR>
0

>  <SCORE.RESTR.CAVITY>
0

>  <SCORE.RESTR.norm>
0

>  <SCORE.SYSTEM>
0

>  <SCORE.SYSTEM.CONST>
0

>  <SCORE.SYSTEM.DIHEDRAL>
0

>  <SCORE.SYSTEM.SOLV>
0

>  <SCORE.SYSTEM.norm>
0

>  <SCORE.heavy>
40

>  <SCORE.norm>
-0.513212

>  <RMSD>
7.979

$$$$
2g5q_lig
 OpenBabel11021811433D
libRbt.so/2013.1/901 2013/11/27
 40 42  0  0  0  0  0  0  0  0999 V2000
   -2.9910  -13.8834   18.4144 C   0  0  2  0  0  0  0  0  0  0  0  0
   -2.6591  -12.9185   17.4406 O   0  0  0  0  0  0  0  0  0  0  0  0
   -4.5119  -14.2007   18.3088 C   0  0  1  0  0  0  0  0  0  0  0  0
   -5.3910  -12.9757   18.7091 C   0  0  2  0  0  0  0  0  0  0  0  0
   -5.0370  -12.5953   20.1702 C   0  0  2  0  0  0  0  0  0  0  0  0
   -5.8448  -11.4819   20.5852 O   0  0  0  0  0  0  0  0  0  0  0  0
   -3.4970  -12.2362   20.2302 C   0  0  2  0  0  0  0  0  0  0  0  0
   -2.6829  -13.4042   19.7876 O   0  0  0  0  0  0  0  0  0  0  0  0
   -3.0334  -11.8579   21.6328 C   0  0  0  0  0  0  0  0  0  0  0  0
   -1.6372  -11.3172   21.6363 N   0  0  0  0  0  0  0  0  0  0  0  0
    1.1458  -11.7617   15.6346 C   0  0  2  0  0  0  0  0  0  0  0  0
    2.4849  -11.2086   15.4713 N   0  0  0  0  0  0  0  0  0  0  0  0
    0.1303  -10.6221   16.0657 C   0  0  0  0  0  0  0  0  0  0  0  0
   -1.3233  -11.2157   16.2367 C   0  0  2  0  0  0  0  0  0  0  0  0
   -2.2677  -10.1352   16.6300 N   0  0  0  0  0  0  0  0  0  0  0  0
   -1.2964  -12.3754   17.3101 C   0  0  2  0  0  0  0  0  0  0  0  0
   -0.2727  -13.4873   16.8491 C   0  0  2  0  0  0  0  0  0  0  0  0
   -0.2453  -14.5332   17.8255 O   0  0  0  0  0  0  0  0  0  0  0  0
    1.1733  -12.8775   16.6997 C   0  0  1  0  0  0  0  0  0  0  0  0
    2.1116  -13.9009   16.2631 O   0  0  0  0  0  0  0  0  0  0  0  0
    1.8278  -14.8651   15.2793 C   0  0  2  0  0  0  0  0  0  0  0  0
    3.1046  -15.7573   15.1143 C   0  0  2  0  0  0  0  0  0  0  0  0
    3.4026  -16.3711   16.3271 O   0  0  0  0  0  0  0  0  0  0  0  0
    4.3278  -14.9101   14.5960 C   0  0  1  0  0  0  0  0  0  0  0  0
    5.5548  -15.7570   14.4304 N   0  0  0  0  0  0  0  0  0  0  0  0
    3.9210  -14.2387   13.2245 C   0  0  2  0  0  0  0  0  0  0  0  0
    4.9976  -13.4596   12.6991 O   0  0  0  0  0  0  0  0  0  0  0  0
    2.6441  -13.3623   13.4571 C   0  0  2  0  0  0  0  0  0  0  0  0
    1.5158  -14.1893   14.0073 O   0  0  0  0  0  0  0  0  0  0  0  0
    2.1760  -12.7132   12.1870 C   0  0  0  0  0  0  0  0  0  0  0  0
    1.0075  -11.9078   12.4126 O   0  0  0  0  0  0  0  0  0  0  0  0
   -4.7996  -14.6308   16.9339 O   0  0  0  0  0  0  0  0  0  0  0  0
   -6.7222  -13.3155   18.6106 O   0  0  0  0  0  0  0  0  0  0  0  0
    5.0207   -9.3966   10.9629 N   0  0  0  0  0  0  0  0  0  0  0  0
    2.7964  -10.0645   14.7501 C   0  0  0  0  0  0  0  0  0  0  0  0
    1.9676   -9.3851   14.1544 O   0  0  0  0  0  0  0  0  0  0  0  0
    4.3101   -9.7503   14.7667 C   0  0  1  0  0  0  0  0  0  0  0  0
    4.9162   -9.9960   13.3701 C   0  0  0  0  0  0  0  0  0  0  0  0
    4.3909   -9.0947   12.2467 C   0  0  0  0  0  0  0  0  0  0  0  0
    4.5042   -8.3787   15.1797 O   0  0  0  0  0  0  0  0  0  0  0  0
  1  2  1  6  0  0  0
  1  3  1  0  0  0  0
  1  8  1  0  0  0  0
  3  4  1  0  0  0  0
  3 32  1  6  0  0  0
  4  5  1  0  0  0  0
  4 33  1  1  0  0  0
  5  6  1  6  0  0  0
  5  7  1  0  0  0  0
  7  8  1  0  0  0  0
  7  9  1  1  0  0  0
  9 10  1  0  0  0  0
 11 12  1  1  0  0  0
 11 13  1  0  0  0  0
 11 19  1  0  0  0  0
 12 35  1  0  0  0  0
 13 14  1  0  0  0  0
 14 15  1  1  0  0  0
 14 16  1  0  0  0  0
 16  2  1  6  0  0  0
 16 17  1  0  0  0  0
 17 18  1  1  0  0  0
 17 19  1  0  0  0  0
 19 20  1  6  0  0  0
 21 20  1  1  0  0  0
 21 22  1  0  0  0  0
 21 29  1  0  0  0  0
 22 23  1  1  0  0  0
 22 24  1  0  0  0  0
 24 25  1  6  0  0  0
 24 26  1  0  0  0  0
 26 27  1  1  0  0  0
 26 28  1  0  0  0  0
 28 29  1  0  0  0  0
 28 30  1  6  0  0  0
 30 31  1  0  0  0  0
 34 39  1  0  0  0  0
 35 36  2  0  0  0  0
 37 35  1  6  0  0  0
 37 38  1  0  0  0  0
 37 40  1  0  0  0  0
 38 39  1  0  0  0  0
M  END
>  <CHROM.1>
178.10402259,-171.05769254,-48.57610296,-173.86889521,-77.77076976,179.75060420
-179.77996803,109.97806202,63.82651548,179.92177445,0.35662950,-12.52198915
16.16629115,-2.99941230,0.61005093,-0.10283415

>  <Name>
2g5q_lig

>  <RI>
0

>  <Rbt.Current_Directory>
/home/itssahil/PROJECTS/Mol_Feturizer/New_Systems/rnas/2g5q

>  <Rbt.Executable>
rbdock ($Id: //depot/dev/client3/rdock/2013.1/src/exe/rbdock.cxx#4 $)

>  <Rbt.Library>
libRbt.so (2013.1, Build901 2013/11/27)

>  <Rbt.Parameter_File>
/export/apps/rDock/src/rDock_2013.1_src/data/scripts/dock_solv.prm

>  <Rbt.Receptor>
prm/pocket_docking_5.prm

>  <SCORE>
-13.9306

>  <SCORE.INTER>
-4.68803

>  <SCORE.INTER.CONST>
1

>  <SCORE.INTER.POLAR>
-1.40531

>  <SCORE.INTER.ROT>
10

>  <SCORE.INTER.SOLV>
8.60686

>  <SCORE.INTER.VDW>
-11.5766

>  <SCORE.INTER.norm>
-0.117201

>  <SCORE.INTRA>
-9.2515

>  <SCORE.INTRA.DIHEDRAL>
-18.1174

>  <SCORE.INTRA.DIHEDRAL.0>
22.5778

>  <SCORE.INTRA.POLAR>
0

>  <SCORE.INTRA.POLAR.0>
0

>  <SCORE.INTRA.REPUL>
0

>  <SCORE.INTRA.REPUL.0>
0

>  <SCORE.INTRA.SOLV>
0.538495

>  <SCORE.INTRA.SOLV.lig_0>
-102.332

>  <SCORE.INTRA.VDW>
-0.462072

>  <SCORE.INTRA.VDW.0>
-5.08747

>  <SCORE.INTRA.norm>
-0.231288

>  <SCORE.RESTR>
0.00889969

>  <SCORE.RESTR.CAVITY>
0.00889969

>  <SCORE.RESTR.norm>
0.000222492

>  <SCORE.SYSTEM>
0

>  <SCORE.SYSTEM.CONST>
0

>  <SCORE.SYSTEM.DIHEDRAL>
0

>  <SCORE.SYSTEM.SOLV>
0

>  <SCORE.SYSTEM.norm>
0

>  <SCORE.heavy>
40

>  <SCORE.norm>
-0.348266

>  <RMSD>
7.991

$$$$
2g5q_lig
 OpenBabel11021811433D
libRbt.so/2013.1/901 2013/11/27
 40 42  0  0  0  0  0  0  0  0999 V2000
   -4.4868   -8.5145   16.4479 C   0  0  2  0  0  0  0  0  0  0  0  0
   -3.9845   -8.8941   17.7101 O   0  0  0  0  0  0  0  0  0  0  0  0
   -5.7110   -7.5751   16.6566 C   0  0  1  0  0  0  0  0  0  0  0  0
   -6.9150   -8.3242   17.3068 C   0  0  2  0  0  0  0  0  0  0  0  0
   -7.3084   -9.4943   16.3681 C   0  0  2  0  0  0  0  0  0  0  0  0
   -8.4323  -10.1970   16.9225 O   0  0  0  0  0  0  0  0  0  0  0  0
   -6.0567  -10.4503   16.2157 C   0  0  2  0  0  0  0  0  0  0  0  0
   -4.9039   -9.6952   15.6467 O   0  0  0  0  0  0  0  0  0  0  0  0
   -6.3284  -11.6361   15.2961 C   0  0  0  0  0  0  0  0  0  0  0  0
   -7.3324  -12.5811   15.8797 N   0  0  0  0  0  0  0  0  0  0  0  0
    0.3532   -8.6566   17.2567 C   0  0  2  0  0  0  0  0  0  0  0  0
    1.7781   -8.8731   17.4765 N   0  0  0  0  0  0  0  0  0  0  0  0
   -0.3122   -8.0272   18.5517 C   0  0  0  0  0  0  0  0  0  0  0  0
   -1.8548   -7.7842   18.3153 C   0  0  2  0  0  0  0  0  0  0  0  0
   -2.4645   -7.1836   19.5326 N   0  0  0  0  0  0  0  0  0  0  0  0
   -2.5521   -9.1511   17.9370 C   0  0  2  0  0  0  0  0  0  0  0  0
   -1.8608   -9.7484   16.6477 C   0  0  2  0  0  0  0  0  0  0  0  0
   -2.4896  -10.9891   16.3108 O   0  0  0  0  0  0  0  0  0  0  0  0
   -0.3265   -9.9974   16.9102 C   0  0  1  0  0  0  0  0  0  0  0  0
    0.3102  -10.5359   15.7173 O   0  0  0  0  0  0  0  0  0  0  0  0
   -0.0486  -11.7534   15.1113 C   0  0  2  0  0  0  0  0  0  0  0  0
    0.6450  -12.9022   15.9189 C   0  0  2  0  0  0  0  0  0  0  0  0
    0.2110  -12.8689   17.2407 O   0  0  0  0  0  0  0  0  0  0  0  0
    2.2144  -12.7872   15.8383 C   0  0  1  0  0  0  0  0  0  0  0  0
    2.8882  -13.8863   16.6053 N   0  0  0  0  0  0  0  0  0  0  0  0
    2.6373  -12.8255   14.3161 C   0  0  2  0  0  0  0  0  0  0  0  0
    4.0566  -12.7320   14.1787 O   0  0  0  0  0  0  0  0  0  0  0  0
    1.9142  -11.6553   13.5675 C   0  0  2  0  0  0  0  0  0  0  0  0
    0.4219  -11.7622   13.7147 O   0  0  0  0  0  0  0  0  0  0  0  0
    2.2430  -11.6445   12.1028 C   0  0  0  0  0  0  0  0  0  0  0  0
    1.8343  -12.8668   11.4673 O   0  0  0  0  0  0  0  0  0  0  0  0
   -5.2856   -6.4392   17.4853 O   0  0  0  0  0  0  0  0  0  0  0  0
   -7.9709   -7.4521   17.4555 O   0  0  0  0  0  0  0  0  0  0  0  0
    3.0678   -8.6819   15.0162 N   0  0  0  0  0  0  0  0  0  0  0  0
    2.7000   -7.8835   17.7879 C   0  0  0  0  0  0  0  0  0  0  0  0
    2.4151   -6.6969   17.9073 O   0  0  0  0  0  0  0  0  0  0  0  0
    4.1326   -8.4416   17.9511 C   0  0  1  0  0  0  0  0  0  0  0  0
    4.3803   -9.5688   16.9282 C   0  0  0  0  0  0  0  0  0  0  0  0
    4.3829   -9.1443   15.4550 C   0  0  0  0  0  0  0  0  0  0  0  0
    5.0823   -7.3664   17.7745 O   0  0  0  0  0  0  0  0  0  0  0  0
  1  2  1  1  0  0  0
  1  3  1  0  0  0  0
  1  8  1  0  0  0  0
  3  4  1  0  0  0  0
  3 32  1  1  0  0  0
  4  5  1  0  0  0  0
  4 33  1  6  0  0  0
  5  6  1  1  0  0  0
  5  7  1  0  0  0  0
  7  8  1  0  0  0  0
  7  9  1  6  0  0  0
  9 10  1  0  0  0  0
 11 12  1  1  0  0  0
 11 13  1  0  0  0  0
 11 19  1  0  0  0  0
 12 35  1  0  0  0  0
 13 14  1  0  0  0  0
 14 15  1  1  0  0  0
 14 16  1  0  0  0  0
 16  2  1  6  0  0  0
 16 17  1  0  0  0  0
 17 18  1  1  0  0  0
 17 19  1  0  0  0  0
 19 20  1  6  0  0  0
 21 20  1  1  0  0  0
 21 22  1  0  0  0  0
 21 29  1  0  0  0  0
 22 23  1  1  0  0  0
 22 24  1  0  0  0  0
 24 25  1  1  0  0  0
 24 26  1  0  0  0  0
 26 27  1  1  0  0  0
 26 28  1  0  0  0  0
 28 29  1  0  0  0  0
 28 30  1  6  0  0  0
 30 31  1  0  0  0  0
 34 39  1  0  0  0  0
 35 36  2  0  0  0  0
 37 35  1  6  0  0  0
 37 38  1  0  0  0  0
 37 40  1  0  0  0  0
 38 39  1  0  0  0  0
M  END
>  <CHROM.1>
-147.71003770,-67.15485881,-59.65927597,87.95550340,179.78011846,-80.82279982
60.40296043,36.92722344,65.63532201,-65.98871464,-0.99103213,-9.94458549
16.30582762,-2.93456547,-0.01969235,-2.50442912

>  <Name>
2g5q_lig

>  <RI>
0

>  <Rbt.Current_Directory>
/home/itssahil/PROJECTS/Mol_Feturizer/New_Systems/rnas/2g5q

>  <Rbt.Executable>
rbdock ($Id: //depot/dev/client3/rdock/2013.1/src/exe/rbdock.cxx#4 $)

>  <Rbt.Library>
libRbt.so (2013.1, Build901 2013/11/27)

>  <Rbt.Parameter_File>
/export/apps/rDock/src/rDock_2013.1_src/data/scripts/dock_solv.prm

>  <Rbt.Receptor>
prm/pocket_docking_3.prm

>  <SCORE>
-10.11

>  <SCORE.INTER>
-9.97681

>  <SCORE.INTER.CONST>
1

>  <SCORE.INTER.POLAR>
-2.02853

>  <SCORE.INTER.ROT>
10

>  <SCORE.INTER.SOLV>
16.6489

>  <SCORE.INTER.VDW>
-15.7057

>  <SCORE.INTER.norm>
-0.24942

>  <SCORE.INTRA>
-1.00382

>  <SCORE.INTRA.DIHEDRAL>
-11.6401

>  <SCORE.INTRA.DIHEDRAL.0>
22.5778

>  <SCORE.INTRA.POLAR>
0

>  <SCORE.INTRA.POLAR.0>
0

>  <SCORE.INTRA.REPUL>
0

>  <SCORE.INTRA.REPUL.0>
0

>  <SCORE.INTRA.SOLV>
8.42449

>  <SCORE.INTRA.SOLV.lig_0>
-102.332

>  <SCORE.INTRA.VDW>
0.60397

>  <SCORE.INTRA.VDW.0>
-5.08747

>  <SCORE.INTRA.norm>
-0.0250954

>  <SCORE.RESTR>
0.870593

>  <SCORE.RESTR.CAVITY>
0.870593

>  <SCORE.RESTR.norm>
0.0217648

>  <SCORE.SYSTEM>
0

>  <SCORE.SYSTEM.CONST>
0

>  <SCORE.SYSTEM.DIHEDRAL>
0

>  <SCORE.SYSTEM.SOLV>
0

>  <SCORE.SYSTEM.norm>
0

>  <SCORE.heavy>
40

>  <SCORE.norm>
-0.252751

>  <RMSD>
8.005

$$$$
2g5q_lig
 OpenBabel11021811433D
libRbt.so/2013.1/901 2013/11/27
 40 42  0  0  0  0  0  0  0  0999 V2000
   -4.7958   -7.9922   17.6712 C   0  0  2  0  0  0  0  0  0  0  0  0
   -3.6661   -8.3657   16.9136 O   0  0  0  0  0  0  0  0  0  0  0  0
   -5.2260   -9.1974   18.5585 C   0  0  1  0  0  0  0  0  0  0  0  0
   -5.7515  -10.3914   17.7030 C   0  0  2  0  0  0  0  0  0  0  0  0
   -6.9665   -9.8875   16.8816 C   0  0  2  0  0  0  0  0  0  0  0  0
   -7.4951  -10.9676   16.0952 O   0  0  0  0  0  0  0  0  0  0  0  0
   -6.4826   -8.6952   15.9605 C   0  0  2  0  0  0  0  0  0  0  0  0
   -5.9321   -7.5928   16.7999 O   0  0  0  0  0  0  0  0  0  0  0  0
   -7.6073   -8.1101   15.1131 C   0  0  0  0  0  0  0  0  0  0  0  0
   -8.0927   -9.0774   14.0785 N   0  0  0  0  0  0  0  0  0  0  0  0
    0.6124   -8.2599   17.7854 C   0  0  2  0  0  0  0  0  0  0  0  0
    1.9019   -8.5361   18.4075 N   0  0  0  0  0  0  0  0  0  0  0  0
   -0.3971   -7.6670   18.8555 C   0  0  0  0  0  0  0  0  0  0  0  0
   -1.7933   -7.3596   18.1841 C   0  0  2  0  0  0  0  0  0  0  0  0
   -2.7270   -6.7939   19.1951 N   0  0  0  0  0  0  0  0  0  0  0  0
   -2.3726   -8.6828   17.5424 C   0  0  2  0  0  0  0  0  0  0  0  0
   -1.3393   -9.2448   16.4872 C   0  0  2  0  0  0  0  0  0  0  0  0
   -1.8631  -10.4461   15.9122 O   0  0  0  0  0  0  0  0  0  0  0  0
    0.0410   -9.5591   17.1807 C   0  0  1  0  0  0  0  0  0  0  0  0
    0.9944  -10.0649   16.2043 O   0  0  0  0  0  0  0  0  0  0  0  0
    0.7221  -11.1079   15.3009 C   0  0  2  0  0  0  0  0  0  0  0  0
    1.3348  -12.4193   15.8993 C   0  0  2  0  0  0  0  0  0  0  0  0
    0.7538  -12.6815   17.1362 O   0  0  0  0  0  0  0  0  0  0  0  0
    2.9016  -12.3097   16.0246 C   0  0  1  0  0  0  0  0  0  0  0  0
    3.4986  -13.5632   16.5928 N   0  0  0  0  0  0  0  0  0  0  0  0
    3.4943  -12.0066   14.5914 C   0  0  2  0  0  0  0  0  0  0  0  0
    4.9187  -11.9031   14.6401 O   0  0  0  0  0  0  0  0  0  0  0  0
    2.8453  -10.6874   14.0517 C   0  0  2  0  0  0  0  0  0  0  0  0
    1.3475  -10.8052   14.0011 O   0  0  0  0  0  0  0  0  0  0  0  0
    3.3374  -10.3483   12.6745 C   0  0  0  0  0  0  0  0  0  0  0  0
    4.7424  -10.0466   12.6821 O   0  0  0  0  0  0  0  0  0  0  0  0
   -4.0759   -9.6009   19.3787 O   0  0  0  0  0  0  0  0  0  0  0  0
   -6.1292  -11.4209   18.5366 O   0  0  0  0  0  0  0  0  0  0  0  0
    5.5905   -9.5106   21.9169 N   0  0  0  0  0  0  0  0  0  0  0  0
    2.6485   -7.6250   19.1413 C   0  0  0  0  0  0  0  0  0  0  0  0
    2.3047   -6.4658   19.3450 O   0  0  0  0  0  0  0  0  0  0  0  0
    3.9733   -8.2298   19.6604 C   0  0  1  0  0  0  0  0  0  0  0  0
    4.3799   -7.5533   20.9852 C   0  0  0  0  0  0  0  0  0  0  0  0
    5.6650   -8.0784   21.6358 C   0  0  0  0  0  0  0  0  0  0  0  0
    3.8053   -9.6544   19.8386 O   0  0  0  0  0  0  0  0  0  0  0  0
  1  2  1  6  0  0  0
  1  3  1  0  0  0  0
  1  8  1  0  0  0  0
  3  4  1  0  0  0  0
  3 32  1  6  0  0  0
  4  5  1  0  0  0  0
  4 33  1  1  0  0  0
  5  6  1  6  0  0  0
  5  7  1  0  0  0  0
  7  8  1  0  0  0  0
  7  9  1  1  0  0  0
  9 10  1  0  0  0  0
 11 12  1  1  0  0  0
 11 13  1  0  0  0  0
 11 19  1  0  0  0  0
 12 35  1  0  0  0  0
 13 14  1  0  0  0  0
 14 15  1  1  0  0  0
 14 16  1  0  0  0  0
 16  2  1  6  0  0  0
 16 17  1  0  0  0  0
 17 18  1  1  0  0  0
 17 19  1  0  0  0  0
 19 20  1  6  0  0  0
 21 20  1  1  0  0  0
 21 22  1  0  0  0  0
 21 29  1  0  0  0  0
 22 23  1  1  0  0  0
 22 24  1  0  0  0  0
 24 25  1  6  0  0  0
 24 26  1  0  0  0  0
 26 27  1  1  0  0  0
 26 28  1  0  0  0  0
 28 29  1  0  0  0  0
 28 30  1  6  0  0  0
 30 31  1  0  0  0  0
 34 39  1  0  0  0  0
 35 36  2  0  0  0  0
 37 35  1  1  0  0  0
 37 38  1  0  0  0  0
 37 40  1  0  0  0  0
 38 39  1  0  0  0  0
M  END
>  <CHROM.1>
-65.03774967,-67.36575483,-53.17396512,-67.05751956,-169.33865050,-98.93355706
-65.08308653,-150.17731216,178.64880575,-58.09047784,-0.52747917,-9.59390227
17.12174517,3.11971178,0.10265342,-2.10739481

>  <Name>
2g5q_lig

>  <RI>
0

>  <Rbt.Current_Directory>
/home/itssahil/PROJECTS/Mol_Feturizer/New_Systems/rnas/2g5q

>  <Rbt.Executable>
rbdock ($Id: //depot/dev/client3/rdock/2013.1/src/exe/rbdock.cxx#4 $)

>  <Rbt.Library>
libRbt.so (2013.1, Build901 2013/11/27)

>  <Rbt.Parameter_File>
/export/apps/rDock/src/rDock_2013.1_src/data/scripts/dock_solv.prm

>  <Rbt.Receptor>
prm/pocket_docking_3.prm

>  <SCORE>
-4.76732

>  <SCORE.INTER>
-3.04971

>  <SCORE.INTER.CONST>
1

>  <SCORE.INTER.POLAR>
0

>  <SCORE.INTER.ROT>
10

>  <SCORE.INTER.SOLV>
11.8552

>  <SCORE.INTER.VDW>
-16.2515

>  <SCORE.INTER.norm>
-0.0762427

>  <SCORE.INTRA>
-1.72789

>  <SCORE.INTRA.DIHEDRAL>
-14.452

>  <SCORE.INTRA.DIHEDRAL.0>
22.5778

>  <SCORE.INTRA.POLAR>
0

>  <SCORE.INTRA.POLAR.0>
0

>  <SCORE.INTRA.REPUL>
0

>  <SCORE.INTRA.REPUL.0>
0

>  <SCORE.INTRA.SOLV>
4.16767

>  <SCORE.INTRA.SOLV.lig_0>
-102.332

>  <SCORE.INTRA.VDW>
3.41428

>  <SCORE.INTRA.VDW.0>
-5.08747

>  <SCORE.INTRA.norm>
-0.0431973

>  <SCORE.RESTR>
0.0102817

>  <SCORE.RESTR.CAVITY>
0.0102817

>  <SCORE.RESTR.norm>
0.000257044

>  <SCORE.SYSTEM>
0

>  <SCORE.SYSTEM.CONST>
0

>  <SCORE.SYSTEM.DIHEDRAL>
0

>  <SCORE.SYSTEM.SOLV>
0

>  <SCORE.SYSTEM.norm>
0

>  <SCORE.heavy>
40

>  <SCORE.norm>
-0.119183

>  <RMSD>
8.024

$$$$
2g5q_lig
 OpenBabel11021811433D
libRbt.so/2013.1/901 2013/11/27
 40 42  0  0  0  0  0  0  0  0999 V2000
   -2.3558  -10.9869   17.0543 C   0  0  2  0  0  0  0  0  0  0  0  0
   -2.1985   -9.7488   17.7115 O   0  0  0  0  0  0  0  0  0  0  0  0
   -3.8064  -11.0780   16.4957 C   0  0  1  0  0  0  0  0  0  0  0  0
   -4.8667  -11.1456   17.6380 C   0  0  2  0  0  0  0  0  0  0  0  0
   -4.5582  -12.3990   18.4976 C   0  0  2  0  0  0  0  0  0  0  0  0
   -5.5298  -12.5096   19.5503 O   0  0  0  0  0  0  0  0  0  0  0  0
   -3.0961  -12.2506   19.0843 C   0  0  2  0  0  0  0  0  0  0  0  0
   -2.1099  -12.1298   17.9728 O   0  0  0  0  0  0  0  0  0  0  0  0
   -2.6800  -13.4421   19.9404 C   0  0  0  0  0  0  0  0  0  0  0  0
   -1.3299  -13.2463   20.5574 N   0  0  0  0  0  0  0  0  0  0  0  0
    1.3184   -7.2513   18.3979 C   0  0  2  0  0  0  0  0  0  0  0  0
    2.5915   -6.7744   18.9248 N   0  0  0  0  0  0  0  0  0  0  0  0
    0.2696   -7.4288   19.5745 C   0  0  0  0  0  0  0  0  0  0  0  0
   -1.1134   -7.9385   19.0072 C   0  0  2  0  0  0  0  0  0  0  0  0
   -2.0910   -8.0901   20.1186 N   0  0  0  0  0  0  0  0  0  0  0  0
   -0.8980   -9.3034   18.2400 C   0  0  2  0  0  0  0  0  0  0  0  0
    0.1540   -9.0881   17.0807 C   0  0  2  0  0  0  0  0  0  0  0  0
    0.3522  -10.3266   16.3916 O   0  0  0  0  0  0  0  0  0  0  0  0
    1.5304   -8.5948   17.6699 C   0  0  1  0  0  0  0  0  0  0  0  0
    2.4935   -8.3855   16.5990 O   0  0  0  0  0  0  0  0  0  0  0  0
    2.9293   -9.3934   15.7201 C   0  0  2  0  0  0  0  0  0  0  0  0
    3.9161  -10.3145   16.5144 C   0  0  2  0  0  0  0  0  0  0  0  0
    3.2560  -10.8711   17.6057 O   0  0  0  0  0  0  0  0  0  0  0  0
    5.1934   -9.5158   16.9761 C   0  0  1  0  0  0  0  0  0  0  0  0
    6.1472  -10.3909   17.7342 N   0  0  0  0  0  0  0  0  0  0  0  0
    5.8889   -8.9079   15.6939 C   0  0  2  0  0  0  0  0  0  0  0  0
    7.0630   -8.1750   16.0498 O   0  0  0  0  0  0  0  0  0  0  0  0
    4.8542   -7.9990   14.9483 C   0  0  2  0  0  0  0  0  0  0  0  0
    3.6236   -8.7777   14.5752 O   0  0  0  0  0  0  0  0  0  0  0  0
    5.4342   -7.4072   13.6964 C   0  0  0  0  0  0  0  0  0  0  0  0
    5.7913   -8.4302   12.7526 O   0  0  0  0  0  0  0  0  0  0  0  0
   -4.0402   -9.9175   15.6259 O   0  0  0  0  0  0  0  0  0  0  0  0
   -6.1265  -11.2382   17.0888 O   0  0  0  0  0  0  0  0  0  0  0  0
    3.0471   -3.3678   21.5827 N   0  0  0  0  0  0  0  0  0  0  0  0
    3.3459   -7.4150   19.8978 C   0  0  0  0  0  0  0  0  0  0  0  0
    3.0166   -8.4661   20.4364 O   0  0  0  0  0  0  0  0  0  0  0  0
    4.6425   -6.6457   20.2407 C   0  0  1  0  0  0  0  0  0  0  0  0
    4.3220   -5.4581   21.1708 C   0  0  0  0  0  0  0  0  0  0  0  0
    3.3586   -4.4084   20.6049 C   0  0  0  0  0  0  0  0  0  0  0  0
    5.5794   -7.5522   20.8650 O   0  0  0  0  0  0  0  0  0  0  0  0
  1  2  1  1  0  0  0
  1  3  1  0  0  0  0
  1  8  1  0  0  0  0
  3  4  1  0  0  0  0
  3 32  1  1  0  0  0
  4  5  1  0  0  0  0
  4 33  1  6  0  0  0
  5  6  1  1  0  0  0
  5  7  1  0  0  0  0
  7  8  1  0  0  0  0
  7  9  1  6  0  0  0
  9 10  1  0  0  0  0
 11 12  1  1  0  0  0
 11 13  1  0  0  0  0
 11 19  1  0  0  0  0
 12 35  1  0  0  0  0
 13 14  1  0  0  0  0
 14 15  1  1  0  0  0
 14 16  1  0  0  0  0
 16  2  1  6  0  0  0
 16 17  1  0  0  0  0
 17 18  1  1  0  0  0
 17 19  1  0  0  0  0
 19 20  1  6  0  0  0
 21 20  1  1  0  0  0
 21 22  1  0  0  0  0
 21 29  1  0  0  0  0
 22 23  1  1  0  0  0
 22 24  1  0  0  0  0
 24 25  1  6  0  0  0
 24 26  1  0  0  0  0
 26 27  1  1  0  0  0
 26 28  1  0  0  0  0
 28 29  1  0  0  0  0
 28 30  1  6  0  0  0
 30 31  1  0  0  0  0
 34 39  1  0  0  0  0
 35 36  2  0  0  0  0
 37 35  1  1  0  0  0
 37 38  1  0  0  0  0
 37 40  1  0  0  0  0
 38 39  1  0  0  0  0
M  END
>  <CHROM.1>
-174.12652124,-176.38058103,57.48575194,-175.51614595,-179.88441123,-74.63006035
62.53188171,78.28144063,-60.43286341,176.37902820,1.07820676,-9.19021463
17.87942318,-2.99837630,0.39811008,1.01490697

>  <Name>
2g5q_lig

>  <RI>
2.47104e+07

>  <Rbt.Current_Directory>
/home/itssahil/PROJECTS/Mol_Feturizer/New_Systems/rnas/2g5q

>  <Rbt.Executable>
rbdock ($Id: //depot/dev/client3/rdock/2013.1/src/exe/rbdock.cxx#4 $)

>  <Rbt.Library>
libRbt.so (2013.1, Build901 2013/11/27)

>  <Rbt.Parameter_File>
/export/apps/rDock/src/rDock_2013.1_src/data/scripts/dock_solv.prm

>  <Rbt.Receptor>
prm/pocket_docking_7.prm

>  <SCORE>
-21.9219

>  <SCORE.INTER>
-12.5317

>  <SCORE.INTER.CONST>
1

>  <SCORE.INTER.POLAR>
-1.43347

>  <SCORE.INTER.ROT>
10

>  <SCORE.INTER.SOLV>
11.1295

>  <SCORE.INTER.VDW>
-17.5527

>  <SCORE.INTER.norm>
-0.313291

>  <SCORE.INTRA>
-9.39021

>  <SCORE.INTRA.DIHEDRAL>
-19.9919

>  <SCORE.INTRA.DIHEDRAL.0>
22.5778

>  <SCORE.INTRA.POLAR>
0

>  <SCORE.INTRA.POLAR.0>
0

>  <SCORE.INTRA.REPUL>
0

>  <SCORE.INTRA.REPUL.0>
0

>  <SCORE.INTRA.SOLV>
-0.339308

>  <SCORE.INTRA.SOLV.lig_0>
-102.332

>  <SCORE.INTRA.VDW>
0.775371

>  <SCORE.INTRA.VDW.0>
-5.08747

>  <SCORE.INTRA.norm>
-0.234755

>  <SCORE.RESTR>
0

>  <SCORE.RESTR.CAVITY>
0

>  <SCORE.RESTR.norm>
0

>  <SCORE.SYSTEM>
0

>  <SCORE.SYSTEM.CONST>
0

>  <SCORE.SYSTEM.DIHEDRAL>
0

>  <SCORE.SYSTEM.SOLV>
0

>  <SCORE.SYSTEM.norm>
0

>  <SCORE.heavy>
40

>  <SCORE.norm>
-0.548047

>  <RMSD>
8.034

$$$$
2g5q_lig
 OpenBabel11021811433D
libRbt.so/2013.1/901 2013/11/27
 40 42  0  0  0  0  0  0  0  0999 V2000
    5.1524   -3.5589   23.6735 C   0  0  2  0  0  0  0  0  0  0  0  0
    4.0491   -3.7327   22.8121 O   0  0  0  0  0  0  0  0  0  0  0  0
    4.6917   -3.8192   25.1380 C   0  0  1  0  0  0  0  0  0  0  0  0
    3.6824   -2.7370   25.6316 C   0  0  2  0  0  0  0  0  0  0  0  0
    4.3852   -1.3575   25.5425 C   0  0  2  0  0  0  0  0  0  0  0  0
    3.4931   -0.3335   26.0117 O   0  0  0  0  0  0  0  0  0  0  0  0
    4.7981   -1.1075   24.0355 C   0  0  2  0  0  0  0  0  0  0  0  0
    5.7160   -2.1870   23.5719 O   0  0  0  0  0  0  0  0  0  0  0  0
    5.5144    0.2235   23.8329 C   0  0  0  0  0  0  0  0  0  0  0  0
    4.7160    1.3766   24.3568 N   0  0  0  0  0  0  0  0  0  0  0  0
    3.0737   -6.7564   19.8150 C   0  0  2  0  0  0  0  0  0  0  0  0
    3.1185   -7.5602   18.5993 N   0  0  0  0  0  0  0  0  0  0  0  0
    2.8516   -5.2279   19.4542 C   0  0  0  0  0  0  0  0  0  0  0  0
    2.7952   -4.3544   20.7689 C   0  0  2  0  0  0  0  0  0  0  0  0
    2.5755   -2.9254   20.4175 N   0  0  0  0  0  0  0  0  0  0  0  0
    4.1334   -4.5466   21.5876 C   0  0  2  0  0  0  0  0  0  0  0  0
    4.3219   -6.0790   21.9240 C   0  0  2  0  0  0  0  0  0  0  0  0
    5.5373   -6.2514   22.6596 O   0  0  0  0  0  0  0  0  0  0  0  0
    4.3912   -6.9299   20.5987 C   0  0  1  0  0  0  0  0  0  0  0  0
    4.5524   -8.3421   20.9117 O   0  0  0  0  0  0  0  0  0  0  0  0
    5.2438   -8.8283   22.0359 C   0  0  2  0  0  0  0  0  0  0  0  0
    5.9691  -10.1483   21.6062 C   0  0  2  0  0  0  0  0  0  0  0  0
    6.8558   -9.8751   20.5691 O   0  0  0  0  0  0  0  0  0  0  0  0
    4.9315  -11.2561   21.1833 C   0  0  1  0  0  0  0  0  0  0  0  0
    5.6167  -12.5263   20.7742 N   0  0  0  0  0  0  0  0  0  0  0  0
    3.9557  -11.5124   22.3996 C   0  0  2  0  0  0  0  0  0  0  0  0
    2.9922  -12.5174   22.0772 O   0  0  0  0  0  0  0  0  0  0  0  0
    3.2631  -10.1596   22.7776 C   0  0  2  0  0  0  0  0  0  0  0  0
    4.2829   -9.1088   23.1177 O   0  0  0  0  0  0  0  0  0  0  0  0
    2.3396  -10.3163   23.9507 C   0  0  0  0  0  0  0  0  0  0  0  0
    3.0415  -10.8042   25.1058 O   0  0  0  0  0  0  0  0  0  0  0  0
    4.1005   -5.1625   25.2044 O   0  0  0  0  0  0  0  0  0  0  0  0
    3.3199   -3.0080   26.9326 O   0  0  0  0  0  0  0  0  0  0  0  0
    6.7880   -9.4871   15.4180 N   0  0  0  0  0  0  0  0  0  0  0  0
    4.2667   -7.8610   17.8800 C   0  0  0  0  0  0  0  0  0  0  0  0
    5.3879   -7.4717   18.1878 O   0  0  0  0  0  0  0  0  0  0  0  0
    3.9725   -8.7291   16.6349 C   0  0  1  0  0  0  0  0  0  0  0  0
    4.6967   -8.1489   15.4031 C   0  0  0  0  0  0  0  0  0  0  0  0
    6.2281   -8.1382   15.4730 C   0  0  0  0  0  0  0  0  0  0  0  0
    4.3987  -10.0860   16.8927 O   0  0  0  0  0  0  0  0  0  0  0  0
  1  2  1  6  0  0  0
  1  3  1  0  0  0  0
  1  8  1  0  0  0  0
  3  4  1  0  0  0  0
  3 32  1  6  0  0  0
  4  5  1  0  0  0  0
  4 33  1  1  0  0  0
  5  6  1  6  0  0  0
  5  7  1  0  0  0  0
  7  8  1  0  0  0  0
  7  9  1  1  0  0  0
  9 10  1  0  0  0  0
 11 12  1  6  0  0  0
 11 13  1  0  0  0  0
 11 19  1  0  0  0  0
 12 35  1  0  0  0  0
 13 14  1  0  0  0  0
 14 15  1  6  0  0  0
 14 16  1  0  0  0  0
 16  2  1  1  0  0  0
 16 17  1  0  0  0  0
 17 18  1  6  0  0  0
 17 19  1  0  0  0  0
 19 20  1  1  0  0  0
 21 20  1  6  0  0  0
 21 22  1  0  0  0  0
 21 29  1  0  0  0  0
 22 23  1  6  0  0  0
 22 24  1  0  0  0  0
 24 25  1  1  0  0  0
 24 26  1  0  0  0  0
 26 27  1  6  0  0  0
 26 28  1  0  0  0  0
 28 29  1  0  0  0  0
 28 30  1  1  0  0  0
 30 31  1  0  0  0  0
 34 39  1  0  0  0  0
 35 36  2  0  0  0  0
 37 35  1  1  0  0  0
 37 38  1  0  0  0  0
 37 40  1  0  0  0  0
 38 39  1  0  0  0  0
M  END
>  <CHROM.1>
-131.86113361,-54.53792544,90.54143879,-172.00483886,-151.25105938,-144.39180185
58.68264775,132.81261699,63.31175377,68.92162210,4.38544413,-6.54753110,21.66605981
-1.90500726,-1.42777508,-2.88132776

>  <Name>
2g5q_lig

>  <RI>
2.47104e+07

>  <Rbt.Current_Directory>
/home/itssahil/PROJECTS/Mol_Feturizer/New_Systems/rnas/2g5q

>  <Rbt.Executable>
rbdock ($Id: //depot/dev/client3/rdock/2013.1/src/exe/rbdock.cxx#4 $)

>  <Rbt.Library>
libRbt.so (2013.1, Build901 2013/11/27)

>  <Rbt.Parameter_File>
/export/apps/rDock/src/rDock_2013.1_src/data/scripts/dock_solv.prm

>  <Rbt.Receptor>
prm/pocket_docking_7.prm

>  <SCORE>
-21.0746

>  <SCORE.INTER>
-23.4833

>  <SCORE.INTER.CONST>
1

>  <SCORE.INTER.POLAR>
-1.33255

>  <SCORE.INTER.ROT>
10

>  <SCORE.INTER.SOLV>
16.3551

>  <SCORE.INTER.VDW>
-26.932

>  <SCORE.INTER.norm>
-0.587081

>  <SCORE.INTRA>
2.40075

>  <SCORE.INTRA.DIHEDRAL>
-4.3972

>  <SCORE.INTRA.DIHEDRAL.0>
22.5778

>  <SCORE.INTRA.POLAR>
0

>  <SCORE.INTRA.POLAR.0>
0

>  <SCORE.INTRA.REPUL>
0

>  <SCORE.INTRA.REPUL.0>
0

>  <SCORE.INTRA.SOLV>
3.55065

>  <SCORE.INTRA.SOLV.lig_0>
-102.332

>  <SCORE.INTRA.VDW>
2.82403

>  <SCORE.INTRA.VDW.0>
-5.08747

>  <SCORE.INTRA.norm>
0.0600189

>  <SCORE.RESTR>
0.00786988

>  <SCORE.RESTR.CAVITY>
0.00786988

>  <SCORE.RESTR.norm>
0.000196747

>  <SCORE.SYSTEM>
0

>  <SCORE.SYSTEM.CONST>
0

>  <SCORE.SYSTEM.DIHEDRAL>
0

>  <SCORE.SYSTEM.SOLV>
0

>  <SCORE.SYSTEM.norm>
0

>  <SCORE.heavy>
40

>  <SCORE.norm>
-0.526866

>  <RMSD>
8.035

$$$$
2g5q_lig
 OpenBabel11021811433D
libRbt.so/2013.1/901 2013/11/27
 40 42  0  0  0  0  0  0  0  0999 V2000
   -2.7085  -10.5908   17.3018 C   0  0  2  0  0  0  0  0  0  0  0  0
   -2.3162   -9.3085   17.7394 O   0  0  0  0  0  0  0  0  0  0  0  0
   -4.1494  -10.5030   16.7181 C   0  0  1  0  0  0  0  0  0  0  0  0
   -5.2032  -10.1658   17.8178 C   0  0  2  0  0  0  0  0  0  0  0  0
   -5.1418  -11.2828   18.8918 C   0  0  2  0  0  0  0  0  0  0  0  0
   -6.1168  -11.0198   19.9138 O   0  0  0  0  0  0  0  0  0  0  0  0
   -3.6786  -11.3125   19.4936 C   0  0  2  0  0  0  0  0  0  0  0  0
   -2.6872  -11.5789   18.4124 O   0  0  0  0  0  0  0  0  0  0  0  0
   -3.4996  -12.3908   20.5571 C   0  0  0  0  0  0  0  0  0  0  0  0
   -3.7055  -13.7662   20.0027 N   0  0  0  0  0  0  0  0  0  0  0  0
    1.4586   -7.2330   18.4605 C   0  0  2  0  0  0  0  0  0  0  0  0
    2.7902   -6.9262   18.9691 N   0  0  0  0  0  0  0  0  0  0  0  0
    0.4354   -7.3910   19.6621 C   0  0  0  0  0  0  0  0  0  0  0  0
   -1.0101   -7.7164   19.1152 C   0  0  2  0  0  0  0  0  0  0  0  0
   -1.9620   -7.8510   20.2509 N   0  0  0  0  0  0  0  0  0  0  0  0
   -0.9606   -9.0357   18.2463 C   0  0  2  0  0  0  0  0  0  0  0  0
    0.0703   -8.8419   17.0645 C   0  0  2  0  0  0  0  0  0  0  0  0
    0.1181  -10.0397   16.2829 O   0  0  0  0  0  0  0  0  0  0  0  0
    1.5082   -8.5336   17.6323 C   0  0  1  0  0  0  0  0  0  0  0  0
    2.4530   -8.3434   16.5416 O   0  0  0  0  0  0  0  0  0  0  0  0
    2.8914   -9.3713   15.6876 C   0  0  2  0  0  0  0  0  0  0  0  0
    3.7845  -10.3381   16.5367 C   0  0  2  0  0  0  0  0  0  0  0  0
    3.0353  -10.8621   17.5857 O   0  0  0  0  0  0  0  0  0  0  0  0
    5.0689   -9.6010   17.0748 C   0  0  1  0  0  0  0  0  0  0  0  0
    5.9335  -10.5203   17.8857 N   0  0  0  0  0  0  0  0  0  0  0  0
    5.8672   -9.0276   15.8373 C   0  0  2  0  0  0  0  0  0  0  0  0
    7.0517   -8.3514   16.2636 O   0  0  0  0  0  0  0  0  0  0  0  0
    4.9228   -8.0707   15.0340 C   0  0  2  0  0  0  0  0  0  0  0  0
    3.6807   -8.7899   14.5871 O   0  0  0  0  0  0  0  0  0  0  0  0
    5.6032   -7.5079   13.8200 C   0  0  0  0  0  0  0  0  0  0  0  0
    4.7313   -6.6248   13.0956 O   0  0  0  0  0  0  0  0  0  0  0  0
   -4.1554   -9.4916   15.6527 O   0  0  0  0  0  0  0  0  0  0  0  0
   -6.4572  -10.1139   17.2502 O   0  0  0  0  0  0  0  0  0  0  0  0
    3.7702   -8.0700   22.7867 N   0  0  0  0  0  0  0  0  0  0  0  0
    3.5535   -7.7628   19.7713 C   0  0  0  0  0  0  0  0  0  0  0  0
    3.1838   -8.8675   20.1538 O   0  0  0  0  0  0  0  0  0  0  0  0
    4.9180   -7.1389   20.1446 C   0  0  1  0  0  0  0  0  0  0  0  0
    4.7721   -6.2652   21.4069 C   0  0  0  0  0  0  0  0  0  0  0  0
    4.7822   -7.0165   22.7433 C   0  0  0  0  0  0  0  0  0  0  0  0
    5.8797   -8.1968   20.3573 O   0  0  0  0  0  0  0  0  0  0  0  0
  1  2  1  1  0  0  0
  1  3  1  0  0  0  0
  1  8  1  0  0  0  0
  3  4  1  0  0  0  0
  3 32  1  6  0  0  0
  4  5  1  0  0  0  0
  4 33  1  6  0  0  0
  5  6  1  1  0  0  0
  5  7  1  0  0  0  0
  7  8  1  0  0  0  0
  7  9  1  1  0  0  0
  9 10  1  0  0  0  0
 11 12  1  1  0  0  0
 11 13  1  0  0  0  0
 11 19  1  0  0  0  0
 12 35  1  0  0  0  0
 13 14  1  0  0  0  0
 14 15  1  1  0  0  0
 14 16  1  0  0  0  0
 16  2  1  6  0  0  0
 16 17  1  0  0  0  0
 17 18  1  1  0  0  0
 17 19  1  0  0  0  0
 19 20  1  6  0  0  0
 21 20  1  1  0  0  0
 21 22  1  0  0  0  0
 21 29  1  0  0  0  0
 22 23  1  1  0  0  0
 22 24  1  0  0  0  0
 24 25  1  6  0  0  0
 24 26  1  0  0  0  0
 26 27  1  1  0  0  0
 26 28  1  0  0  0  0
 28 29  1  0  0  0  0
 28 30  1  6  0  0  0
 30 31  1  0  0  0  0
 34 39  1  0  0  0  0
 35 36  2  0  0  0  0
 37 35  1  1  0  0  0
 37 38  1  0  0  0  0
 37 40  1  0  0  0  0
 38 39  1  0  0  0  0
M  END
>  <CHROM.1>
-175.08533341,62.40447177,63.43059986,-159.52500676,171.13613813,-68.82207394
-179.61337411,86.62237400,81.11376888,-54.76820433,0.95301537,-9.15537891
18.03823033,3.06940177,0.28136681,1.48072483

>  <Name>
2g5q_lig

>  <RI>
2.47104e+07

>  <Rbt.Current_Directory>
/home/itssahil/PROJECTS/Mol_Feturizer/New_Systems/rnas/2g5q

>  <Rbt.Executable>
rbdock ($Id: //depot/dev/client3/rdock/2013.1/src/exe/rbdock.cxx#4 $)

>  <Rbt.Library>
libRbt.so (2013.1, Build901 2013/11/27)

>  <Rbt.Parameter_File>
/export/apps/rDock/src/rDock_2013.1_src/data/scripts/dock_solv.prm

>  <Rbt.Receptor>
prm/pocket_docking_7.prm

>  <SCORE>
-18.8001

>  <SCORE.INTER>
-13.3425

>  <SCORE.INTER.CONST>
1

>  <SCORE.INTER.POLAR>
-1.59783

>  <SCORE.INTER.ROT>
10

>  <SCORE.INTER.SOLV>
16.0425

>  <SCORE.INTER.VDW>
-19.1831

>  <SCORE.INTER.norm>
-0.333563

>  <SCORE.INTRA>
-5.45755

>  <SCORE.INTRA.DIHEDRAL>
-16.7529

>  <SCORE.INTRA.DIHEDRAL.0>
22.5778

>  <SCORE.INTRA.POLAR>
0

>  <SCORE.INTRA.POLAR.0>
0

>  <SCORE.INTRA.REPUL>
0

>  <SCORE.INTRA.REPUL.0>
0

>  <SCORE.INTRA.SOLV>
6.822

>  <SCORE.INTRA.SOLV.lig_0>
-102.332

>  <SCORE.INTRA.VDW>
-0.492102

>  <SCORE.INTRA.VDW.0>
-5.08747

>  <SCORE.INTRA.norm>
-0.136439

>  <SCORE.RESTR>
0

>  <SCORE.RESTR.CAVITY>
0

>  <SCORE.RESTR.norm>
0

>  <SCORE.SYSTEM>
0

>  <SCORE.SYSTEM.CONST>
0

>  <SCORE.SYSTEM.DIHEDRAL>
0

>  <SCORE.SYSTEM.SOLV>
0

>  <SCORE.SYSTEM.norm>
0

>  <SCORE.heavy>
40

>  <SCORE.norm>
-0.470002

>  <RMSD>
8.038

$$$$
2g5q_lig
 OpenBabel11021811433D
libRbt.so/2013.1/901 2013/11/27
 40 42  0  0  0  0  0  0  0  0999 V2000
   -3.5109   -9.8549   18.7078 C   0  0  2  0  0  0  0  0  0  0  0  0
   -2.3358   -9.4379   18.0485 O   0  0  0  0  0  0  0  0  0  0  0  0
   -3.6332  -11.4024   18.5850 C   0  0  1  0  0  0  0  0  0  0  0  0
   -3.8750  -11.8518   17.1108 C   0  0  2  0  0  0  0  0  0  0  0  0
   -5.1857  -11.1837   16.6204 C   0  0  2  0  0  0  0  0  0  0  0  0
   -5.4563  -11.5924   15.2698 O   0  0  0  0  0  0  0  0  0  0  0  0
   -5.0087   -9.6141   16.7166 C   0  0  2  0  0  0  0  0  0  0  0  0
   -4.7214   -9.2183   18.1250 O   0  0  0  0  0  0  0  0  0  0  0  0
   -6.2512   -8.8516   16.2692 C   0  0  0  0  0  0  0  0  0  0  0  0
   -6.3763   -8.8070   14.7778 N   0  0  0  0  0  0  0  0  0  0  0  0
    1.8612   -8.6057   18.9263 C   0  0  2  0  0  0  0  0  0  0  0  0
    3.1765   -8.6548   19.5535 N   0  0  0  0  0  0  0  0  0  0  0  0
    0.7626   -8.1798   19.9882 C   0  0  0  0  0  0  0  0  0  0  0  0
   -0.6630   -8.1184   19.3112 C   0  0  2  0  0  0  0  0  0  0  0  0
   -1.6820   -7.7072   20.3145 N   0  0  0  0  0  0  0  0  0  0  0  0
   -1.0095   -9.5266   18.6828 C   0  0  2  0  0  0  0  0  0  0  0  0
    0.1071   -9.9179   17.6355 C   0  0  2  0  0  0  0  0  0  0  0  0
   -0.2054  -11.1960   17.0726 O   0  0  0  0  0  0  0  0  0  0  0  0
    1.5182   -9.9886   18.3347 C   0  0  1  0  0  0  0  0  0  0  0  0
    2.5464  -10.3371   17.3654 O   0  0  0  0  0  0  0  0  0  0  0  0
    2.6352  -11.5843   16.7215 C   0  0  2  0  0  0  0  0  0  0  0  0
    4.0725  -11.6952   16.1091 C   0  0  2  0  0  0  0  0  0  0  0  0
    5.0191  -11.6024   17.1249 O   0  0  0  0  0  0  0  0  0  0  0  0
    4.3113  -10.5882   15.0136 C   0  0  1  0  0  0  0  0  0  0  0  0
    5.6842  -10.6891   14.4175 N   0  0  0  0  0  0  0  0  0  0  0  0
    3.2031  -10.7466   13.8981 C   0  0  2  0  0  0  0  0  0  0  0  0
    3.3728   -9.7702   12.8686 O   0  0  0  0  0  0  0  0  0  0  0  0
    1.7950  -10.6245   14.5726 C   0  0  2  0  0  0  0  0  0  0  0  0
    1.6234  -11.6562   15.6524 O   0  0  0  0  0  0  0  0  0  0  0  0
    0.6846  -10.7961   13.5770 C   0  0  0  0  0  0  0  0  0  0  0  0
    0.7634  -12.0730   12.9225 O   0  0  0  0  0  0  0  0  0  0  0  0
   -2.4091  -12.0069   19.1276 O   0  0  0  0  0  0  0  0  0  0  0  0
   -3.9883  -13.2238   17.0628 O   0  0  0  0  0  0  0  0  0  0  0  0
    5.2072   -6.3092   22.7659 N   0  0  0  0  0  0  0  0  0  0  0  0
    4.1735   -7.7018   19.3989 C   0  0  0  0  0  0  0  0  0  0  0  0
    4.0598   -6.7004   18.7006 O   0  0  0  0  0  0  0  0  0  0  0  0
    5.4530   -8.0522   20.1931 C   0  0  1  0  0  0  0  0  0  0  0  0
    5.0819   -8.5077   21.6189 C   0  0  0  0  0  0  0  0  0  0  0  0
    4.3619   -7.4680   22.4855 C   0  0  0  0  0  0  0  0  0  0  0  0
    6.1762   -9.0887   19.4917 O   0  0  0  0  0  0  0  0  0  0  0  0
  1  2  1  6  0  0  0
  1  3  1  0  0  0  0
  1  8  1  0  0  0  0
  3  4  1  0  0  0  0
  3 32  1  6  0  0  0
  4  5  1  0  0  0  0
  4 33  1  1  0  0  0
  5  6  1  6  0  0  0
  5  7  1  0  0  0  0
  7  8  1  0  0  0  0
  7  9  1  1  0  0  0
  9 10  1  0  0  0  0
 11 12  1  1  0  0  0
 11 13  1  0  0  0  0
 11 19  1  0  0  0  0
 12 35  1  0  0  0  0
 13 14  1  0  0  0  0
 14 15  1  1  0  0  0
 14 16  1  0  0  0  0
 16  2  1  6  0  0  0
 16 17  1  0  0  0  0
 17 18  1  1  0  0  0
 17 19  1  0  0  0  0
 19 20  1  6  0  0  0
 21 20  1  6  0  0  0
 21 22  1  0  0  0  0
 21 29  1  0  0  0  0
 22 23  1  1  0  0  0
 22 24  1  0  0  0  0
 24 25  1  6  0  0  0
 24 26  1  0  0  0  0
 26 27  1  6  0  0  0
 26 28  1  0  0  0  0
 28 29  1  0  0  0  0
 28 30  1  6  0  0  0
 30 31  1  0  0  0  0
 34 39  1  0  0  0  0
 35 36  2  0  0  0  0
 37 35  1  6  0  0  0
 37 38  1  0  0  0  0
 37 40  1  0  0  0  0
 38 39  1  0  0  0  0
M  END
>  <CHROM.1>
-80.92951452,-77.45671581,-104.21291550,-96.64039182,173.48308290,-163.64698257
58.72544455,-45.41965802,-61.68498232,-64.52618599,0.52325491,-9.90482365
17.49619769,2.85773118,-0.05672875,-2.04466048

>  <Name>
2g5q_lig

>  <RI>
9.52566e+06

>  <Rbt.Current_Directory>
/home/itssahil/PROJECTS/Mol_Feturizer/New_Systems/rnas/2g5q

>  <Rbt.Executable>
rbdock ($Id: //depot/dev/client3/rdock/2013.1/src/exe/rbdock.cxx#4 $)

>  <Rbt.Library>
libRbt.so (2013.1, Build901 2013/11/27)

>  <Rbt.Parameter_File>
/export/apps/rDock/src/rDock_2013.1_src/data/scripts/dock_solv.prm

>  <Rbt.Receptor>
prm/pocket_docking_4.prm

>  <SCORE>
-11.9226

>  <SCORE.INTER>
-9.863

>  <SCORE.INTER.CONST>
1

>  <SCORE.INTER.POLAR>
-2.06289

>  <SCORE.INTER.ROT>
10

>  <SCORE.INTER.SOLV>
18.9169

>  <SCORE.INTER.VDW>
-16.2713

>  <SCORE.INTER.norm>
-0.246575

>  <SCORE.INTRA>
-2.0596

>  <SCORE.INTRA.DIHEDRAL>
-11.175

>  <SCORE.INTRA.DIHEDRAL.0>
22.5778

>  <SCORE.INTRA.POLAR>
0

>  <SCORE.INTRA.POLAR.0>
0

>  <SCORE.INTRA.REPUL>
0.184239

>  <SCORE.INTRA.REPUL.0>
0

>  <SCORE.INTRA.SOLV>
2.20229

>  <SCORE.INTRA.SOLV.lig_0>
-102.332

>  <SCORE.INTRA.VDW>
1.50556

>  <SCORE.INTRA.VDW.0>
-5.08747

>  <SCORE.INTRA.norm>
-0.0514901

>  <SCORE.RESTR>
0

>  <SCORE.RESTR.CAVITY>
0

>  <SCORE.RESTR.norm>
0

>  <SCORE.SYSTEM>
0

>  <SCORE.SYSTEM.CONST>
0

>  <SCORE.SYSTEM.DIHEDRAL>
0

>  <SCORE.SYSTEM.SOLV>
0

>  <SCORE.SYSTEM.norm>
0

>  <SCORE.heavy>
40

>  <SCORE.norm>
-0.298065

>  <RMSD>
8.047

$$$$
2g5q_lig
 OpenBabel11021811433D
libRbt.so/2013.1/901 2013/11/27
 40 42  0  0  0  0  0  0  0  0999 V2000
   -3.6741  -10.6601   17.6851 C   0  0  2  0  0  0  0  0  0  0  0  0
   -2.5522  -10.5663   16.8353 O   0  0  0  0  0  0  0  0  0  0  0  0
   -4.7210  -11.6096   17.0315 C   0  0  1  0  0  0  0  0  0  0  0  0
   -5.3171  -11.0055   15.7226 C   0  0  2  0  0  0  0  0  0  0  0  0
   -5.9905   -9.6569   16.0866 C   0  0  2  0  0  0  0  0  0  0  0  0
   -6.5736   -9.0782   14.9078 O   0  0  0  0  0  0  0  0  0  0  0  0
   -4.8894   -8.7035   16.7051 C   0  0  2  0  0  0  0  0  0  0  0  0
   -4.2957   -9.3304   17.9206 O   0  0  0  0  0  0  0  0  0  0  0  0
   -5.4478   -7.3448   17.1148 C   0  0  0  0  0  0  0  0  0  0  0  0
   -6.5826   -7.4727   18.0831 N   0  0  0  0  0  0  0  0  0  0  0  0
    1.6156   -9.3391   17.2831 C   0  0  2  0  0  0  0  0  0  0  0  0
    2.9755   -9.2318   17.7978 N   0  0  0  0  0  0  0  0  0  0  0  0
    0.5718   -8.9092   18.3973 C   0  0  0  0  0  0  0  0  0  0  0  0
   -0.9026   -9.0170   17.8415 C   0  0  2  0  0  0  0  0  0  0  0  0
   -1.8708   -8.6007   18.8919 N   0  0  0  0  0  0  0  0  0  0  0  0
   -1.1776  -10.4969   17.3594 C   0  0  2  0  0  0  0  0  0  0  0  0
   -0.1176  -10.8898   16.2554 C   0  0  2  0  0  0  0  0  0  0  0  0
   -0.3645  -12.2321   15.8250 O   0  0  0  0  0  0  0  0  0  0  0  0
    1.3449  -10.7903   16.8352 C   0  0  1  0  0  0  0  0  0  0  0  0
    2.3197  -11.1408   15.8127 O   0  0  0  0  0  0  0  0  0  0  0  0
    3.2085  -12.2267   15.9075 C   0  0  2  0  0  0  0  0  0  0  0  0
    4.2243  -12.1068   14.7213 C   0  0  2  0  0  0  0  0  0  0  0  0
    4.9139  -10.9021   14.8198 O   0  0  0  0  0  0  0  0  0  0  0  0
    3.4923  -12.2249   13.3311 C   0  0  1  0  0  0  0  0  0  0  0  0
    4.4578  -12.1158   12.1882 N   0  0  0  0  0  0  0  0  0  0  0  0
    2.7276  -13.6072   13.2886 C   0  0  2  0  0  0  0  0  0  0  0  0
    2.0474  -13.7755   12.0432 O   0  0  0  0  0  0  0  0  0  0  0  0
    1.7301  -13.6631   14.4946 C   0  0  2  0  0  0  0  0  0  0  0  0
    2.4535  -13.4878   15.8007 O   0  0  0  0  0  0  0  0  0  0  0  0
    0.9851  -14.9656   14.5404 C   0  0  0  0  0  0  0  0  0  0  0  0
    0.2649  -15.1979   13.3189 O   0  0  0  0  0  0  0  0  0  0  0  0
   -4.0727  -12.9017   16.7697 O   0  0  0  0  0  0  0  0  0  0  0  0
   -6.2436  -11.8781   15.1958 O   0  0  0  0  0  0  0  0  0  0  0  0
    3.4032   -6.4377   20.4232 N   0  0  0  0  0  0  0  0  0  0  0  0
    3.6892   -8.0494   17.9343 C   0  0  0  0  0  0  0  0  0  0  0  0
    3.2511   -6.9467   17.6251 O   0  0  0  0  0  0  0  0  0  0  0  0
    5.1079   -8.2788   18.5045 C   0  0  1  0  0  0  0  0  0  0  0  0
    5.0710   -8.2379   20.0457 C   0  0  0  0  0  0  0  0  0  0  0  0
    4.7777   -6.8688   20.6700 C   0  0  0  0  0  0  0  0  0  0  0  0
    5.6071   -9.5510   18.0337 O   0  0  0  0  0  0  0  0  0  0  0  0
  1  2  1  6  0  0  0
  1  3  1  0  0  0  0
  1  8  1  0  0  0  0
  3  4  1  0  0  0  0
  3 32  1  6  0  0  0
  4  5  1  0  0  0  0
  4 33  1  1  0  0  0
  5  6  1  6  0  0  0
  5  7  1  0  0  0  0
  7  8  1  0  0  0  0
  7  9  1  1  0  0  0
  9 10  1  0  0  0  0
 11 12  1  1  0  0  0
 11 13  1  0  0  0  0
 11 19  1  0  0  0  0
 12 35  1  0  0  0  0
 13 14  1  0  0  0  0
 14 15  1  1  0  0  0
 14 16  1  0  0  0  0
 16  2  1  6  0  0  0
 16 17  1  0  0  0  0
 17 18  1  1  0  0  0
 17 19  1  0  0  0  0
 19 20  1  6  0  0  0
 21 20  1  6  0  0  0
 21 22  1  0  0  0  0
 21 29  1  0  0  0  0
 22 23  1  6  0  0  0
 22 24  1  0  0  0  0
 24 25  1  6  0  0  0
 24 26  1  0  0  0  0
 26 27  1  6  0  0  0
 26 28  1  0  0  0  0
 28 29  1  0  0  0  0
 28 30  1  1  0  0  0
 30 31  1  0  0  0  0
 34 39  1  0  0  0  0
 35 36  2  0  0  0  0
 37 35  1  6  0  0  0
 37 38  1  0  0  0  0
 37 40  1  0  0  0  0
 38 39  1  0  0  0  0
M  END
>  <CHROM.1>
-142.27077817,56.53599668,-77.85885066,-79.21985895,122.31561297,-171.00945255
-57.56806013,-88.53364496,-68.71348815,68.82822195,0.11588873,-10.52191286
16.47140854,-3.09290007,0.02187358,-2.42086524

>  <Name>
2g5q_lig

>  <RI>
0

>  <Rbt.Current_Directory>
/home/itssahil/PROJECTS/Mol_Feturizer/New_Systems/rnas/2g5q

>  <Rbt.Executable>
rbdock ($Id: //depot/dev/client3/rdock/2013.1/src/exe/rbdock.cxx#4 $)

>  <Rbt.Library>
libRbt.so (2013.1, Build901 2013/11/27)

>  <Rbt.Parameter_File>
/export/apps/rDock/src/rDock_2013.1_src/data/scripts/dock_solv.prm

>  <Rbt.Receptor>
prm/pocket_docking_3.prm

>  <SCORE>
-7.79062

>  <SCORE.INTER>
-7.92277

>  <SCORE.INTER.CONST>
1

>  <SCORE.INTER.POLAR>
-0.828441

>  <SCORE.INTER.ROT>
10

>  <SCORE.INTER.SOLV>
10.4616

>  <SCORE.INTER.VDW>
-16.2742

>  <SCORE.INTER.norm>
-0.198069

>  <SCORE.INTRA>
0.12003

>  <SCORE.INTRA.DIHEDRAL>
-5.90892

>  <SCORE.INTRA.DIHEDRAL.0>
22.5778

>  <SCORE.INTRA.POLAR>
0

>  <SCORE.INTRA.POLAR.0>
0

>  <SCORE.INTRA.REPUL>
0

>  <SCORE.INTRA.REPUL.0>
0

>  <SCORE.INTRA.SOLV>
6.52827

>  <SCORE.INTRA.SOLV.lig_0>
-102.332

>  <SCORE.INTRA.VDW>
-0.189645

>  <SCORE.INTRA.VDW.0>
-5.08747

>  <SCORE.INTRA.norm>
0.00300075

>  <SCORE.RESTR>
0.0121212

>  <SCORE.RESTR.CAVITY>
0.0121212

>  <SCORE.RESTR.norm>
0.00030303

>  <SCORE.SYSTEM>
0

>  <SCORE.SYSTEM.CONST>
0

>  <SCORE.SYSTEM.DIHEDRAL>
0

>  <SCORE.SYSTEM.SOLV>
0

>  <SCORE.SYSTEM.norm>
0

>  <SCORE.heavy>
40

>  <SCORE.norm>
-0.194766

>  <RMSD>
8.052

$$$$
2g5q_lig
 OpenBabel11021811433D
libRbt.so/2013.1/901 2013/11/27
 40 42  0  0  0  0  0  0  0  0999 V2000
   -3.1672  -11.8753   16.9099 C   0  0  2  0  0  0  0  0  0  0  0  0
   -2.9874  -11.3302   18.1984 O   0  0  0  0  0  0  0  0  0  0  0  0
   -3.6081  -10.7387   15.9411 C   0  0  1  0  0  0  0  0  0  0  0  0
   -5.0248  -10.1895   16.2948 C   0  0  2  0  0  0  0  0  0  0  0  0
   -6.0267  -11.3698   16.2057 C   0  0  2  0  0  0  0  0  0  0  0  0
   -7.3510  -10.8984   16.5032 O   0  0  0  0  0  0  0  0  0  0  0  0
   -5.5736  -12.4840   17.2341 C   0  0  2  0  0  0  0  0  0  0  0  0
   -4.1952  -12.9493   16.9080 O   0  0  0  0  0  0  0  0  0  0  0  0
   -6.4863  -13.7056   17.2208 C   0  0  0  0  0  0  0  0  0  0  0  0
   -6.4202  -14.4701   18.5064 N   0  0  0  0  0  0  0  0  0  0  0  0
    0.2204   -8.3726   17.9973 C   0  0  2  0  0  0  0  0  0  0  0  0
    1.3967   -7.5858   18.3480 N   0  0  0  0  0  0  0  0  0  0  0  0
   -0.9032   -8.2027   19.1040 C   0  0  0  0  0  0  0  0  0  0  0  0
   -2.1822   -9.0480   18.7244 C   0  0  2  0  0  0  0  0  0  0  0  0
   -3.2320   -8.8713   19.7640 N   0  0  0  0  0  0  0  0  0  0  0  0
   -1.7812  -10.5683   18.5640 C   0  0  2  0  0  0  0  0  0  0  0  0
   -0.6593  -10.6966   17.4586 C   0  0  2  0  0  0  0  0  0  0  0  0
   -0.2933  -12.0731   17.3197 O   0  0  0  0  0  0  0  0  0  0  0  0
    0.6128   -9.8587   17.8644 C   0  0  1  0  0  0  0  0  0  0  0  0
    1.6396   -9.9687   16.8389 O   0  0  0  0  0  0  0  0  0  0  0  0
    1.5778   -9.3302   15.5872 C   0  0  2  0  0  0  0  0  0  0  0  0
    1.2466  -10.4253   14.5175 C   0  0  2  0  0  0  0  0  0  0  0  0
    0.0256  -11.0191   14.8228 O   0  0  0  0  0  0  0  0  0  0  0  0
    2.3922  -11.5038   14.4334 C   0  0  1  0  0  0  0  0  0  0  0  0
    2.0862  -12.5549   13.4079 N   0  0  0  0  0  0  0  0  0  0  0  0
    3.7460  -10.7641   14.0909 C   0  0  2  0  0  0  0  0  0  0  0  0
    4.8255  -11.6955   13.9938 O   0  0  0  0  0  0  0  0  0  0  0  0
    4.0199   -9.6877   15.1949 C   0  0  2  0  0  0  0  0  0  0  0  0
    2.8814   -8.7105   15.2891 O   0  0  0  0  0  0  0  0  0  0  0  0
    5.2793   -8.9178   14.9210 C   0  0  0  0  0  0  0  0  0  0  0  0
    5.2143   -8.2453   13.6528 O   0  0  0  0  0  0  0  0  0  0  0  0
   -2.5999   -9.6715   15.9919 O   0  0  0  0  0  0  0  0  0  0  0  0
   -5.3685   -9.1994   15.4011 O   0  0  0  0  0  0  0  0  0  0  0  0
    5.1557   -7.9357   22.7980 N   0  0  0  0  0  0  0  0  0  0  0  0
    2.1810   -7.7774   19.4768 C   0  0  0  0  0  0  0  0  0  0  0  0
    1.9640   -8.6388   20.3219 O   0  0  0  0  0  0  0  0  0  0  0  0
    3.3517   -6.7709   19.5597 C   0  0  1  0  0  0  0  0  0  0  0  0
    4.4467   -7.3104   20.5021 C   0  0  0  0  0  0  0  0  0  0  0  0
    4.0729   -7.3826   21.9872 C   0  0  0  0  0  0  0  0  0  0  0  0
    3.8778   -6.5465   18.2322 O   0  0  0  0  0  0  0  0  0  0  0  0
  1  2  1  1  0  0  0
  1  3  1  0  0  0  0
  1  8  1  0  0  0  0
  3  4  1  0  0  0  0
  3 32  1  1  0  0  0
  4  5  1  0  0  0  0
  4 33  1  6  0  0  0
  5  6  1  1  0  0  0
  5  7  1  0  0  0  0
  7  8  1  0  0  0  0
  7  9  1  6  0  0  0
  9 10  1  0  0  0  0
 11 12  1  1  0  0  0
 11 13  1  0  0  0  0
 11 19  1  0  0  0  0
 12 35  1  0  0  0  0
 13 14  1  0  0  0  0
 14 15  1  1  0  0  0
 14 16  1  0  0  0  0
 16  2  1  6  0  0  0
 16 17  1  0  0  0  0
 17 18  1  1  0  0  0
 17 19  1  0  0  0  0
 19 20  1  6  0  0  0
 21 20  1  1  0  0  0
 21 22  1  0  0  0  0
 21 29  1  0  0  0  0
 22 23  1  1  0  0  0
 22 24  1  0  0  0  0
 24 25  1  6  0  0  0
 24 26  1  0  0  0  0
 26 27  1  1  0  0  0
 26 28  1  0  0  0  0
 28 29  1  0  0  0  0
 28 30  1  6  0  0  0
 30 31  1  0  0  0  0
 34 39  1  0  0  0  0
 35 36  2  0  0  0  0
 37 35  1  6  0  0  0
 37 38  1  0  0  0  0
 37 40  1  0  0  0  0
 38 39  1  0  0  0  0
M  END
>  <CHROM.1>
-78.31184135,-156.68835083,62.66119811,109.22020508,-45.81896649,-105.91854779
59.21526513,-159.97712298,-68.31865992,178.55294182,-0.13597210,-9.98839968
17.12465745,-2.94518356,0.27952173,1.11336738

>  <Name>
2g5q_lig

>  <RI>
9.52566e+06

>  <Rbt.Current_Directory>
/home/itssahil/PROJECTS/Mol_Feturizer/New_Systems/rnas/2g5q

>  <Rbt.Executable>
rbdock ($Id: //depot/dev/client3/rdock/2013.1/src/exe/rbdock.cxx#4 $)

>  <Rbt.Library>
libRbt.so (2013.1, Build901 2013/11/27)

>  <Rbt.Parameter_File>
/export/apps/rDock/src/rDock_2013.1_src/data/scripts/dock_solv.prm

>  <Rbt.Receptor>
prm/pocket_docking_4.prm

>  <SCORE>
-14.0706

>  <SCORE.INTER>
-16.1578

>  <SCORE.INTER.CONST>
1

>  <SCORE.INTER.POLAR>
-2.82811

>  <SCORE.INTER.ROT>
10

>  <SCORE.INTER.SOLV>
15.4263

>  <SCORE.INTER.VDW>
-16.7536

>  <SCORE.INTER.norm>
-0.403946

>  <SCORE.INTRA>
2.08727

>  <SCORE.INTRA.DIHEDRAL>
-3.95474

>  <SCORE.INTRA.DIHEDRAL.0>
22.5778

>  <SCORE.INTRA.POLAR>
0

>  <SCORE.INTRA.POLAR.0>
0

>  <SCORE.INTRA.REPUL>
0

>  <SCORE.INTRA.REPUL.0>
0

>  <SCORE.INTRA.SOLV>
2.1069

>  <SCORE.INTRA.SOLV.lig_0>
-102.332

>  <SCORE.INTRA.VDW>
3.01119

>  <SCORE.INTRA.VDW.0>
-5.08747

>  <SCORE.INTRA.norm>
0.0521816

>  <SCORE.RESTR>
0

>  <SCORE.RESTR.CAVITY>
0

>  <SCORE.RESTR.norm>
0

>  <SCORE.SYSTEM>
0

>  <SCORE.SYSTEM.CONST>
0

>  <SCORE.SYSTEM.DIHEDRAL>
0

>  <SCORE.SYSTEM.SOLV>
0

>  <SCORE.SYSTEM.norm>
0

>  <SCORE.heavy>
40

>  <SCORE.norm>
-0.351764

>  <RMSD>
8.060

$$$$
2g5q_lig
 OpenBabel11021811433D
libRbt.so/2013.1/901 2013/11/27
 40 42  0  0  0  0  0  0  0  0999 V2000
   -3.2473  -11.1775   15.4732 C   0  0  2  0  0  0  0  0  0  0  0  0
   -2.6121  -10.1055   16.1340 O   0  0  0  0  0  0  0  0  0  0  0  0
   -4.7820  -11.0798   15.7184 C   0  0  1  0  0  0  0  0  0  0  0  0
   -5.1483  -11.3190   17.2157 C   0  0  2  0  0  0  0  0  0  0  0  0
   -4.6459  -12.7331   17.6068 C   0  0  2  0  0  0  0  0  0  0  0  0
   -4.9858  -13.0012   18.9768 O   0  0  0  0  0  0  0  0  0  0  0  0
   -3.0794  -12.7810   17.3880 C   0  0  2  0  0  0  0  0  0  0  0  0
   -2.7540  -12.4920   15.9620 O   0  0  0  0  0  0  0  0  0  0  0  0
   -2.4769  -14.1394   17.7307 C   0  0  0  0  0  0  0  0  0  0  0  0
   -1.0047  -14.1849   17.4622 N   0  0  0  0  0  0  0  0  0  0  0  0
    1.5102   -8.6782   16.3515 C   0  0  2  0  0  0  0  0  0  0  0  0
    2.9424   -8.6310   16.6201 N   0  0  0  0  0  0  0  0  0  0  0  0
    0.7053   -8.8883   17.7020 C   0  0  0  0  0  0  0  0  0  0  0  0
   -0.8474   -8.9329   17.4164 C   0  0  2  0  0  0  0  0  0  0  0  0
   -1.5910   -9.1191   18.6917 N   0  0  0  0  0  0  0  0  0  0  0  0
   -1.1621  -10.0945   16.3918 C   0  0  2  0  0  0  0  0  0  0  0  0
   -0.3406   -9.8533   15.0637 C   0  0  2  0  0  0  0  0  0  0  0  0
   -0.6222  -10.9095   14.1400 O   0  0  0  0  0  0  0  0  0  0  0  0
    1.2057   -9.8279   15.3688 C   0  0  1  0  0  0  0  0  0  0  0  0
    1.9592   -9.5933   14.1459 O   0  0  0  0  0  0  0  0  0  0  0  0
    1.9905  -10.4802   13.0547 C   0  0  2  0  0  0  0  0  0  0  0  0
    2.7590  -11.7648   13.5157 C   0  0  2  0  0  0  0  0  0  0  0  0
    2.0951  -12.3417   14.5941 O   0  0  0  0  0  0  0  0  0  0  0  0
    4.2534  -11.4314   13.8872 C   0  0  1  0  0  0  0  0  0  0  0  0
    4.9994  -12.6567   14.3258 N   0  0  0  0  0  0  0  0  0  0  0  0
    4.9441  -10.7765   12.6257 C   0  0  2  0  0  0  0  0  0  0  0  0
    6.3098  -10.4574   12.9003 O   0  0  0  0  0  0  0  0  0  0  0  0
    4.1321   -9.5010   12.2179 C   0  0  2  0  0  0  0  0  0  0  0  0
    2.6977   -9.8453   11.9283 O   0  0  0  0  0  0  0  0  0  0  0  0
    4.7115   -8.8378   11.0021 C   0  0  0  0  0  0  0  0  0  0  0  0
    6.0192   -8.3064   11.2711 O   0  0  0  0  0  0  0  0  0  0  0  0
   -5.2386   -9.7583   15.2673 O   0  0  0  0  0  0  0  0  0  0  0  0
   -6.5143  -11.2345   17.3723 O   0  0  0  0  0  0  0  0  0  0  0  0
    5.4435   -9.3565   21.0902 N   0  0  0  0  0  0  0  0  0  0  0  0
    3.5760   -7.6936   17.4240 C   0  0  0  0  0  0  0  0  0  0  0  0
    2.9932   -6.7820   18.0007 O   0  0  0  0  0  0  0  0  0  0  0  0
    5.1042   -7.9164   17.4981 C   0  0  1  0  0  0  0  0  0  0  0  0
    5.4424   -8.8801   18.6535 C   0  0  0  0  0  0  0  0  0  0  0  0
    5.1637   -8.3525   20.0657 C   0  0  0  0  0  0  0  0  0  0  0  0
    5.5674   -8.4430   16.2342 O   0  0  0  0  0  0  0  0  0  0  0  0
  1  2  1  1  0  0  0
  1  3  1  0  0  0  0
  1  8  1  0  0  0  0
  3  4  1  0  0  0  0
  3 32  1  1  0  0  0
  4  5  1  0  0  0  0
  4 33  1  6  0  0  0
  5  6  1  1  0  0  0
  5  7  1  0  0  0  0
  7  8  1  0  0  0  0
  7  9  1  6  0  0  0
  9 10  1  0  0  0  0
 11 12  1  1  0  0  0
 11 13  1  0  0  0  0
 11 19  1  0  0  0  0
 12 35  1  0  0  0  0
 13 14  1  0  0  0  0
 14 15  1  1  0  0  0
 14 16  1  0  0  0  0
 16  2  1  6  0  0  0
 16 17  1  0  0  0  0
 17 18  1  6  0  0  0
 17 19  1  0  0  0  0
 19 20  1  6  0  0  0
 21 20  1  1  0  0  0
 21 22  1  0  0  0  0
 21 29  1  0  0  0  0
 22 23  1  1  0  0  0
 22 24  1  0  0  0  0
 24 25  1  6  0  0  0
 24 26  1  0  0  0  0
 26 27  1  1  0  0  0
 26 28  1  0  0  0  0
 28 29  1  0  0  0  0
 28 30  1  6  0  0  0
 30 31  1  0  0  0  0
 34 39  1  0  0  0  0
 35 36  2  0  0  0  0
 37 35  1  6  0  0  0
 37 38  1  0  0  0  0
 37 40  1  0  0  0  0
 38 39  1  0  0  0  0
M  END
>  <CHROM.1>
164.00778852,177.54846354,-60.99238935,-167.35231655,176.05482948,-68.13948643
-65.85385090,-88.76057381,-66.72036358,176.83846653,0.87456194,-10.30950593
15.83656500,2.96206054,0.30902031,1.31734709

>  <Name>
2g5q_lig

>  <RI>
0

>  <Rbt.Current_Directory>
/home/itssahil/PROJECTS/Mol_Feturizer/New_Systems/rnas/2g5q

>  <Rbt.Executable>
rbdock ($Id: //depot/dev/client3/rdock/2013.1/src/exe/rbdock.cxx#4 $)

>  <Rbt.Library>
libRbt.so (2013.1, Build901 2013/11/27)

>  <Rbt.Parameter_File>
/export/apps/rDock/src/rDock_2013.1_src/data/scripts/dock_solv.prm

>  <Rbt.Receptor>
prm/pocket_docking_5.prm

>  <SCORE>
-20.9096

>  <SCORE.INTER>
-12.688

>  <SCORE.INTER.CONST>
1

>  <SCORE.INTER.POLAR>
-1.23148

>  <SCORE.INTER.ROT>
10

>  <SCORE.INTER.SOLV>
10.9494

>  <SCORE.INTER.VDW>
-18.2702

>  <SCORE.INTER.norm>
-0.3172

>  <SCORE.INTRA>
-8.22161

>  <SCORE.INTRA.DIHEDRAL>
-18.3285

>  <SCORE.INTRA.DIHEDRAL.0>
22.5778

>  <SCORE.INTRA.POLAR>
0

>  <SCORE.INTRA.POLAR.0>
0

>  <SCORE.INTRA.REPUL>
0

>  <SCORE.INTRA.REPUL.0>
0

>  <SCORE.INTRA.SOLV>
-0.0865555

>  <SCORE.INTRA.SOLV.lig_0>
-102.332

>  <SCORE.INTRA.VDW>
0.985939

>  <SCORE.INTRA.VDW.0>
-5.08747

>  <SCORE.INTRA.norm>
-0.20554

>  <SCORE.RESTR>
0

>  <SCORE.RESTR.CAVITY>
0

>  <SCORE.RESTR.norm>
0

>  <SCORE.SYSTEM>
0

>  <SCORE.SYSTEM.CONST>
0

>  <SCORE.SYSTEM.DIHEDRAL>
0

>  <SCORE.SYSTEM.SOLV>
0

>  <SCORE.SYSTEM.norm>
0

>  <SCORE.heavy>
40

>  <SCORE.norm>
-0.52274

>  <RMSD>
8.061

$$$$
2g5q_lig
 OpenBabel11021811433D
libRbt.so/2013.1/901 2013/11/27
 40 42  0  0  0  0  0  0  0  0999 V2000
   -2.8094  -11.2082   16.5304 C   0  0  2  0  0  0  0  0  0  0  0  0
   -2.6338  -10.0291   17.2843 O   0  0  0  0  0  0  0  0  0  0  0  0
   -4.3015  -11.3092   16.0966 C   0  0  1  0  0  0  0  0  0  0  0  0
   -5.2490  -11.5242   17.3171 C   0  0  2  0  0  0  0  0  0  0  0  0
   -4.8208  -12.8361   18.0245 C   0  0  2  0  0  0  0  0  0  0  0  0
   -5.6869  -13.0822   19.1442 O   0  0  0  0  0  0  0  0  0  0  0  0
   -3.3166  -12.6803   18.4905 C   0  0  2  0  0  0  0  0  0  0  0  0
   -2.4417  -12.4181   17.3120 O   0  0  0  0  0  0  0  0  0  0  0  0
   -2.7836  -13.9258   19.1906 C   0  0  0  0  0  0  0  0  0  0  0  0
   -3.5122  -14.2073   20.4680 N   0  0  0  0  0  0  0  0  0  0  0  0
    0.9152   -7.6553   18.2044 C   0  0  2  0  0  0  0  0  0  0  0  0
    2.1927   -7.2467   18.7759 N   0  0  0  0  0  0  0  0  0  0  0  0
   -0.1407   -7.9237   19.3572 C   0  0  0  0  0  0  0  0  0  0  0  0
   -1.5286   -8.3597   18.7420 C   0  0  2  0  0  0  0  0  0  0  0  0
   -2.5127   -8.5974   19.8325 N   0  0  0  0  0  0  0  0  0  0  0  0
   -1.3293   -9.6523   17.8547 C   0  0  2  0  0  0  0  0  0  0  0  0
   -0.2697   -9.3480   16.7226 C   0  0  2  0  0  0  0  0  0  0  0  0
   -0.0862  -10.5215   15.9245 O   0  0  0  0  0  0  0  0  0  0  0  0
    1.1111   -8.9301   17.3580 C   0  0  1  0  0  0  0  0  0  0  0  0
    2.0815   -8.6384   16.3132 O   0  0  0  0  0  0  0  0  0  0  0  0
    2.6075   -9.6006   15.4325 C   0  0  2  0  0  0  0  0  0  0  0  0
    3.4983  -10.5732   16.2774 C   0  0  2  0  0  0  0  0  0  0  0  0
    2.7206  -11.1826   17.2574 O   0  0  0  0  0  0  0  0  0  0  0  0
    4.7199   -9.8131   16.9195 C   0  0  1  0  0  0  0  0  0  0  0  0
    5.5820  -10.7375   17.7273 N   0  0  0  0  0  0  0  0  0  0  0  0
    5.5538   -9.1423   15.7567 C   0  0  2  0  0  0  0  0  0  0  0  0
    6.6842   -8.4412   16.2789 O   0  0  0  0  0  0  0  0  0  0  0  0
    4.6101   -8.1842   14.9542 C   0  0  2  0  0  0  0  0  0  0  0  0
    3.4252   -8.9295   14.4062 O   0  0  0  0  0  0  0  0  0  0  0  0
    5.3257   -7.5300   13.8080 C   0  0  0  0  0  0  0  0  0  0  0  0
    5.7332   -6.1931   14.1421 O   0  0  0  0  0  0  0  0  0  0  0  0
   -4.6533  -10.0855   15.3637 O   0  0  0  0  0  0  0  0  0  0  0  0
   -6.5504  -11.6195   16.8756 O   0  0  0  0  0  0  0  0  0  0  0  0
    4.5029   -9.4097   22.0438 N   0  0  0  0  0  0  0  0  0  0  0  0
    2.3572   -6.2884   19.7663 C   0  0  0  0  0  0  0  0  0  0  0  0
    1.4322   -5.6636   20.2735 O   0  0  0  0  0  0  0  0  0  0  0  0
    3.8413   -6.0830   20.1481 C   0  0  1  0  0  0  0  0  0  0  0  0
    4.4767   -7.4313   20.5438 C   0  0  0  0  0  0  0  0  0  0  0  0
    3.8516   -8.1337   21.7547 C   0  0  0  0  0  0  0  0  0  0  0  0
    4.5401   -5.4915   19.0296 O   0  0  0  0  0  0  0  0  0  0  0  0
  1  2  1  1  0  0  0
  1  3  1  0  0  0  0
  1  8  1  0  0  0  0
  3  4  1  0  0  0  0
  3 32  1  1  0  0  0
  4  5  1  0  0  0  0
  4 33  1  6  0  0  0
  5  6  1  1  0  0  0
  5  7  1  0  0  0  0
  7  8  1  0  0  0  0
  7  9  1  6  0  0  0
  9 10  1  0  0  0  0
 11 12  1  1  0  0  0
 11 13  1  0  0  0  0
 11 19  1  0  0  0  0
 12 35  1  0  0  0  0
 13 14  1  0  0  0  0
 14 15  1  1  0  0  0
 14 16  1  0  0  0  0
 16  2  1  6  0  0  0
 16 17  1  0  0  0  0
 17 18  1  1  0  0  0
 17 19  1  0  0  0  0
 19 20  1  6  0  0  0
 21 20  1  1  0  0  0
 21 22  1  0  0  0  0
 21 29  1  0  0  0  0
 22 23  1  1  0  0  0
 22 24  1  0  0  0  0
 24 25  1  6  0  0  0
 24 26  1  0  0  0  0
 26 27  1  1  0  0  0
 26 28  1  0  0  0  0
 28 29  1  0  0  0  0
 28 30  1  6  0  0  0
 30 31  1  0  0  0  0
 34 39  1  0  0  0  0
 35 36  2  0  0  0  0
 37 35  1  6  0  0  0
 37 38  1  0  0  0  0
 37 40  1  0  0  0  0
 38 39  1  0  0  0  0
M  END
>  <CHROM.1>
179.33411593,-63.97297591,-47.01321961,-174.74692263,173.42590139,-67.58511779
-99.62315548,-54.63916186,-61.28296907,179.15892875,0.67110915,-9.51389468
17.66337626,-3.06365839,0.42789991,1.25921691

>  <Name>
2g5q_lig

>  <RI>
2.47104e+07

>  <Rbt.Current_Directory>
/home/itssahil/PROJECTS/Mol_Feturizer/New_Systems/rnas/2g5q

>  <Rbt.Executable>
rbdock ($Id: //depot/dev/client3/rdock/2013.1/src/exe/rbdock.cxx#4 $)

>  <Rbt.Library>
libRbt.so (2013.1, Build901 2013/11/27)

>  <Rbt.Parameter_File>
/export/apps/rDock/src/rDock_2013.1_src/data/scripts/dock_solv.prm

>  <Rbt.Receptor>
prm/pocket_docking_7.prm

>  <SCORE>
-26.9178

>  <SCORE.INTER>
-20.062

>  <SCORE.INTER.CONST>
1

>  <SCORE.INTER.POLAR>
-3.09757

>  <SCORE.INTER.ROT>
10

>  <SCORE.INTER.SOLV>
12.818

>  <SCORE.INTER.VDW>
-17.5887

>  <SCORE.INTER.norm>
-0.501549

>  <SCORE.INTRA>
-6.85579

>  <SCORE.INTRA.DIHEDRAL>
-17.0204

>  <SCORE.INTRA.DIHEDRAL.0>
22.5778

>  <SCORE.INTRA.POLAR>
0

>  <SCORE.INTRA.POLAR.0>
0

>  <SCORE.INTRA.REPUL>
0

>  <SCORE.INTRA.REPUL.0>
0

>  <SCORE.INTRA.SOLV>
0.173783

>  <SCORE.INTRA.SOLV.lig_0>
-102.332

>  <SCORE.INTRA.VDW>
1.56752

>  <SCORE.INTRA.VDW.0>
-5.08747

>  <SCORE.INTRA.norm>
-0.171395

>  <SCORE.RESTR>
0

>  <SCORE.RESTR.CAVITY>
0

>  <SCORE.RESTR.norm>
0

>  <SCORE.SYSTEM>
0

>  <SCORE.SYSTEM.CONST>
0

>  <SCORE.SYSTEM.DIHEDRAL>
0

>  <SCORE.SYSTEM.SOLV>
0

>  <SCORE.SYSTEM.norm>
0

>  <SCORE.heavy>
40

>  <SCORE.norm>
-0.672944

>  <RMSD>
8.062

$$$$
2g5q_lig
 OpenBabel11021811433D
libRbt.so/2013.1/901 2013/11/27
 40 42  0  0  0  0  0  0  0  0999 V2000
   -2.0323  -10.8237   15.1623 C   0  0  2  0  0  0  0  0  0  0  0  0
   -1.7439   -9.7307   16.0060 O   0  0  0  0  0  0  0  0  0  0  0  0
   -3.4755  -11.3242   15.4647 C   0  0  1  0  0  0  0  0  0  0  0  0
   -3.5905  -11.9392   16.8938 C   0  0  2  0  0  0  0  0  0  0  0  0
   -2.5969  -13.1267   16.9804 C   0  0  2  0  0  0  0  0  0  0  0  0
   -2.6898  -13.7362   18.2782 O   0  0  0  0  0  0  0  0  0  0  0  0
   -1.1386  -12.5738   16.7129 C   0  0  2  0  0  0  0  0  0  0  0  0
   -1.0720  -11.9404   15.3649 O   0  0  0  0  0  0  0  0  0  0  0  0
   -0.0754  -13.6661   16.7605 C   0  0  0  0  0  0  0  0  0  0  0  0
    0.0845  -14.2348   18.1363 N   0  0  0  0  0  0  0  0  0  0  0  0
    1.9484   -7.8203   17.3457 C   0  0  2  0  0  0  0  0  0  0  0  0
    3.2428   -7.6133   17.9840 N   0  0  0  0  0  0  0  0  0  0  0  0
    0.8594   -8.2155   18.4292 C   0  0  0  0  0  0  0  0  0  0  0  0
   -0.5463   -8.4337   17.7429 C   0  0  2  0  0  0  0  0  0  0  0  0
   -1.5605   -8.7927   18.7707 N   0  0  0  0  0  0  0  0  0  0  0  0
   -0.4247   -9.5567   16.6374 C   0  0  2  0  0  0  0  0  0  0  0  0
    0.6701   -9.1302   15.5808 C   0  0  2  0  0  0  0  0  0  0  0  0
    0.7828  -10.1512   14.5844 O   0  0  0  0  0  0  0  0  0  0  0  0
    2.0672   -8.9330   16.2837 C   0  0  1  0  0  0  0  0  0  0  0  0
    3.0708   -8.5282   15.3104 O   0  0  0  0  0  0  0  0  0  0  0  0
    4.4306   -8.8800   15.3846 C   0  0  2  0  0  0  0  0  0  0  0  0
    5.1525   -8.2251   14.1587 C   0  0  2  0  0  0  0  0  0  0  0  0
    5.0027   -6.8427   14.2151 O   0  0  0  0  0  0  0  0  0  0  0  0
    4.5977   -8.7969   12.7994 C   0  0  1  0  0  0  0  0  0  0  0  0
    5.2865   -8.1788   11.6187 N   0  0  0  0  0  0  0  0  0  0  0  0
    4.7928  -10.3651   12.8041 C   0  0  2  0  0  0  0  0  0  0  0  0
    4.3128  -10.9423   11.5881 O   0  0  0  0  0  0  0  0  0  0  0  0
    4.0484  -10.9570   14.0484 C   0  0  2  0  0  0  0  0  0  0  0  0
    4.5606  -10.3468   15.3232 O   0  0  0  0  0  0  0  0  0  0  0  0
    4.2145  -12.4462   14.1395 C   0  0  0  0  0  0  0  0  0  0  0  0
    5.5964  -12.8085   14.2944 O   0  0  0  0  0  0  0  0  0  0  0  0
   -4.4002  -10.1947   15.2996 O   0  0  0  0  0  0  0  0  0  0  0  0
   -4.8802  -12.3760   17.1020 O   0  0  0  0  0  0  0  0  0  0  0  0
    4.8627   -8.4829   22.3828 N   0  0  0  0  0  0  0  0  0  0  0  0
    3.9213   -8.5563   18.7433 C   0  0  0  0  0  0  0  0  0  0  0  0
    3.4971   -9.6838   18.9717 O   0  0  0  0  0  0  0  0  0  0  0  0
    5.2666   -8.0206   19.2852 C   0  0  1  0  0  0  0  0  0  0  0  0
    5.0129   -6.9903   20.4043 C   0  0  0  0  0  0  0  0  0  0  0  0
    4.1628   -7.4803   21.5823 C   0  0  0  0  0  0  0  0  0  0  0  0
    6.0553   -9.1292   19.7732 O   0  0  0  0  0  0  0  0  0  0  0  0
  1  2  1  1  0  0  0
  1  3  1  0  0  0  0
  1  8  1  0  0  0  0
  3  4  1  0  0  0  0
  3 32  1  1  0  0  0
  4  5  1  0  0  0  0
  4 33  1  6  0  0  0
  5  6  1  1  0  0  0
  5  7  1  0  0  0  0
  7  8  1  0  0  0  0
  7  9  1  6  0  0  0
  9 10  1  0  0  0  0
 11 12  1  1  0  0  0
 11 13  1  0  0  0  0
 11 19  1  0  0  0  0
 12 35  1  0  0  0  0
 13 14  1  0  0  0  0
 14 15  1  1  0  0  0
 14 16  1  0  0  0  0
 16  2  1  6  0  0  0
 16 17  1  0  0  0  0
 17 18  1  6  0  0  0
 17 19  1  0  0  0  0
 19 20  1  6  0  0  0
 21 20  1  6  0  0  0
 21 22  1  0  0  0  0
 21 29  1  0  0  0  0
 22 23  1  6  0  0  0
 22 24  1  0  0  0  0
 24 25  1  6  0  0  0
 24 26  1  0  0  0  0
 26 27  1  6  0  0  0
 26 28  1  0  0  0  0
 28 29  1  0  0  0  0
 28 30  1  1  0  0  0
 30 31  1  0  0  0  0
 34 39  1  0  0  0  0
 35 36  2  0  0  0  0
 37 35  1  1  0  0  0
 37 38  1  0  0  0  0
 37 40  1  0  0  0  0
 38 39  1  0  0  0  0
M  END
>  <CHROM.1>
139.91330698,-66.94607394,57.91765839,-167.77148222,93.11730406,-179.23988788
61.66886041,72.01578826,55.98666767,68.74283376,1.67440274,-10.02877290,16.44094252
-3.06344138,0.37474749,1.26804434

>  <Name>
2g5q_lig

>  <RI>
0

>  <Rbt.Current_Directory>
/home/itssahil/PROJECTS/Mol_Feturizer/New_Systems/rnas/2g5q

>  <Rbt.Executable>
rbdock ($Id: //depot/dev/client3/rdock/2013.1/src/exe/rbdock.cxx#4 $)

>  <Rbt.Library>
libRbt.so (2013.1, Build901 2013/11/27)

>  <Rbt.Parameter_File>
/export/apps/rDock/src/rDock_2013.1_src/data/scripts/dock_solv.prm

>  <Rbt.Receptor>
prm/pocket_docking_5.prm

>  <SCORE>
-17.897

>  <SCORE.INTER>
-14.3265

>  <SCORE.INTER.CONST>
1

>  <SCORE.INTER.POLAR>
-1.70117

>  <SCORE.INTER.ROT>
10

>  <SCORE.INTER.SOLV>
13.1347

>  <SCORE.INTER.VDW>
-18.5253

>  <SCORE.INTER.norm>
-0.358162

>  <SCORE.INTRA>
-3.57056

>  <SCORE.INTRA.DIHEDRAL>
-10.7557

>  <SCORE.INTRA.DIHEDRAL.0>
22.5778

>  <SCORE.INTRA.POLAR>
0

>  <SCORE.INTRA.POLAR.0>
0

>  <SCORE.INTRA.REPUL>
0

>  <SCORE.INTRA.REPUL.0>
0

>  <SCORE.INTRA.SOLV>
3.70371

>  <SCORE.INTRA.SOLV.lig_0>
-102.332

>  <SCORE.INTRA.VDW>
-0.0445816

>  <SCORE.INTRA.VDW.0>
-5.08747

>  <SCORE.INTRA.norm>
-0.089264

>  <SCORE.RESTR>
0

>  <SCORE.RESTR.CAVITY>
0

>  <SCORE.RESTR.norm>
0

>  <SCORE.SYSTEM>
0

>  <SCORE.SYSTEM.CONST>
0

>  <SCORE.SYSTEM.DIHEDRAL>
0

>  <SCORE.SYSTEM.SOLV>
0

>  <SCORE.SYSTEM.norm>
0

>  <SCORE.heavy>
40

>  <SCORE.norm>
-0.447426

>  <RMSD>
8.074

$$$$
2g5q_lig
 OpenBabel11021811433D
libRbt.so/2013.1/901 2013/11/27
 40 42  0  0  0  0  0  0  0  0999 V2000
   -2.4635  -10.0564   15.9859 C   0  0  2  0  0  0  0  0  0  0  0  0
   -1.7976   -9.1307   16.8161 O   0  0  0  0  0  0  0  0  0  0  0  0
   -3.9997   -9.8501   16.1351 C   0  0  1  0  0  0  0  0  0  0  0  0
   -4.5017  -10.2291   17.5627 C   0  0  2  0  0  0  0  0  0  0  0  0
   -4.1482  -11.7187   17.8097 C   0  0  2  0  0  0  0  0  0  0  0  0
   -4.6161  -12.1136   19.1095 O   0  0  0  0  0  0  0  0  0  0  0  0
   -2.5783  -11.8816   17.6950 C   0  0  2  0  0  0  0  0  0  0  0  0
   -2.1188  -11.4581   16.3414 O   0  0  0  0  0  0  0  0  0  0  0  0
   -2.1172  -13.3196   17.9079 C   0  0  0  0  0  0  0  0  0  0  0  0
   -2.8650  -14.2837   17.0401 N   0  0  0  0  0  0  0  0  0  0  0  0
    2.4080   -8.0922   17.3744 C   0  0  2  0  0  0  0  0  0  0  0  0
    3.8201   -8.1920   17.7234 N   0  0  0  0  0  0  0  0  0  0  0  0
    1.5073   -8.3352   18.6572 C   0  0  0  0  0  0  0  0  0  0  0  0
   -0.0234   -8.2209   18.2850 C   0  0  2  0  0  0  0  0  0  0  0  0
   -0.8565   -8.4396   19.4983 N   0  0  0  0  0  0  0  0  0  0  0  0
   -0.3702   -9.2672   17.1523 C   0  0  2  0  0  0  0  0  0  0  0  0
    0.5481   -8.9966   15.8952 C   0  0  2  0  0  0  0  0  0  0  0  0
    0.2367   -9.9490   14.8735 O   0  0  0  0  0  0  0  0  0  0  0  0
    2.0696   -9.1309   16.2850 C   0  0  1  0  0  0  0  0  0  0  0  0
    2.9134   -8.8691   15.1284 O   0  0  0  0  0  0  0  0  0  0  0  0
    4.2729   -9.2202   15.0464 C   0  0  2  0  0  0  0  0  0  0  0  0
    4.8957   -8.4118   13.8582 C   0  0  2  0  0  0  0  0  0  0  0  0
    4.7580   -7.0485   14.1007 O   0  0  0  0  0  0  0  0  0  0  0  0
    4.2290   -8.8104   12.4873 C   0  0  1  0  0  0  0  0  0  0  0  0
    4.8222   -8.0444   11.3420 N   0  0  0  0  0  0  0  0  0  0  0  0
    4.4159  -10.3656   12.2781 C   0  0  2  0  0  0  0  0  0  0  0  0
    3.8355  -10.7871   11.0422 O   0  0  0  0  0  0  0  0  0  0  0  0
    3.7726  -11.1138   13.4942 C   0  0  2  0  0  0  0  0  0  0  0  0
    4.3902  -10.6668   14.7898 O   0  0  0  0  0  0  0  0  0  0  0  0
    3.9381  -12.6017   13.3826 C   0  0  0  0  0  0  0  0  0  0  0  0
    3.3154  -13.2800   14.4858 O   0  0  0  0  0  0  0  0  0  0  0  0
   -4.3104   -8.4492   15.8204 O   0  0  0  0  0  0  0  0  0  0  0  0
   -5.8643  -10.0407   17.6342 O   0  0  0  0  0  0  0  0  0  0  0  0
    4.3836   -9.0476   21.2944 N   0  0  0  0  0  0  0  0  0  0  0  0
    4.4180   -9.2833   18.3380 C   0  0  0  0  0  0  0  0  0  0  0  0
    3.8139  -10.2979   18.6679 O   0  0  0  0  0  0  0  0  0  0  0  0
    5.9306   -9.0704   18.5770 C   0  0  1  0  0  0  0  0  0  0  0  0
    6.3469   -9.7001   19.9218 C   0  0  0  0  0  0  0  0  0  0  0  0
    5.8391   -8.9849   21.1792 C   0  0  0  0  0  0  0  0  0  0  0  0
    6.6697   -9.6564   17.4818 O   0  0  0  0  0  0  0  0  0  0  0  0
  1  2  1  1  0  0  0
  1  3  1  0  0  0  0
  1  8  1  0  0  0  0
  3  4  1  0  0  0  0
  3 32  1  1  0  0  0
  4  5  1  0  0  0  0
  4 33  1  6  0  0  0
  5  6  1  1  0  0  0
  5  7  1  0  0  0  0
  7  8  1  0  0  0  0
  7  9  1  6  0  0  0
  9 10  1  0  0  0  0
 11 12  1  1  0  0  0
 11 13  1  0  0  0  0
 11 19  1  0  0  0  0
 12 35  1  0  0  0  0
 13 14  1  0  0  0  0
 14 15  1  1  0  0  0
 14 16  1  0  0  0  0
 16  2  1  6  0  0  0
 16 17  1  0  0  0  0
 17 18  1  6  0  0  0
 17 19  1  0  0  0  0
 19 20  1  6  0  0  0
 21 20  1  6  0  0  0
 21 22  1  0  0  0  0
 21 29  1  0  0  0  0
 22 23  1  1  0  0  0
 22 24  1  0  0  0  0
 24 25  1  6  0  0  0
 24 26  1  0  0  0  0
 26 27  1  6  0  0  0
 26 28  1  0  0  0  0
 28 29  1  0  0  0  0
 28 30  1  6  0  0  0
 30 31  1  0  0  0  0
 34 39  1  0  0  0  0
 35 36  2  0  0  0  0
 37 35  1  6  0  0  0
 37 38  1  0  0  0  0
 37 40  1  0  0  0  0
 38 39  1  0  0  0  0
M  END
>  <CHROM.1>
165.15749429,51.47881437,55.53932795,-170.26537585,76.86352169,-163.78421490
-178.54802172,142.92183503,-70.50918672,65.53979139,1.35243205,-9.93008577
16.44210372,2.94882887,0.18949784,1.43533268

>  <Name>
2g5q_lig

>  <RI>
2.47104e+07

>  <Rbt.Current_Directory>
/home/itssahil/PROJECTS/Mol_Feturizer/New_Systems/rnas/2g5q

>  <Rbt.Executable>
rbdock ($Id: //depot/dev/client3/rdock/2013.1/src/exe/rbdock.cxx#4 $)

>  <Rbt.Library>
libRbt.so (2013.1, Build901 2013/11/27)

>  <Rbt.Parameter_File>
/export/apps/rDock/src/rDock_2013.1_src/data/scripts/dock_solv.prm

>  <Rbt.Receptor>
prm/pocket_docking_7.prm

>  <SCORE>
-17.9037

>  <SCORE.INTER>
-12.0972

>  <SCORE.INTER.CONST>
1

>  <SCORE.INTER.POLAR>
-2.14804

>  <SCORE.INTER.ROT>
10

>  <SCORE.INTER.SOLV>
14.0413

>  <SCORE.INTER.VDW>
-15.8518

>  <SCORE.INTER.norm>
-0.30243

>  <SCORE.INTRA>
-5.80648

>  <SCORE.INTRA.DIHEDRAL>
-15.86

>  <SCORE.INTRA.DIHEDRAL.0>
22.5778

>  <SCORE.INTRA.POLAR>
0

>  <SCORE.INTRA.POLAR.0>
0

>  <SCORE.INTRA.REPUL>
0

>  <SCORE.INTRA.REPUL.0>
0

>  <SCORE.INTRA.SOLV>
4.57787

>  <SCORE.INTRA.SOLV.lig_0>
-102.332

>  <SCORE.INTRA.VDW>
-0.165433

>  <SCORE.INTRA.VDW.0>
-5.08747

>  <SCORE.INTRA.norm>
-0.145162

>  <SCORE.RESTR>
0

>  <SCORE.RESTR.CAVITY>
0

>  <SCORE.RESTR.norm>
0

>  <SCORE.SYSTEM>
0

>  <SCORE.SYSTEM.CONST>
0

>  <SCORE.SYSTEM.DIHEDRAL>
0

>  <SCORE.SYSTEM.SOLV>
0

>  <SCORE.SYSTEM.norm>
0

>  <SCORE.heavy>
40

>  <SCORE.norm>
-0.447592

>  <RMSD>
8.088

$$$$
2g5q_lig
 OpenBabel11021811433D
libRbt.so/2013.1/901 2013/11/27
 40 42  0  0  0  0  0  0  0  0999 V2000
   -3.7947  -12.1938   18.9156 C   0  0  2  0  0  0  0  0  0  0  0  0
   -3.3012  -11.1602   18.0924 O   0  0  0  0  0  0  0  0  0  0  0  0
   -4.6011  -13.1943   18.0362 C   0  0  1  0  0  0  0  0  0  0  0  0
   -5.8995  -12.5481   17.4615 C   0  0  2  0  0  0  0  0  0  0  0  0
   -6.7697  -12.0865   18.6593 C   0  0  2  0  0  0  0  0  0  0  0  0
   -7.9891  -11.5048   18.1703 O   0  0  0  0  0  0  0  0  0  0  0  0
   -5.9364  -11.0389   19.5032 C   0  0  2  0  0  0  0  0  0  0  0  0
   -4.6743  -11.6649   19.9911 O   0  0  0  0  0  0  0  0  0  0  0  0
   -6.6957  -10.5254   20.7219 C   0  0  0  0  0  0  0  0  0  0  0  0
   -5.8757   -9.5713   21.5337 N   0  0  0  0  0  0  0  0  0  0  0  0
    0.6251  -10.8408   16.2058 C   0  0  2  0  0  0  0  0  0  0  0  0
    2.0458  -10.5771   16.0108 N   0  0  0  0  0  0  0  0  0  0  0  0
   -0.1271   -9.5096   16.6276 C   0  0  0  0  0  0  0  0  0  0  0  0
   -1.6679   -9.7892   16.8329 C   0  0  2  0  0  0  0  0  0  0  0  0
   -2.3634   -8.5312   17.2171 N   0  0  0  0  0  0  0  0  0  0  0  0
   -1.8588  -10.9106   17.9302 C   0  0  2  0  0  0  0  0  0  0  0  0
   -1.0934  -12.2169   17.4777 C   0  0  2  0  0  0  0  0  0  0  0  0
   -1.2624  -13.2286   18.4756 O   0  0  0  0  0  0  0  0  0  0  0  0
    0.4436  -11.9194   17.2938 C   0  0  1  0  0  0  0  0  0  0  0  0
    1.1440  -13.1211   16.8651 O   0  0  0  0  0  0  0  0  0  0  0  0
    0.6146  -14.0670   15.9690 C   0  0  2  0  0  0  0  0  0  0  0  0
    1.6567  -15.2296   15.8437 C   0  0  2  0  0  0  0  0  0  0  0  0
    1.8640  -15.8048   17.0937 O   0  0  0  0  0  0  0  0  0  0  0  0
    3.0128  -14.7144   15.2287 C   0  0  1  0  0  0  0  0  0  0  0  0
    4.0164  -15.8220   15.1003 N   0  0  0  0  0  0  0  0  0  0  0  0
    2.7055  -14.0706   13.8186 C   0  0  2  0  0  0  0  0  0  0  0  0
    3.9035  -13.5897   13.2057 O   0  0  0  0  0  0  0  0  0  0  0  0
    1.6626  -12.9184   14.0126 C   0  0  2  0  0  0  0  0  0  0  0  0
    0.4048  -13.4327   14.6553 O   0  0  0  0  0  0  0  0  0  0  0  0
    1.2949  -12.2753   12.7068 C   0  0  0  0  0  0  0  0  0  0  0  0
    0.2371  -11.3176   12.8766 O   0  0  0  0  0  0  0  0  0  0  0  0
   -3.7255  -13.6703   16.9569 O   0  0  0  0  0  0  0  0  0  0  0  0
   -6.5781  -13.4782   16.7053 O   0  0  0  0  0  0  0  0  0  0  0  0
    5.8725   -6.9906   14.4563 N   0  0  0  0  0  0  0  0  0  0  0  0
    2.9227  -10.1451   16.9960 C   0  0  0  0  0  0  0  0  0  0  0  0
    2.5932   -9.9264   18.1565 O   0  0  0  0  0  0  0  0  0  0  0  0
    4.3611   -9.9529   16.4626 C   0  0  1  0  0  0  0  0  0  0  0  0
    4.4667   -8.6191   15.6959 C   0  0  0  0  0  0  0  0  0  0  0  0
    5.8297   -8.3207   15.0605 C   0  0  0  0  0  0  0  0  0  0  0  0
    5.2857   -9.9846   17.5732 O   0  0  0  0  0  0  0  0  0  0  0  0
  1  2  1  6  0  0  0
  1  3  1  0  0  0  0
  1  8  1  0  0  0  0
  3  4  1  0  0  0  0
  3 32  1  6  0  0  0
  4  5  1  0  0  0  0
  4 33  1  1  0  0  0
  5  6  1  6  0  0  0
  5  7  1  0  0  0  0
  7  8  1  0  0  0  0
  7  9  1  1  0  0  0
  9 10  1  0  0  0  0
 11 12  1  1  0  0  0
 11 13  1  0  0  0  0
 11 19  1  0  0  0  0
 12 35  1  0  0  0  0
 13 14  1  0  0  0  0
 14 15  1  1  0  0  0
 14 16  1  0  0  0  0
 16  2  1  6  0  0  0
 16 17  1  0  0  0  0
 17 18  1  1  0  0  0
 17 19  1  0  0  0  0
 19 20  1  6  0  0  0
 21 20  1  1  0  0  0
 21 22  1  0  0  0  0
 21 29  1  0  0  0  0
 22 23  1  1  0  0  0
 22 24  1  0  0  0  0
 24 25  1  6  0  0  0
 24 26  1  0  0  0  0
 26 27  1  1  0  0  0
 26 28  1  0  0  0  0
 28 29  1  0  0  0  0
 28 30  1  6  0  0  0
 30 31  1  0  0  0  0
 34 39  1  0  0  0  0
 35 36  2  0  0  0  0
 37 35  1  1  0  0  0
 37 38  1  0  0  0  0
 37 40  1  0  0  0  0
 38 39  1  0  0  0  0
M  END
>  <CHROM.1>
-118.49623976,178.06546842,62.82548126,174.21256196,-81.90314484,-177.03095896
173.93286515,78.63180263,-177.67861473,-175.07326085,-0.44881394,-11.78188208
16.76459394,-3.03283073,-0.35389315,-2.75664497

>  <Name>
2g5q_lig

>  <RI>
2.90231e+07

>  <Rbt.Current_Directory>
/home/itssahil/PROJECTS/Mol_Feturizer/New_Systems/rnas/2g5q

>  <Rbt.Executable>
rbdock ($Id: //depot/dev/client3/rdock/2013.1/src/exe/rbdock.cxx#4 $)

>  <Rbt.Library>
libRbt.so (2013.1, Build901 2013/11/27)

>  <Rbt.Parameter_File>
/export/apps/rDock/src/rDock_2013.1_src/data/scripts/dock_solv.prm

>  <Rbt.Receptor>
prm/pocket_docking_6.prm

>  <SCORE>
-7.88019

>  <SCORE.INTER>
-2.24414

>  <SCORE.INTER.CONST>
1

>  <SCORE.INTER.POLAR>
-1.77461

>  <SCORE.INTER.ROT>
10

>  <SCORE.INTER.SOLV>
11.753

>  <SCORE.INTER.VDW>
-9.76507

>  <SCORE.INTER.norm>
-0.0561034

>  <SCORE.INTRA>
-5.63605

>  <SCORE.INTRA.DIHEDRAL>
-11.6138

>  <SCORE.INTRA.DIHEDRAL.0>
22.5778

>  <SCORE.INTRA.POLAR>
0

>  <SCORE.INTRA.POLAR.0>
0

>  <SCORE.INTRA.REPUL>
0

>  <SCORE.INTRA.REPUL.0>
0

>  <SCORE.INTRA.SOLV>
-0.356881

>  <SCORE.INTRA.SOLV.lig_0>
-102.332

>  <SCORE.INTRA.VDW>
0.349269

>  <SCORE.INTRA.VDW.0>
-5.08747

>  <SCORE.INTRA.norm>
-0.140901

>  <SCORE.RESTR>
0

>  <SCORE.RESTR.CAVITY>
0

>  <SCORE.RESTR.norm>
0

>  <SCORE.SYSTEM>
0

>  <SCORE.SYSTEM.CONST>
0

>  <SCORE.SYSTEM.DIHEDRAL>
0

>  <SCORE.SYSTEM.SOLV>
0

>  <SCORE.SYSTEM.norm>
0

>  <SCORE.heavy>
40

>  <SCORE.norm>
-0.197005

>  <RMSD>
8.093

$$$$
2g5q_lig
 OpenBabel11021811433D
libRbt.so/2013.1/901 2013/11/27
 40 42  0  0  0  0  0  0  0  0999 V2000
   -3.9779   -9.7112   18.0295 C   0  0  2  0  0  0  0  0  0  0  0  0
   -3.0621   -9.2259   17.0729 O   0  0  0  0  0  0  0  0  0  0  0  0
   -3.8727  -11.2639   18.0827 C   0  0  1  0  0  0  0  0  0  0  0  0
   -4.3604  -11.9259   16.7570 C   0  0  2  0  0  0  0  0  0  0  0  0
   -5.8377  -11.5098   16.5347 C   0  0  2  0  0  0  0  0  0  0  0  0
   -6.3322  -12.1200   15.3316 O   0  0  0  0  0  0  0  0  0  0  0  0
   -5.8997   -9.9314   16.4408 C   0  0  2  0  0  0  0  0  0  0  0  0
   -5.3742   -9.3241   17.6969 O   0  0  0  0  0  0  0  0  0  0  0  0
   -7.3171   -9.4077   16.2350 C   0  0  0  0  0  0  0  0  0  0  0  0
   -7.8751   -9.8050   14.9037 N   0  0  0  0  0  0  0  0  0  0  0  0
    1.1791   -8.2475   16.7091 C   0  0  2  0  0  0  0  0  0  0  0  0
    2.6214   -8.2572   16.9224 N   0  0  0  0  0  0  0  0  0  0  0  0
    0.4275   -7.8851   18.0580 C   0  0  0  0  0  0  0  0  0  0  0  0
   -1.1352   -7.8664   17.8297 C   0  0  2  0  0  0  0  0  0  0  0  0
   -1.8276   -7.5145   19.0989 N   0  0  0  0  0  0  0  0  0  0  0  0
   -1.6060   -9.2749   17.2887 C   0  0  2  0  0  0  0  0  0  0  0  0
   -0.8339   -9.6023   15.9494 C   0  0  2  0  0  0  0  0  0  0  0  0
   -1.2571  -10.8806   15.4649 O   0  0  0  0  0  0  0  0  0  0  0  0
    0.7217   -9.6312   16.2029 C   0  0  1  0  0  0  0  0  0  0  0  0
    1.4309   -9.9207   14.9654 O   0  0  0  0  0  0  0  0  0  0  0  0
    2.7564  -10.3871   14.9049 C   0  0  2  0  0  0  0  0  0  0  0  0
    3.1936  -10.3652   13.4010 C   0  0  2  0  0  0  0  0  0  0  0  0
    3.1113   -9.0651   12.9119 O   0  0  0  0  0  0  0  0  0  0  0  0
    2.3147  -11.3483   12.5385 C   0  0  1  0  0  0  0  0  0  0  0  0
    2.7289  -11.3379   11.0967 N   0  0  0  0  0  0  0  0  0  0  0  0
    2.4486  -12.7996   13.1495 C   0  0  2  0  0  0  0  0  0  0  0  0
    1.6760  -13.7408   12.4017 O   0  0  0  0  0  0  0  0  0  0  0  0
    1.9963  -12.7539   14.6481 C   0  0  2  0  0  0  0  0  0  0  0  0
    2.8152  -11.7636   15.4282 O   0  0  0  0  0  0  0  0  0  0  0  0
    2.1251  -14.0956   15.3092 C   0  0  0  0  0  0  0  0  0  0  0  0
    1.6238  -14.0641   16.6555 O   0  0  0  0  0  0  0  0  0  0  0  0
   -2.4774  -11.6227   18.3703 O   0  0  0  0  0  0  0  0  0  0  0  0
   -4.2583  -13.2954   16.8642 O   0  0  0  0  0  0  0  0  0  0  0  0
    7.3559   -8.0109   16.1051 N   0  0  0  0  0  0  0  0  0  0  0  0
    3.2730   -8.9073   17.9611 C   0  0  0  0  0  0  0  0  0  0  0  0
    2.6983   -9.5499   18.8330 O   0  0  0  0  0  0  0  0  0  0  0  0
    4.8064   -8.7169   17.9068 C   0  0  1  0  0  0  0  0  0  0  0  0
    5.3813   -9.4117   16.6559 C   0  0  0  0  0  0  0  0  0  0  0  0
    6.9046   -9.3448   16.4961 C   0  0  0  0  0  0  0  0  0  0  0  0
    5.1076   -7.3032   17.8964 O   0  0  0  0  0  0  0  0  0  0  0  0
  1  2  1  6  0  0  0
  1  3  1  0  0  0  0
  1  8  1  0  0  0  0
  3  4  1  0  0  0  0
  3 32  1  6  0  0  0
  4  5  1  0  0  0  0
  4 33  1  1  0  0  0
  5  6  1  6  0  0  0
  5  7  1  0  0  0  0
  7  8  1  0  0  0  0
  7  9  1  1  0  0  0
  9 10  1  0  0  0  0
 11 12  1  1  0  0  0
 11 13  1  0  0  0  0
 11 19  1  0  0  0  0
 12 35  1  0  0  0  0
 13 14  1  0  0  0  0
 14 15  1  1  0  0  0
 14 16  1  0  0  0  0
 16  2  1  6  0  0  0
 16 17  1  0  0  0  0
 17 18  1  1  0  0  0
 17 19  1  0  0  0  0
 19 20  1  6  0  0  0
 21 20  1  6  0  0  0
 21 22  1  0  0  0  0
 21 29  1  0  0  0  0
 22 23  1  6  0  0  0
 22 24  1  0  0  0  0
 24 25  1  6  0  0  0
 24 26  1  0  0  0  0
 26 27  1  6  0  0  0
 26 28  1  0  0  0  0
 28 29  1  0  0  0  0
 28 30  1  1  0  0  0
 30 31  1  0  0  0  0
 34 39  1  0  0  0  0
 35 36  2  0  0  0  0
 37 35  1  6  0  0  0
 37 38  1  0  0  0  0
 37 40  1  0  0  0  0
 38 39  1  0  0  0  0
M  END
>  <CHROM.1>
-69.85506213,-66.38105733,48.62407202,-97.18452602,79.46241178,-171.83577077
-176.10544391,-66.10121262,-178.02953282,-73.13504718,0.02211843,-10.31189966
16.12506031,-3.11460700,-0.13386467,-2.34932428

>  <Name>
2g5q_lig

>  <RI>
2.90231e+07

>  <Rbt.Current_Directory>
/home/itssahil/PROJECTS/Mol_Feturizer/New_Systems/rnas/2g5q

>  <Rbt.Executable>
rbdock ($Id: //depot/dev/client3/rdock/2013.1/src/exe/rbdock.cxx#4 $)

>  <Rbt.Library>
libRbt.so (2013.1, Build901 2013/11/27)

>  <Rbt.Parameter_File>
/export/apps/rDock/src/rDock_2013.1_src/data/scripts/dock_solv.prm

>  <Rbt.Receptor>
prm/pocket_docking_6.prm

>  <SCORE>
-15.3492

>  <SCORE.INTER>
-10.1072

>  <SCORE.INTER.CONST>
1

>  <SCORE.INTER.POLAR>
-2.30449

>  <SCORE.INTER.ROT>
10

>  <SCORE.INTER.SOLV>
18.0311

>  <SCORE.INTER.VDW>
-15.3335

>  <SCORE.INTER.norm>
-0.252679

>  <SCORE.INTRA>
-5.24206

>  <SCORE.INTRA.DIHEDRAL>
-13.3524

>  <SCORE.INTRA.DIHEDRAL.0>
22.5778

>  <SCORE.INTRA.POLAR>
0

>  <SCORE.INTRA.POLAR.0>
0

>  <SCORE.INTRA.REPUL>
0

>  <SCORE.INTRA.REPUL.0>
0

>  <SCORE.INTRA.SOLV>
2.79874

>  <SCORE.INTRA.SOLV.lig_0>
-102.332

>  <SCORE.INTRA.VDW>
0.0347453

>  <SCORE.INTRA.VDW.0>
-5.08747

>  <SCORE.INTRA.norm>
-0.131052

>  <SCORE.RESTR>
0

>  <SCORE.RESTR.CAVITY>
0

>  <SCORE.RESTR.norm>
0

>  <SCORE.SYSTEM>
0

>  <SCORE.SYSTEM.CONST>
0

>  <SCORE.SYSTEM.DIHEDRAL>
0

>  <SCORE.SYSTEM.SOLV>
0

>  <SCORE.SYSTEM.norm>
0

>  <SCORE.heavy>
40

>  <SCORE.norm>
-0.383731

>  <RMSD>
8.103

$$$$
2g5q_lig
 OpenBabel11021811433D
libRbt.so/2013.1/901 2013/11/27
 40 42  0  0  0  0  0  0  0  0999 V2000
   -5.3405  -10.6256   17.9532 C   0  0  2  0  0  0  0  0  0  0  0  0
   -3.9589  -10.6198   18.2373 O   0  0  0  0  0  0  0  0  0  0  0  0
   -5.6790   -9.3807   17.0813 C   0  0  1  0  0  0  0  0  0  0  0  0
   -5.4845   -8.0483   17.8692 C   0  0  2  0  0  0  0  0  0  0  0  0
   -6.4180   -8.0887   19.1069 C   0  0  2  0  0  0  0  0  0  0  0  0
   -6.2847   -6.8653   19.8484 O   0  0  0  0  0  0  0  0  0  0  0  0
   -6.0160   -9.3381   19.9908 C   0  0  2  0  0  0  0  0  0  0  0  0
   -6.1555  -10.5918   19.1961 O   0  0  0  0  0  0  0  0  0  0  0  0
   -6.8845   -9.4841   21.2358 C   0  0  0  0  0  0  0  0  0  0  0  0
   -8.3278   -9.6876   20.8932 N   0  0  0  0  0  0  0  0  0  0  0  0
   -0.2602  -12.0833   16.4330 C   0  0  2  0  0  0  0  0  0  0  0  0
    0.7464  -12.4327   15.4378 N   0  0  0  0  0  0  0  0  0  0  0  0
   -1.6084  -12.8691   16.1490 C   0  0  0  0  0  0  0  0  0  0  0  0
   -2.6996  -12.4991   17.2293 C   0  0  2  0  0  0  0  0  0  0  0  0
   -3.9548  -13.2507   16.9583 N   0  0  0  0  0  0  0  0  0  0  0  0
   -2.9486  -10.9384   17.2141 C   0  0  2  0  0  0  0  0  0  0  0  0
   -1.5850  -10.1912   17.4959 C   0  0  2  0  0  0  0  0  0  0  0  0
   -1.8117   -8.7783   17.4754 O   0  0  0  0  0  0  0  0  0  0  0  0
   -0.5161  -10.5624   16.3984 C   0  0  1  0  0  0  0  0  0  0  0  0
    0.7425   -9.8826   16.6672 O   0  0  0  0  0  0  0  0  0  0  0  0
    0.9517   -8.5043   16.4805 C   0  0  2  0  0  0  0  0  0  0  0  0
    2.4990   -8.2676   16.4257 C   0  0  2  0  0  0  0  0  0  0  0  0
    3.0428   -8.9909   15.3686 O   0  0  0  0  0  0  0  0  0  0  0  0
    3.1836   -8.6615   17.7890 C   0  0  1  0  0  0  0  0  0  0  0  0
    4.6658   -8.4339   17.7480 N   0  0  0  0  0  0  0  0  0  0  0  0
    2.5179   -7.8111   18.9427 C   0  0  2  0  0  0  0  0  0  0  0  0
    3.1052   -8.1205   20.2082 O   0  0  0  0  0  0  0  0  0  0  0  0
    0.9774   -8.0932   18.9454 C   0  0  2  0  0  0  0  0  0  0  0  0
    0.3668   -7.7629   17.6120 O   0  0  0  0  0  0  0  0  0  0  0  0
    0.2673   -7.2937   19.9991 C   0  0  0  0  0  0  0  0  0  0  0  0
   -1.1304   -7.6233   20.0506 O   0  0  0  0  0  0  0  0  0  0  0  0
   -4.8324   -9.4132   15.8812 O   0  0  0  0  0  0  0  0  0  0  0  0
   -5.8096   -6.9843   17.0571 O   0  0  0  0  0  0  0  0  0  0  0  0
    3.0210  -15.8883   15.2928 N   0  0  0  0  0  0  0  0  0  0  0  0
    0.5874  -12.3188   14.0638 C   0  0  0  0  0  0  0  0  0  0  0  0
   -0.4364  -11.9123   13.5254 O   0  0  0  0  0  0  0  0  0  0  0  0
    1.8411  -12.7786   13.2845 C   0  0  1  0  0  0  0  0  0  0  0  0
    2.1755  -14.2421   13.6376 C   0  0  0  0  0  0  0  0  0  0  0  0
    2.6790  -14.4858   15.0650 C   0  0  0  0  0  0  0  0  0  0  0  0
    1.5974  -12.6323   11.8673 O   0  0  0  0  0  0  0  0  0  0  0  0
  1  2  1  1  0  0  0
  1  3  1  0  0  0  0
  1  8  1  0  0  0  0
  3  4  1  0  0  0  0
  3 32  1  6  0  0  0
  4  5  1  0  0  0  0
  4 33  1  6  0  0  0
  5  6  1  1  0  0  0
  5  7  1  0  0  0  0
  7  8  1  0  0  0  0
  7  9  1  1  0  0  0
  9 10  1  0  0  0  0
 11 12  1  6  0  0  0
 11 13  1  0  0  0  0
 11 19  1  0  0  0  0
 12 35  1  0  0  0  0
 13 14  1  0  0  0  0
 14 15  1  6  0  0  0
 14 16  1  0  0  0  0
 16  2  1  1  0  0  0
 16 17  1  0  0  0  0
 17 18  1  6  0  0  0
 17 19  1  0  0  0  0
 19 20  1  1  0  0  0
 21 20  1  1  0  0  0
 21 22  1  0  0  0  0
 21 29  1  0  0  0  0
 22 23  1  6  0  0  0
 22 24  1  0  0  0  0
 24 25  1  6  0  0  0
 24 26  1  0  0  0  0
 26 27  1  1  0  0  0
 26 28  1  0  0  0  0
 28 29  1  0  0  0  0
 28 30  1  1  0  0  0
 30 31  1  0  0  0  0
 34 39  1  0  0  0  0
 35 36  2  0  0  0  0
 37 35  1  1  0  0  0
 37 38  1  0  0  0  0
 37 40  1  0  0  0  0
 38 39  1  0  0  0  0
M  END
>  <CHROM.1>
-72.72530116,61.29219288,55.53899797,-88.92329350,168.02142677,-161.85248447
-176.28188588,57.99317439,-68.87474750,-177.70585066,-1.34455730,-10.12347594
17.20574795,2.64445200,0.16038830,0.66778519

>  <Name>
2g5q_lig

>  <RI>
2.90231e+07

>  <Rbt.Current_Directory>
/home/itssahil/PROJECTS/Mol_Feturizer/New_Systems/rnas/2g5q

>  <Rbt.Executable>
rbdock ($Id: //depot/dev/client3/rdock/2013.1/src/exe/rbdock.cxx#4 $)

>  <Rbt.Library>
libRbt.so (2013.1, Build901 2013/11/27)

>  <Rbt.Parameter_File>
/export/apps/rDock/src/rDock_2013.1_src/data/scripts/dock_solv.prm

>  <Rbt.Receptor>
prm/pocket_docking_6.prm

>  <SCORE>
-14.1207

>  <SCORE.INTER>
-9.42457

>  <SCORE.INTER.CONST>
1

>  <SCORE.INTER.POLAR>
-1.73997

>  <SCORE.INTER.ROT>
10

>  <SCORE.INTER.SOLV>
13.0468

>  <SCORE.INTER.VDW>
-15.0987

>  <SCORE.INTER.norm>
-0.235614

>  <SCORE.INTRA>
-4.69616

>  <SCORE.INTRA.DIHEDRAL>
-15.0348

>  <SCORE.INTRA.DIHEDRAL.0>
22.5778

>  <SCORE.INTRA.POLAR>
0

>  <SCORE.INTRA.POLAR.0>
0

>  <SCORE.INTRA.REPUL>
0

>  <SCORE.INTRA.REPUL.0>
0

>  <SCORE.INTRA.SOLV>
2.31504

>  <SCORE.INTRA.SOLV.lig_0>
-102.332

>  <SCORE.INTRA.VDW>
1.66372

>  <SCORE.INTRA.VDW.0>
-5.08747

>  <SCORE.INTRA.norm>
-0.117404

>  <SCORE.RESTR>
0

>  <SCORE.RESTR.CAVITY>
0

>  <SCORE.RESTR.norm>
0

>  <SCORE.SYSTEM>
0

>  <SCORE.SYSTEM.CONST>
0

>  <SCORE.SYSTEM.DIHEDRAL>
0

>  <SCORE.SYSTEM.SOLV>
0

>  <SCORE.SYSTEM.norm>
0

>  <SCORE.heavy>
40

>  <SCORE.norm>
-0.353018

>  <RMSD>
8.114

$$$$
2g5q_lig
 OpenBabel11021811433D
libRbt.so/2013.1/901 2013/11/27
 40 42  0  0  0  0  0  0  0  0999 V2000
   -4.5874  -11.1379   15.2444 C   0  0  2  0  0  0  0  0  0  0  0  0
   -4.0550   -9.9606   15.8100 O   0  0  0  0  0  0  0  0  0  0  0  0
   -6.1279  -10.9694   15.0920 C   0  0  1  0  0  0  0  0  0  0  0  0
   -6.8437  -10.8856   16.4756 C   0  0  2  0  0  0  0  0  0  0  0  0
   -6.5352  -12.1938   17.2491 C   0  0  2  0  0  0  0  0  0  0  0  0
   -7.1978  -12.1651   18.5237 O   0  0  0  0  0  0  0  0  0  0  0  0
   -4.9667  -12.3085   17.4242 C   0  0  2  0  0  0  0  0  0  0  0  0
   -4.3040  -12.3281   16.0888 O   0  0  0  0  0  0  0  0  0  0  0  0
   -4.5465  -13.5738   18.1645 C   0  0  0  0  0  0  0  0  0  0  0  0
   -4.4600  -14.7567   17.2508 N   0  0  0  0  0  0  0  0  0  0  0  0
   -0.0012   -8.6354   16.7523 C   0  0  2  0  0  0  0  0  0  0  0  0
    1.3194   -8.5609   17.3658 N   0  0  0  0  0  0  0  0  0  0  0  0
   -1.1289   -8.4794   17.8568 C   0  0  0  0  0  0  0  0  0  0  0  0
   -2.5612   -8.5523   17.1953 C   0  0  2  0  0  0  0  0  0  0  0  0
   -3.6092   -8.3936   18.2397 N   0  0  0  0  0  0  0  0  0  0  0  0
   -2.7179   -9.9243   16.4266 C   0  0  2  0  0  0  0  0  0  0  0  0
   -1.5769  -10.0452   15.3401 C   0  0  2  0  0  0  0  0  0  0  0  0
   -1.7170  -11.2909   14.6498 O   0  0  0  0  0  0  0  0  0  0  0  0
   -0.1573   -9.9857   16.0227 C   0  0  1  0  0  0  0  0  0  0  0  0
    0.8917  -10.0848   15.0186 O   0  0  0  0  0  0  0  0  0  0  0  0
    1.0256  -11.1577   14.1191 C   0  0  2  0  0  0  0  0  0  0  0  0
    1.5849  -12.3788   14.9247 C   0  0  2  0  0  0  0  0  0  0  0  0
    0.6988  -12.7068   15.9464 O   0  0  0  0  0  0  0  0  0  0  0  0
    3.0194  -12.0723   15.4999 C   0  0  1  0  0  0  0  0  0  0  0  0
    3.5659  -13.2381   16.2697 N   0  0  0  0  0  0  0  0  0  0  0  0
    3.9698  -11.7031   14.2925 C   0  0  2  0  0  0  0  0  0  0  0  0
    5.2929  -11.4208   14.7529 O   0  0  0  0  0  0  0  0  0  0  0  0
    3.3579  -10.4785   13.5319 C   0  0  2  0  0  0  0  0  0  0  0  0
    1.9675  -10.7842   13.0488 O   0  0  0  0  0  0  0  0  0  0  0  0
    4.1921  -10.0861   12.3471 C   0  0  0  0  0  0  0  0  0  0  0  0
    3.5812   -9.0136   11.6112 O   0  0  0  0  0  0  0  0  0  0  0  0
   -6.3839   -9.7650   14.2909 O   0  0  0  0  0  0  0  0  0  0  0  0
   -8.2008  -10.7510   16.2819 O   0  0  0  0  0  0  0  0  0  0  0  0
    3.1882  -10.0465   21.0055 N   0  0  0  0  0  0  0  0  0  0  0  0
    1.6743   -7.7081   18.4016 C   0  0  0  0  0  0  0  0  0  0  0  0
    0.9064   -6.9043   18.9190 O   0  0  0  0  0  0  0  0  0  0  0  0
    3.1535   -7.8719   18.8204 C   0  0  1  0  0  0  0  0  0  0  0  0
    3.5889   -9.3424   18.6585 C   0  0  0  0  0  0  0  0  0  0  0  0
    2.9145  -10.3457   19.6014 C   0  0  0  0  0  0  0  0  0  0  0  0
    3.9738   -6.9987   18.0117 O   0  0  0  0  0  0  0  0  0  0  0  0
  1  2  1  1  0  0  0
  1  3  1  0  0  0  0
  1  8  1  0  0  0  0
  3  4  1  0  0  0  0
  3 32  1  6  0  0  0
  4  5  1  0  0  0  0
  4 33  1  6  0  0  0
  5  6  1  1  0  0  0
  5  7  1  0  0  0  0
  7  8  1  0  0  0  0
  7  9  1  6  0  0  0
  9 10  1  0  0  0  0
 11 12  1  1  0  0  0
 11 13  1  0  0  0  0
 11 19  1  0  0  0  0
 12 35  1  0  0  0  0
 13 14  1  0  0  0  0
 14 15  1  1  0  0  0
 14 16  1  0  0  0  0
 16  2  1  6  0  0  0
 16 17  1  0  0  0  0
 17 18  1  1  0  0  0
 17 19  1  0  0  0  0
 19 20  1  6  0  0  0
 21 20  1  1  0  0  0
 21 22  1  0  0  0  0
 21 29  1  0  0  0  0
 22 23  1  1  0  0  0
 22 24  1  0  0  0  0
 24 25  1  6  0  0  0
 24 26  1  0  0  0  0
 26 27  1  1  0  0  0
 26 28  1  0  0  0  0
 28 29  1  0  0  0  0
 28 30  1  6  0  0  0
 30 31  1  0  0  0  0
 34 39  1  0  0  0  0
 35 36  2  0  0  0  0
 37 35  1  6  0  0  0
 37 38  1  0  0  0  0
 37 40  1  0  0  0  0
 38 39  1  0  0  0  0
M  END
>  <CHROM.1>
162.55825820,83.40125867,-38.71897044,-169.14109295,-177.06696769,-74.35646197
176.57735532,-33.63666180,-66.73227829,-60.87847414,-0.70726360,-10.47312909
16.28550184,-3.13597970,0.17181914,1.06582228

>  <Name>
2g5q_lig

>  <RI>
0

>  <Rbt.Current_Directory>
/home/itssahil/PROJECTS/Mol_Feturizer/New_Systems/rnas/2g5q

>  <Rbt.Executable>
rbdock ($Id: //depot/dev/client3/rdock/2013.1/src/exe/rbdock.cxx#4 $)

>  <Rbt.Library>
libRbt.so (2013.1, Build901 2013/11/27)

>  <Rbt.Parameter_File>
/export/apps/rDock/src/rDock_2013.1_src/data/scripts/dock_solv.prm

>  <Rbt.Receptor>
prm/pocket_docking_5.prm

>  <SCORE>
-14.0438

>  <SCORE.INTER>
-9.22887

>  <SCORE.INTER.CONST>
1

>  <SCORE.INTER.POLAR>
-2.15122

>  <SCORE.INTER.ROT>
10

>  <SCORE.INTER.SOLV>
14.9967

>  <SCORE.INTER.VDW>
-14.2474

>  <SCORE.INTER.norm>
-0.230722

>  <SCORE.INTRA>
-4.81488

>  <SCORE.INTRA.DIHEDRAL>
-15.8106

>  <SCORE.INTRA.DIHEDRAL.0>
22.5778

>  <SCORE.INTRA.POLAR>
0

>  <SCORE.INTRA.POLAR.0>
0

>  <SCORE.INTRA.REPUL>
0

>  <SCORE.INTRA.REPUL.0>
0

>  <SCORE.INTRA.SOLV>
1.53088

>  <SCORE.INTRA.SOLV.lig_0>
-102.332

>  <SCORE.INTRA.VDW>
2.32495

>  <SCORE.INTRA.VDW.0>
-5.08747

>  <SCORE.INTRA.norm>
-0.120372

>  <SCORE.RESTR>
0

>  <SCORE.RESTR.CAVITY>
0

>  <SCORE.RESTR.norm>
0

>  <SCORE.SYSTEM>
0

>  <SCORE.SYSTEM.CONST>
0

>  <SCORE.SYSTEM.DIHEDRAL>
0

>  <SCORE.SYSTEM.SOLV>
0

>  <SCORE.SYSTEM.norm>
0

>  <SCORE.heavy>
40

>  <SCORE.norm>
-0.351094

>  <RMSD>
8.116

$$$$
2g5q_lig
 OpenBabel11021811433D
libRbt.so/2013.1/901 2013/11/27
 40 42  0  0  0  0  0  0  0  0999 V2000
   -4.8742   -9.4884   17.2937 C   0  0  2  0  0  0  0  0  0  0  0  0
   -3.9120   -8.4571   17.3039 O   0  0  0  0  0  0  0  0  0  0  0  0
   -6.1637   -8.9650   16.5949 C   0  0  1  0  0  0  0  0  0  0  0  0
   -6.8583   -7.8400   17.4228 C   0  0  2  0  0  0  0  0  0  0  0  0
   -7.2187   -8.4274   18.8121 C   0  0  2  0  0  0  0  0  0  0  0  0
   -7.8832   -7.4255   19.5989 O   0  0  0  0  0  0  0  0  0  0  0  0
   -5.8819   -8.9067   19.5100 C   0  0  2  0  0  0  0  0  0  0  0  0
   -5.2092   -9.9388   18.6703 O   0  0  0  0  0  0  0  0  0  0  0  0
   -6.1212   -9.5185   20.8863 C   0  0  0  0  0  0  0  0  0  0  0  0
   -6.9241  -10.7799   20.8084 N   0  0  0  0  0  0  0  0  0  0  0  0
    0.4406   -8.1617   17.5149 C   0  0  2  0  0  0  0  0  0  0  0  0
    1.8170   -8.3466   17.9589 N   0  0  0  0  0  0  0  0  0  0  0  0
   -0.4239   -7.5005   18.6687 C   0  0  0  0  0  0  0  0  0  0  0  0
   -1.9142   -7.2917   18.1894 C   0  0  2  0  0  0  0  0  0  0  0  0
   -2.7113   -6.6610   19.2761 N   0  0  0  0  0  0  0  0  0  0  0  0
   -2.5290   -8.6822   17.7574 C   0  0  2  0  0  0  0  0  0  0  0  0
   -1.6401   -9.3106   16.6121 C   0  0  2  0  0  0  0  0  0  0  0  0
   -2.1950  -10.5723   16.2270 O   0  0  0  0  0  0  0  0  0  0  0  0
   -0.1620   -9.5247   17.1162 C   0  0  1  0  0  0  0  0  0  0  0  0
    0.6574  -10.0921   16.0555 O   0  0  0  0  0  0  0  0  0  0  0  0
    1.8955  -10.7251   16.2663 C   0  0  2  0  0  0  0  0  0  0  0  0
    2.6386  -10.7736   14.8884 C   0  0  2  0  0  0  0  0  0  0  0  0
    2.8273   -9.4783   14.4161 O   0  0  0  0  0  0  0  0  0  0  0  0
    1.8432  -11.6441   13.8432 C   0  0  1  0  0  0  0  0  0  0  0  0
    2.5495  -11.7005   12.5210 N   0  0  0  0  0  0  0  0  0  0  0  0
    1.6597  -13.0947   14.4427 C   0  0  2  0  0  0  0  0  0  0  0  0
    0.9484  -13.9362   13.5328 O   0  0  0  0  0  0  0  0  0  0  0  0
    0.9116  -12.9773   15.8136 C   0  0  2  0  0  0  0  0  0  0  0  0
    1.6672  -12.0928   16.7657 O   0  0  0  0  0  0  0  0  0  0  0  0
    0.7266  -14.3181   16.4629 C   0  0  0  0  0  0  0  0  0  0  0  0
   -0.0151  -14.2063   17.6886 O   0  0  0  0  0  0  0  0  0  0  0  0
   -5.8008   -8.4869   15.2541 O   0  0  0  0  0  0  0  0  0  0  0  0
   -7.9964   -7.4249   16.7671 O   0  0  0  0  0  0  0  0  0  0  0  0
    7.1979  -10.5264   16.8458 N   0  0  0  0  0  0  0  0  0  0  0  0
    2.9442   -7.9138   17.2747 C   0  0  0  0  0  0  0  0  0  0  0  0
    2.9075   -7.3249   16.1999 O   0  0  0  0  0  0  0  0  0  0  0  0
    4.2555   -8.2724   18.0111 C   0  0  1  0  0  0  0  0  0  0  0  0
    5.1113   -9.2131   17.1388 C   0  0  0  0  0  0  0  0  0  0  0  0
    6.4323   -9.6815   17.7601 C   0  0  0  0  0  0  0  0  0  0  0  0
    4.9742   -7.0562   18.3173 O   0  0  0  0  0  0  0  0  0  0  0  0
  1  2  1  1  0  0  0
  1  3  1  0  0  0  0
  1  8  1  0  0  0  0
  3  4  1  0  0  0  0
  3 32  1  6  0  0  0
  4  5  1  0  0  0  0
  4 33  1  6  0  0  0
  5  6  1  1  0  0  0
  5  7  1  0  0  0  0
  7  8  1  0  0  0  0
  7  9  1  1  0  0  0
  9 10  1  0  0  0  0
 11 12  1  1  0  0  0
 11 13  1  0  0  0  0
 11 19  1  0  0  0  0
 12 35  1  0  0  0  0
 13 14  1  0  0  0  0
 14 15  1  1  0  0  0
 14 16  1  0  0  0  0
 16  2  1  6  0  0  0
 16 17  1  0  0  0  0
 17 18  1  1  0  0  0
 17 19  1  0  0  0  0
 19 20  1  6  0  0  0
 21 20  1  6  0  0  0
 21 22  1  0  0  0  0
 21 29  1  0  0  0  0
 22 23  1  6  0  0  0
 22 24  1  0  0  0  0
 24 25  1  6  0  0  0
 24 26  1  0  0  0  0
 26 27  1  6  0  0  0
 26 28  1  0  0  0  0
 28 29  1  0  0  0  0
 28 30  1  1  0  0  0
 30 31  1  0  0  0  0
 34 39  1  0  0  0  0
 35 36  2  0  0  0  0
 37 35  1  6  0  0  0
 37 38  1  0  0  0  0
 37 40  1  0  0  0  0
 38 39  1  0  0  0  0
M  END
>  <CHROM.1>
-172.89506386,64.64378292,-127.99203858,-157.56110491,78.19304160,-162.30551279
-177.30088300,118.06517373,-178.54914181,-177.87093162,-0.82500033,-9.67855105
17.04912183,2.87547873,0.09744888,0.56196853

>  <Name>
2g5q_lig

>  <RI>
0

>  <Rbt.Current_Directory>
/home/itssahil/PROJECTS/Mol_Feturizer/New_Systems/rnas/2g5q

>  <Rbt.Executable>
rbdock ($Id: //depot/dev/client3/rdock/2013.1/src/exe/rbdock.cxx#4 $)

>  <Rbt.Library>
libRbt.so (2013.1, Build901 2013/11/27)

>  <Rbt.Parameter_File>
/export/apps/rDock/src/rDock_2013.1_src/data/scripts/dock_solv.prm

>  <Rbt.Receptor>
prm/pocket_docking_5.prm

>  <SCORE>
-19.84

>  <SCORE.INTER>
-12.6344

>  <SCORE.INTER.CONST>
1

>  <SCORE.INTER.POLAR>
-2.61905

>  <SCORE.INTER.ROT>
10

>  <SCORE.INTER.SOLV>
13.1045

>  <SCORE.INTER.VDW>
-14.3276

>  <SCORE.INTER.norm>
-0.31586

>  <SCORE.INTRA>
-7.2056

>  <SCORE.INTRA.DIHEDRAL>
-13.4263

>  <SCORE.INTRA.DIHEDRAL.0>
22.5778

>  <SCORE.INTRA.POLAR>
0

>  <SCORE.INTRA.POLAR.0>
0

>  <SCORE.INTRA.REPUL>
0

>  <SCORE.INTRA.REPUL.0>
0

>  <SCORE.INTRA.SOLV>
0.887877

>  <SCORE.INTRA.SOLV.lig_0>
-102.332

>  <SCORE.INTRA.VDW>
-0.936408

>  <SCORE.INTRA.VDW.0>
-5.08747

>  <SCORE.INTRA.norm>
-0.18014

>  <SCORE.RESTR>
0

>  <SCORE.RESTR.CAVITY>
0

>  <SCORE.RESTR.norm>
0

>  <SCORE.SYSTEM>
0

>  <SCORE.SYSTEM.CONST>
0

>  <SCORE.SYSTEM.DIHEDRAL>
0

>  <SCORE.SYSTEM.SOLV>
0

>  <SCORE.SYSTEM.norm>
0

>  <SCORE.heavy>
40

>  <SCORE.norm>
-0.496

>  <RMSD>
8.121

$$$$
2g5q_lig
 OpenBabel11021811433D
libRbt.so/2013.1/901 2013/11/27
 40 42  0  0  0  0  0  0  0  0999 V2000
   -4.2467  -10.5753   16.9214 C   0  0  2  0  0  0  0  0  0  0  0  0
   -3.2669  -10.0340   16.0633 O   0  0  0  0  0  0  0  0  0  0  0  0
   -5.4915  -10.9728   16.0746 C   0  0  1  0  0  0  0  0  0  0  0  0
   -6.2035   -9.7254   15.4657 C   0  0  2  0  0  0  0  0  0  0  0  0
   -6.6402   -8.8094   16.6384 C   0  0  2  0  0  0  0  0  0  0  0  0
   -7.3224   -7.6567   16.1183 O   0  0  0  0  0  0  0  0  0  0  0  0
   -5.3472   -8.3896   17.4482 C   0  0  2  0  0  0  0  0  0  0  0  0
   -4.6549   -9.6029   17.9692 O   0  0  0  0  0  0  0  0  0  0  0  0
   -5.6629   -7.4929   18.6406 C   0  0  0  0  0  0  0  0  0  0  0  0
   -6.5568   -8.1707   19.6321 N   0  0  0  0  0  0  0  0  0  0  0  0
    0.8237   -8.5276   16.3376 C   0  0  2  0  0  0  0  0  0  0  0  0
    2.2210   -8.3908   16.7307 N   0  0  0  0  0  0  0  0  0  0  0  0
   -0.1178   -8.4091   17.6086 C   0  0  0  0  0  0  0  0  0  0  0  0
   -1.6332   -8.5496   17.1863 C   0  0  2  0  0  0  0  0  0  0  0  0
   -2.5059   -8.4255   18.3851 N   0  0  0  0  0  0  0  0  0  0  0  0
   -1.8511   -9.9346   16.4567 C   0  0  2  0  0  0  0  0  0  0  0  0
   -0.8952  -10.0173   15.2012 C   0  0  2  0  0  0  0  0  0  0  0  0
   -1.0896  -11.2746   14.5459 O   0  0  0  0  0  0  0  0  0  0  0  0
    0.6117   -9.8905   15.6465 C   0  0  1  0  0  0  0  0  0  0  0  0
    1.4892   -9.9546   14.4871 O   0  0  0  0  0  0  0  0  0  0  0  0
    2.8017  -10.4592   14.5164 C   0  0  2  0  0  0  0  0  0  0  0  0
    3.4645  -10.1239   13.1375 C   0  0  2  0  0  0  0  0  0  0  0  0
    3.4764   -8.7450   12.9505 O   0  0  0  0  0  0  0  0  0  0  0  0
    2.7147  -10.8465   11.9550 C   0  0  1  0  0  0  0  0  0  0  0  0
    3.3452  -10.5351   10.6299 N   0  0  0  0  0  0  0  0  0  0  0  0
    2.7331  -12.4021   12.2325 C   0  0  2  0  0  0  0  0  0  0  0  0
    2.0712  -13.1146   11.1854 O   0  0  0  0  0  0  0  0  0  0  0  0
    2.0570  -12.6698   13.6195 C   0  0  2  0  0  0  0  0  0  0  0  0
    2.7604  -11.9189   14.7156 O   0  0  0  0  0  0  0  0  0  0  0  0
    2.0643  -14.1296   13.9694 C   0  0  0  0  0  0  0  0  0  0  0  0
    1.3090  -14.3832   15.1653 O   0  0  0  0  0  0  0  0  0  0  0  0
   -5.0566  -11.8996   15.0210 O   0  0  0  0  0  0  0  0  0  0  0  0
   -7.3012  -10.1331   14.7403 O   0  0  0  0  0  0  0  0  0  0  0  0
    7.2166   -9.9305   18.0474 N   0  0  0  0  0  0  0  0  0  0  0  0
    2.8391   -9.0999   17.7512 C   0  0  0  0  0  0  0  0  0  0  0  0
    2.2675   -9.9280   18.4518 O   0  0  0  0  0  0  0  0  0  0  0  0
    4.3275   -8.7165   17.9187 C   0  0  1  0  0  0  0  0  0  0  0  0
    5.1643   -9.3375   16.7819 C   0  0  0  0  0  0  0  0  0  0  0  0
    6.6841   -9.1822   16.9105 C   0  0  0  0  0  0  0  0  0  0  0  0
    4.4478   -7.2761   17.9207 O   0  0  0  0  0  0  0  0  0  0  0  0
  1  2  1  6  0  0  0
  1  3  1  0  0  0  0
  1  8  1  0  0  0  0
  3  4  1  0  0  0  0
  3 32  1  6  0  0  0
  4  5  1  0  0  0  0
  4 33  1  1  0  0  0
  5  6  1  6  0  0  0
  5  7  1  0  0  0  0
  7  8  1  0  0  0  0
  7  9  1  1  0  0  0
  9 10  1  0  0  0  0
 11 12  1  1  0  0  0
 11 13  1  0  0  0  0
 11 19  1  0  0  0  0
 12 35  1  0  0  0  0
 13 14  1  0  0  0  0
 14 15  1  1  0  0  0
 14 16  1  0  0  0  0
 16  2  1  6  0  0  0
 16 17  1  0  0  0  0
 17 18  1  1  0  0  0
 17 19  1  0  0  0  0
 19 20  1  6  0  0  0
 21 20  1  6  0  0  0
 21 22  1  0  0  0  0
 21 29  1  0  0  0  0
 22 23  1  6  0  0  0
 22 24  1  0  0  0  0
 24 25  1  6  0  0  0
 24 26  1  0  0  0  0
 26 27  1  6  0  0  0
 26 28  1  0  0  0  0
 28 29  1  0  0  0  0
 28 30  1  1  0  0  0
 30 31  1  0  0  0  0
 34 39  1  0  0  0  0
 35 36  2  0  0  0  0
 37 35  1  6  0  0  0
 37 38  1  0  0  0  0
 37 40  1  0  0  0  0
 38 39  1  0  0  0  0
M  END
>  <CHROM.1>
-161.30851994,61.01089982,50.61024130,-88.85470197,90.26297495,-170.60022792
-173.34875059,-74.95056233,-172.94545557,66.52170210,-0.24620118,-10.01382438
15.76230514,2.91692998,0.01378950,0.94634852

>  <Name>
2g5q_lig

>  <RI>
9.52566e+06

>  <Rbt.Current_Directory>
/home/itssahil/PROJECTS/Mol_Feturizer/New_Systems/rnas/2g5q

>  <Rbt.Executable>
rbdock ($Id: //depot/dev/client3/rdock/2013.1/src/exe/rbdock.cxx#4 $)

>  <Rbt.Library>
libRbt.so (2013.1, Build901 2013/11/27)

>  <Rbt.Parameter_File>
/export/apps/rDock/src/rDock_2013.1_src/data/scripts/dock_solv.prm

>  <Rbt.Receptor>
prm/pocket_docking_4.prm

>  <SCORE>
-15.9106

>  <SCORE.INTER>
-12.1392

>  <SCORE.INTER.CONST>
1

>  <SCORE.INTER.POLAR>
-1.617

>  <SCORE.INTER.ROT>
10

>  <SCORE.INTER.SOLV>
17.4487

>  <SCORE.INTER.VDW>
-18.7857

>  <SCORE.INTER.norm>
-0.303481

>  <SCORE.INTRA>
-3.77136

>  <SCORE.INTRA.DIHEDRAL>
-11.912

>  <SCORE.INTRA.DIHEDRAL.0>
22.5778

>  <SCORE.INTRA.POLAR>
0

>  <SCORE.INTRA.POLAR.0>
0

>  <SCORE.INTRA.REPUL>
0

>  <SCORE.INTRA.REPUL.0>
0

>  <SCORE.INTRA.SOLV>
4.77203

>  <SCORE.INTRA.SOLV.lig_0>
-102.332

>  <SCORE.INTRA.VDW>
-0.201359

>  <SCORE.INTRA.VDW.0>
-5.08747

>  <SCORE.INTRA.norm>
-0.0942841

>  <SCORE.RESTR>
0

>  <SCORE.RESTR.CAVITY>
0

>  <SCORE.RESTR.norm>
0

>  <SCORE.SYSTEM>
0

>  <SCORE.SYSTEM.CONST>
0

>  <SCORE.SYSTEM.DIHEDRAL>
0

>  <SCORE.SYSTEM.SOLV>
0

>  <SCORE.SYSTEM.norm>
0

>  <SCORE.heavy>
40

>  <SCORE.norm>
-0.397765

>  <RMSD>
8.123

$$$$
2g5q_lig
 OpenBabel11021811433D
libRbt.so/2013.1/901 2013/11/27
 40 42  0  0  0  0  0  0  0  0999 V2000
   -3.9247  -10.3118   17.2538 C   0  0  2  0  0  0  0  0  0  0  0  0
   -2.9357  -10.1403   16.2629 O   0  0  0  0  0  0  0  0  0  0  0  0
   -4.8966  -11.4417   16.8027 C   0  0  1  0  0  0  0  0  0  0  0  0
   -5.7225  -11.0309   15.5446 C   0  0  2  0  0  0  0  0  0  0  0  0
   -6.5321   -9.7580   15.9038 C   0  0  2  0  0  0  0  0  0  0  0  0
   -7.3262   -9.3600   14.7745 O   0  0  0  0  0  0  0  0  0  0  0  0
   -5.5116   -8.6199   16.3129 C   0  0  2  0  0  0  0  0  0  0  0  0
   -4.6960   -9.0612   17.4803 O   0  0  0  0  0  0  0  0  0  0  0  0
   -6.2042   -7.3181   16.7019 C   0  0  0  0  0  0  0  0  0  0  0  0
   -7.0214   -6.7593   15.5787 N   0  0  0  0  0  0  0  0  0  0  0  0
    1.0503   -8.3569   16.3561 C   0  0  2  0  0  0  0  0  0  0  0  0
    2.4485   -8.1183   16.6938 N   0  0  0  0  0  0  0  0  0  0  0  0
    0.1497   -8.2760   17.6593 C   0  0  0  0  0  0  0  0  0  0  0  0
   -1.3670   -8.5268   17.2969 C   0  0  2  0  0  0  0  0  0  0  0  0
   -2.2019   -8.4372   18.5253 N   0  0  0  0  0  0  0  0  0  0  0  0
   -1.5166   -9.9379   16.6009 C   0  0  2  0  0  0  0  0  0  0  0  0
   -0.6034   -9.9817   15.3121 C   0  0  2  0  0  0  0  0  0  0  0  0
   -0.7356  -11.2623   14.6872 O   0  0  0  0  0  0  0  0  0  0  0  0
    0.9065   -9.7447   15.6980 C   0  0  1  0  0  0  0  0  0  0  0  0
    1.7436   -9.7733   14.5077 O   0  0  0  0  0  0  0  0  0  0  0  0
    3.0645  -10.2558   14.4821 C   0  0  2  0  0  0  0  0  0  0  0  0
    3.6308   -9.9977   13.0447 C   0  0  2  0  0  0  0  0  0  0  0  0
    3.6047   -8.6332   12.7729 O   0  0  0  0  0  0  0  0  0  0  0  0
    2.8201  -10.8038   11.9605 C   0  0  1  0  0  0  0  0  0  0  0  0
    3.3579  -10.5667   10.5803 N   0  0  0  0  0  0  0  0  0  0  0  0
    2.8855  -12.3386   12.3313 C   0  0  2  0  0  0  0  0  0  0  0  0
    2.1710  -13.1249   11.3756 O   0  0  0  0  0  0  0  0  0  0  0  0
    2.3053  -12.5288   13.7734 C   0  0  2  0  0  0  0  0  0  0  0  0
    3.0635  -11.7006   14.7729 O   0  0  0  0  0  0  0  0  0  0  0  0
    2.3624  -13.9636   14.2112 C   0  0  0  0  0  0  0  0  0  0  0  0
    3.7182  -14.4349   14.2787 O   0  0  0  0  0  0  0  0  0  0  0  0
   -4.1077  -12.6537   16.5442 O   0  0  0  0  0  0  0  0  0  0  0  0
   -6.5720  -12.0586   15.1987 O   0  0  0  0  0  0  0  0  0  0  0  0
    4.0234   -5.7985   19.1299 N   0  0  0  0  0  0  0  0  0  0  0  0
    3.2572   -8.9851   17.4154 C   0  0  0  0  0  0  0  0  0  0  0  0
    2.8774  -10.0616   17.8628 O   0  0  0  0  0  0  0  0  0  0  0  0
    4.6888   -8.4338   17.6081 C   0  0  1  0  0  0  0  0  0  0  0  0
    4.9339   -8.1081   19.0954 C   0  0  0  0  0  0  0  0  0  0  0  0
    3.9454   -7.1264   19.7353 C   0  0  0  0  0  0  0  0  0  0  0  0
    5.6405   -9.4111   17.1300 O   0  0  0  0  0  0  0  0  0  0  0  0
  1  2  1  6  0  0  0
  1  3  1  0  0  0  0
  1  8  1  0  0  0  0
  3  4  1  0  0  0  0
  3 32  1  6  0  0  0
  4  5  1  0  0  0  0
  4 33  1  1  0  0  0
  5  6  1  6  0  0  0
  5  7  1  0  0  0  0
  7  8  1  0  0  0  0
  7  9  1  1  0  0  0
  9 10  1  0  0  0  0
 11 12  1  1  0  0  0
 11 13  1  0  0  0  0
 11 19  1  0  0  0  0
 12 35  1  0  0  0  0
 13 14  1  0  0  0  0
 14 15  1  1  0  0  0
 14 16  1  0  0  0  0
 16  2  1  6  0  0  0
 16 17  1  0  0  0  0
 17 18  1  1  0  0  0
 17 19  1  0  0  0  0
 19 20  1  6  0  0  0
 21 20  1  6  0  0  0
 21 22  1  0  0  0  0
 21 29  1  0  0  0  0
 22 23  1  6  0  0  0
 22 24  1  0  0  0  0
 24 25  1  6  0  0  0
 24 26  1  0  0  0  0
 26 27  1  6  0  0  0
 26 28  1  0  0  0  0
 28 29  1  0  0  0  0
 28 30  1  1  0  0  0
 30 31  1  0  0  0  0
 34 39  1  0  0  0  0
 35 36  2  0  0  0  0
 37 35  1  1  0  0  0
 37 38  1  0  0  0  0
 37 40  1  0  0  0  0
 38 39  1  0  0  0  0
M  END
>  <CHROM.1>
-138.03748653,-60.36063084,69.83899176,-67.96412910,93.86956607,-175.49617333
62.39055044,112.43674256,-56.57890647,-64.28947929,-0.08804518,-9.97177164
15.71118958,-3.03087867,-0.02861549,-2.28791044

>  <Name>
2g5q_lig

>  <RI>
9.52566e+06

>  <Rbt.Current_Directory>
/home/itssahil/PROJECTS/Mol_Feturizer/New_Systems/rnas/2g5q

>  <Rbt.Executable>
rbdock ($Id: //depot/dev/client3/rdock/2013.1/src/exe/rbdock.cxx#4 $)

>  <Rbt.Library>
libRbt.so (2013.1, Build901 2013/11/27)

>  <Rbt.Parameter_File>
/export/apps/rDock/src/rDock_2013.1_src/data/scripts/dock_solv.prm

>  <Rbt.Receptor>
prm/pocket_docking_4.prm

>  <SCORE>
-18.9355

>  <SCORE.INTER>
-16.2063

>  <SCORE.INTER.CONST>
1

>  <SCORE.INTER.POLAR>
-2.2396

>  <SCORE.INTER.ROT>
10

>  <SCORE.INTER.SOLV>
22.7133

>  <SCORE.INTER.VDW>
-21.1766

>  <SCORE.INTER.norm>
-0.405156

>  <SCORE.INTRA>
-2.72921

>  <SCORE.INTRA.DIHEDRAL>
-9.51697

>  <SCORE.INTRA.DIHEDRAL.0>
22.5778

>  <SCORE.INTRA.POLAR>
0

>  <SCORE.INTRA.POLAR.0>
0

>  <SCORE.INTRA.REPUL>
0

>  <SCORE.INTRA.REPUL.0>
0

>  <SCORE.INTRA.SOLV>
4.63052

>  <SCORE.INTRA.SOLV.lig_0>
-102.332

>  <SCORE.INTRA.VDW>
-0.285982

>  <SCORE.INTRA.VDW.0>
-5.08747

>  <SCORE.INTRA.norm>
-0.0682302

>  <SCORE.RESTR>
0

>  <SCORE.RESTR.CAVITY>
0

>  <SCORE.RESTR.norm>
0

>  <SCORE.SYSTEM>
0

>  <SCORE.SYSTEM.CONST>
0

>  <SCORE.SYSTEM.DIHEDRAL>
0

>  <SCORE.SYSTEM.SOLV>
0

>  <SCORE.SYSTEM.norm>
0

>  <SCORE.heavy>
40

>  <SCORE.norm>
-0.473387

>  <RMSD>
8.134

$$$$
2g5q_lig
 OpenBabel11021811433D
libRbt.so/2013.1/901 2013/11/27
 40 42  0  0  0  0  0  0  0  0999 V2000
   -4.1602   -8.8286   17.7701 C   0  0  2  0  0  0  0  0  0  0  0  0
   -2.9903   -8.5122   17.0484 O   0  0  0  0  0  0  0  0  0  0  0  0
   -4.4495  -10.3508   17.6150 C   0  0  1  0  0  0  0  0  0  0  0  0
   -4.8257  -10.7249   16.1480 C   0  0  2  0  0  0  0  0  0  0  0  0
   -6.0875   -9.9111   15.7598 C   0  0  2  0  0  0  0  0  0  0  0  0
   -6.4805  -10.2459   14.4190 O   0  0  0  0  0  0  0  0  0  0  0  0
   -5.7431   -8.3718   15.8856 C   0  0  2  0  0  0  0  0  0  0  0  0
   -5.3312   -8.0533   17.2826 O   0  0  0  0  0  0  0  0  0  0  0  0
   -6.9247   -7.4724   15.5384 C   0  0  0  0  0  0  0  0  0  0  0  0
   -7.9871   -7.5087   16.5927 N   0  0  0  0  0  0  0  0  0  0  0  0
    1.2685   -8.1588   17.9508 C   0  0  2  0  0  0  0  0  0  0  0  0
    2.6022   -8.4606   18.4567 N   0  0  0  0  0  0  0  0  0  0  0  0
    0.2293   -8.0953   19.1473 C   0  0  0  0  0  0  0  0  0  0  0  0
   -1.2158   -7.7615   18.6044 C   0  0  2  0  0  0  0  0  0  0  0  0
   -2.1784   -7.6938   19.7370 N   0  0  0  0  0  0  0  0  0  0  0  0
   -1.6472   -8.8540   17.5468 C   0  0  2  0  0  0  0  0  0  0  0  0
   -0.5878   -8.8905   16.3750 C   0  0  2  0  0  0  0  0  0  0  0  0
   -0.9771   -9.8847   15.4220 O   0  0  0  0  0  0  0  0  0  0  0  0
    0.8431   -9.2403   16.9362 C   0  0  1  0  0  0  0  0  0  0  0  0
    1.8190   -9.2612   15.8567 O   0  0  0  0  0  0  0  0  0  0  0  0
    2.9974  -10.0289   15.8716 C   0  0  2  0  0  0  0  0  0  0  0  0
    3.8114   -9.6645   14.5839 C   0  0  2  0  0  0  0  0  0  0  0  0
    4.1140   -8.3063   14.5942 O   0  0  0  0  0  0  0  0  0  0  0  0
    3.0182  -10.0552   13.2798 C   0  0  1  0  0  0  0  0  0  0  0  0
    3.7919   -9.7141   12.0406 N   0  0  0  0  0  0  0  0  0  0  0  0
    2.7031  -11.6027   13.3354 C   0  0  2  0  0  0  0  0  0  0  0  0
    1.9881  -12.0196   12.1704 O   0  0  0  0  0  0  0  0  0  0  0  0
    1.8892  -11.8998   14.6400 C   0  0  2  0  0  0  0  0  0  0  0  0
    2.6488  -11.4608   15.8607 O   0  0  0  0  0  0  0  0  0  0  0  0
    1.5772  -13.3615   14.7803 C   0  0  0  0  0  0  0  0  0  0  0  0
    0.4149  -13.5707   15.5989 O   0  0  0  0  0  0  0  0  0  0  0  0
   -3.2641  -11.0942   18.0624 O   0  0  0  0  0  0  0  0  0  0  0  0
   -5.0834  -12.0759   16.0715 O   0  0  0  0  0  0  0  0  0  0  0  0
    4.8771   -6.9886   22.8620 N   0  0  0  0  0  0  0  0  0  0  0  0
    3.6245   -7.5364   18.6212 C   0  0  0  0  0  0  0  0  0  0  0  0
    3.5202   -6.3457   18.3478 O   0  0  0  0  0  0  0  0  0  0  0  0
    4.9181   -8.1791   19.1724 C   0  0  1  0  0  0  0  0  0  0  0  0
    4.8673   -8.2317   20.7128 C   0  0  0  0  0  0  0  0  0  0  0  0
    4.6625   -6.8870   21.4200 C   0  0  0  0  0  0  0  0  0  0  0  0
    5.0623   -9.5050   18.6151 O   0  0  0  0  0  0  0  0  0  0  0  0
  1  2  1  6  0  0  0
  1  3  1  0  0  0  0
  1  8  1  0  0  0  0
  3  4  1  0  0  0  0
  3 32  1  6  0  0  0
  4  5  1  0  0  0  0
  4 33  1  1  0  0  0
  5  6  1  6  0  0  0
  5  7  1  0  0  0  0
  7  8  1  0  0  0  0
  7  9  1  1  0  0  0
  9 10  1  0  0  0  0
 11 12  1  1  0  0  0
 11 13  1  0  0  0  0
 11 19  1  0  0  0  0
 12 35  1  0  0  0  0
 13 14  1  0  0  0  0
 14 15  1  1  0  0  0
 14 16  1  0  0  0  0
 16  2  1  6  0  0  0
 16 17  1  0  0  0  0
 17 18  1  6  0  0  0
 17 19  1  0  0  0  0
 19 20  1  6  0  0  0
 21 20  1  6  0  0  0
 21 22  1  0  0  0  0
 21 29  1  0  0  0  0
 22 23  1  6  0  0  0
 22 24  1  0  0  0  0
 24 25  1  6  0  0  0
 24 26  1  0  0  0  0
 26 27  1  6  0  0  0
 26 28  1  0  0  0  0
 28 29  1  0  0  0  0
 28 30  1  1  0  0  0
 30 31  1  0  0  0  0
 34 39  1  0  0  0  0
 35 36  2  0  0  0  0
 37 35  1  6  0  0  0
 37 38  1  0  0  0  0
 37 40  1  0  0  0  0
 38 39  1  0  0  0  0
M  END
>  <CHROM.1>
-75.93789399,71.77946016,-102.58483422,-80.82444490,87.72448227,-175.22334211
-155.58055037,-86.07840239,-56.95939710,-169.24244969,-0.08208513,-9.40190620
16.74366113,2.99701487,0.03032374,-2.14629025

>  <Name>
2g5q_lig

>  <RI>
0

>  <Rbt.Current_Directory>
/home/itssahil/PROJECTS/Mol_Feturizer/New_Systems/rnas/2g5q

>  <Rbt.Executable>
rbdock ($Id: //depot/dev/client3/rdock/2013.1/src/exe/rbdock.cxx#4 $)

>  <Rbt.Library>
libRbt.so (2013.1, Build901 2013/11/27)

>  <Rbt.Parameter_File>
/export/apps/rDock/src/rDock_2013.1_src/data/scripts/dock_solv.prm

>  <Rbt.Receptor>
prm/pocket_docking_2.prm

>  <SCORE>
-5.71408

>  <SCORE.INTER>
-5.63345

>  <SCORE.INTER.CONST>
1

>  <SCORE.INTER.POLAR>
-0.274893

>  <SCORE.INTER.ROT>
10

>  <SCORE.INTER.SOLV>
18.2425

>  <SCORE.INTER.VDW>
-19.1868

>  <SCORE.INTER.norm>
-0.140836

>  <SCORE.INTRA>
-4.83092

>  <SCORE.INTRA.DIHEDRAL>
-10.9226

>  <SCORE.INTRA.DIHEDRAL.0>
22.5778

>  <SCORE.INTRA.POLAR>
0

>  <SCORE.INTRA.POLAR.0>
0

>  <SCORE.INTRA.REPUL>
0

>  <SCORE.INTRA.REPUL.0>
0

>  <SCORE.INTRA.SOLV>
1.53891

>  <SCORE.INTRA.SOLV.lig_0>
-102.332

>  <SCORE.INTRA.VDW>
-0.139092

>  <SCORE.INTRA.VDW.0>
-5.08747

>  <SCORE.INTRA.norm>
-0.120773

>  <SCORE.RESTR>
4.75029

>  <SCORE.RESTR.CAVITY>
4.75029

>  <SCORE.RESTR.norm>
0.118757

>  <SCORE.SYSTEM>
0

>  <SCORE.SYSTEM.CONST>
0

>  <SCORE.SYSTEM.DIHEDRAL>
0

>  <SCORE.SYSTEM.SOLV>
0

>  <SCORE.SYSTEM.norm>
0

>  <SCORE.heavy>
40

>  <SCORE.norm>
-0.142852

>  <RMSD>
8.139

$$$$
2g5q_lig
 OpenBabel11021811433D
libRbt.so/2013.1/901 2013/11/27
 40 42  0  0  0  0  0  0  0  0999 V2000
   -2.5791  -11.0591   15.1219 C   0  0  2  0  0  0  0  0  0  0  0  0
   -2.0883   -9.9022   15.7624 O   0  0  0  0  0  0  0  0  0  0  0  0
   -4.0618  -11.2765   15.5452 C   0  0  1  0  0  0  0  0  0  0  0  0
   -4.1889  -11.6286   17.0596 C   0  0  2  0  0  0  0  0  0  0  0  0
   -3.3774  -12.9252   17.3147 C   0  0  2  0  0  0  0  0  0  0  0  0
   -3.4888  -13.2965   18.6982 O   0  0  0  0  0  0  0  0  0  0  0  0
   -1.8701  -12.6535   16.9167 C   0  0  2  0  0  0  0  0  0  0  0  0
   -1.7839  -12.2629   15.4804 O   0  0  0  0  0  0  0  0  0  0  0  0
   -0.9780  -13.8743   17.1154 C   0  0  0  0  0  0  0  0  0  0  0  0
    0.4476  -13.5929   16.7546 N   0  0  0  0  0  0  0  0  0  0  0  0
    1.7591   -8.2883   17.0548 C   0  0  2  0  0  0  0  0  0  0  0  0
    3.0895   -8.1954   17.6439 N   0  0  0  0  0  0  0  0  0  0  0  0
    0.6980   -8.7023   18.1586 C   0  0  0  0  0  0  0  0  0  0  0  0
   -0.7462   -8.7971   17.5262 C   0  0  2  0  0  0  0  0  0  0  0  0
   -1.7332   -9.1749   18.5735 N   0  0  0  0  0  0  0  0  0  0  0  0
   -0.7354   -9.8430   16.3413 C   0  0  2  0  0  0  0  0  0  0  0  0
    0.3345   -9.4000   15.2661 C   0  0  2  0  0  0  0  0  0  0  0  0
    0.3470  -10.3518   14.1975 O   0  0  0  0  0  0  0  0  0  0  0  0
    1.7697   -9.3269   15.9141 C   0  0  1  0  0  0  0  0  0  0  0  0
    2.7509   -8.9068   14.9247 O   0  0  0  0  0  0  0  0  0  0  0  0
    4.0851   -9.3512   14.8969 C   0  0  2  0  0  0  0  0  0  0  0  0
    4.8467   -8.4841   13.8380 C   0  0  2  0  0  0  0  0  0  0  0  0
    4.7870   -7.1432   14.2055 O   0  0  0  0  0  0  0  0  0  0  0  0
    4.2546   -8.6994   12.3939 C   0  0  1  0  0  0  0  0  0  0  0  0
    4.9807   -7.8762   11.3714 N   0  0  0  0  0  0  0  0  0  0  0  0
    4.3475  -10.2376   12.0436 C   0  0  2  0  0  0  0  0  0  0  0  0
    3.8299  -10.4951   10.7367 O   0  0  0  0  0  0  0  0  0  0  0  0
    3.5676  -11.0461   13.1348 C   0  0  2  0  0  0  0  0  0  0  0  0
    4.1196  -10.7718   14.5059 O   0  0  0  0  0  0  0  0  0  0  0  0
    3.6369  -12.5251   12.8868 C   0  0  0  0  0  0  0  0  0  0  0  0
    2.8593  -12.8984   11.7376 O   0  0  0  0  0  0  0  0  0  0  0  0
   -4.8181  -10.0596   15.2204 O   0  0  0  0  0  0  0  0  0  0  0  0
   -5.5157  -11.8227   17.3750 O   0  0  0  0  0  0  0  0  0  0  0  0
    4.8949   -6.5044   21.9299 N   0  0  0  0  0  0  0  0  0  0  0  0
    3.4888   -7.2466   18.5747 C   0  0  0  0  0  0  0  0  0  0  0  0
    2.7574   -6.3622   19.0063 O   0  0  0  0  0  0  0  0  0  0  0  0
    4.9667   -7.4180   18.9953 C   0  0  1  0  0  0  0  0  0  0  0  0
    5.0599   -8.3190   20.2433 C   0  0  0  0  0  0  0  0  0  0  0  0
    4.3565   -7.7933   21.5000 C   0  0  0  0  0  0  0  0  0  0  0  0
    5.7098   -7.9848   17.8927 O   0  0  0  0  0  0  0  0  0  0  0  0
  1  2  1  1  0  0  0
  1  3  1  0  0  0  0
  1  8  1  0  0  0  0
  3  4  1  0  0  0  0
  3 32  1  1  0  0  0
  4  5  1  0  0  0  0
  4 33  1  6  0  0  0
  5  6  1  1  0  0  0
  5  7  1  0  0  0  0
  7  8  1  0  0  0  0
  7  9  1  6  0  0  0
  9 10  1  0  0  0  0
 11 12  1  1  0  0  0
 11 13  1  0  0  0  0
 11 19  1  0  0  0  0
 12 35  1  0  0  0  0
 13 14  1  0  0  0  0
 14 15  1  1  0  0  0
 14 16  1  0  0  0  0
 16  2  1  6  0  0  0
 16 17  1  0  0  0  0
 17 18  1  6  0  0  0
 17 19  1  0  0  0  0
 19 20  1  6  0  0  0
 21 20  1  6  0  0  0
 21 22  1  0  0  0  0
 21 29  1  0  0  0  0
 22 23  1  1  0  0  0
 22 24  1  0  0  0  0
 24 25  1  6  0  0  0
 24 26  1  0  0  0  0
 26 27  1  6  0  0  0
 26 28  1  0  0  0  0
 28 29  1  0  0  0  0
 28 30  1  6  0  0  0
 30 31  1  0  0  0  0
 34 39  1  0  0  0  0
 35 36  2  0  0  0  0
 37 35  1  6  0  0  0
 37 38  1  0  0  0  0
 37 40  1  0  0  0  0
 38 39  1  0  0  0  0
M  END
>  <CHROM.1>
138.66772322,-179.09805029,-67.32235968,-152.53607870,94.23729840,-170.68661567
-70.54996073,-91.97245703,-61.56687212,-59.94949393,1.22643128,-9.93057025
16.06896866,-3.07370103,0.41538145,1.18913035

>  <Name>
2g5q_lig

>  <RI>
2.47104e+07

>  <Rbt.Current_Directory>
/home/itssahil/PROJECTS/Mol_Feturizer/New_Systems/rnas/2g5q

>  <Rbt.Executable>
rbdock ($Id: //depot/dev/client3/rdock/2013.1/src/exe/rbdock.cxx#4 $)

>  <Rbt.Library>
libRbt.so (2013.1, Build901 2013/11/27)

>  <Rbt.Parameter_File>
/export/apps/rDock/src/rDock_2013.1_src/data/scripts/dock_solv.prm

>  <Rbt.Receptor>
prm/pocket_docking_7.prm

>  <SCORE>
-18.4791

>  <SCORE.INTER>
-16.0779

>  <SCORE.INTER.CONST>
1

>  <SCORE.INTER.POLAR>
-1.91232

>  <SCORE.INTER.ROT>
10

>  <SCORE.INTER.SOLV>
17.6168

>  <SCORE.INTER.VDW>
-20.4831

>  <SCORE.INTER.norm>
-0.401947

>  <SCORE.INTRA>
-2.40123

>  <SCORE.INTRA.DIHEDRAL>
-6.88984

>  <SCORE.INTRA.DIHEDRAL.0>
22.5778

>  <SCORE.INTRA.POLAR>
0

>  <SCORE.INTRA.POLAR.0>
0

>  <SCORE.INTRA.REPUL>
0

>  <SCORE.INTRA.REPUL.0>
0

>  <SCORE.INTRA.SOLV>
3.02614

>  <SCORE.INTRA.SOLV.lig_0>
-102.332

>  <SCORE.INTRA.VDW>
-0.469375

>  <SCORE.INTRA.VDW.0>
-5.08747

>  <SCORE.INTRA.norm>
-0.0600307

>  <SCORE.RESTR>
0

>  <SCORE.RESTR.CAVITY>
0

>  <SCORE.RESTR.norm>
0

>  <SCORE.SYSTEM>
0

>  <SCORE.SYSTEM.CONST>
0

>  <SCORE.SYSTEM.DIHEDRAL>
0

>  <SCORE.SYSTEM.SOLV>
0

>  <SCORE.SYSTEM.norm>
0

>  <SCORE.heavy>
40

>  <SCORE.norm>
-0.461978

>  <RMSD>
8.143

$$$$
2g5q_lig
 OpenBabel11021811433D
libRbt.so/2013.1/901 2013/11/27
 40 42  0  0  0  0  0  0  0  0999 V2000
   -3.9375   -8.6427   17.0183 C   0  0  2  0  0  0  0  0  0  0  0  0
   -3.7129   -9.9986   17.3353 O   0  0  0  0  0  0  0  0  0  0  0  0
   -4.5698   -7.9364   18.2536 C   0  0  1  0  0  0  0  0  0  0  0  0
   -6.0030   -8.4712   18.5592 C   0  0  2  0  0  0  0  0  0  0  0  0
   -6.8809   -8.2175   17.3063 C   0  0  2  0  0  0  0  0  0  0  0  0
   -8.2190   -8.6769   17.5572 O   0  0  0  0  0  0  0  0  0  0  0  0
   -6.2341   -8.9857   16.0834 C   0  0  2  0  0  0  0  0  0  0  0  0
   -4.8452   -8.4962   15.8501 O   0  0  0  0  0  0  0  0  0  0  0  0
   -7.0132   -8.7931   14.7867 C   0  0  0  0  0  0  0  0  0  0  0  0
   -8.3762   -9.4091   14.8535 N   0  0  0  0  0  0  0  0  0  0  0  0
   -0.3870  -12.7103   16.5212 C   0  0  2  0  0  0  0  0  0  0  0  0
    0.5590  -13.5594   15.8071 N   0  0  0  0  0  0  0  0  0  0  0  0
   -1.8679  -13.2356   16.3042 C   0  0  0  0  0  0  0  0  0  0  0  0
   -2.8955  -12.3227   17.0821 C   0  0  2  0  0  0  0  0  0  0  0  0
   -4.2787  -12.8323   16.8796 N   0  0  0  0  0  0  0  0  0  0  0  0
   -2.7542  -10.8287   16.5862 C   0  0  2  0  0  0  0  0  0  0  0  0
   -1.2678  -10.3432   16.8143 C   0  0  2  0  0  0  0  0  0  0  0  0
   -1.1407   -8.9925   16.3588 O   0  0  0  0  0  0  0  0  0  0  0  0
   -0.2609  -11.2576   16.0174 C   0  0  1  0  0  0  0  0  0  0  0  0
    1.1080  -10.8159   16.2390 O   0  0  0  0  0  0  0  0  0  0  0  0
    1.6620   -9.6494   15.6817 C   0  0  2  0  0  0  0  0  0  0  0  0
    3.2198   -9.8094   15.7104 C   0  0  2  0  0  0  0  0  0  0  0  0
    3.5861  -10.9268   14.9663 O   0  0  0  0  0  0  0  0  0  0  0  0
    3.7537   -9.9173   17.1889 C   0  0  1  0  0  0  0  0  0  0  0  0
    5.2459  -10.0663   17.2271 N   0  0  0  0  0  0  0  0  0  0  0  0
    3.2993   -8.6247   17.9762 C   0  0  2  0  0  0  0  0  0  0  0  0
    3.7624   -8.6617   19.3276 O   0  0  0  0  0  0  0  0  0  0  0  0
    1.7378   -8.5240   17.9117 C   0  0  2  0  0  0  0  0  0  0  0  0
    1.2588   -8.4830   16.4874 O   0  0  0  0  0  0  0  0  0  0  0  0
    1.2298   -7.2985   18.6144 C   0  0  0  0  0  0  0  0  0  0  0  0
    1.4807   -7.3658   20.0277 O   0  0  0  0  0  0  0  0  0  0  0  0
   -3.6769   -8.1307   19.4039 O   0  0  0  0  0  0  0  0  0  0  0  0
   -6.5179   -7.8048   19.6493 O   0  0  0  0  0  0  0  0  0  0  0  0
    3.5305  -12.3406   11.9790 N   0  0  0  0  0  0  0  0  0  0  0  0
    0.3615  -14.0883   14.5393 C   0  0  0  0  0  0  0  0  0  0  0  0
   -0.6499  -13.9034   13.8713 O   0  0  0  0  0  0  0  0  0  0  0  0
    1.5537  -14.9528   14.0682 C   0  0  1  0  0  0  0  0  0  0  0  0
    2.7031  -14.0474   13.5812 C   0  0  0  0  0  0  0  0  0  0  0  0
    2.3715  -13.1229   12.4040 C   0  0  0  0  0  0  0  0  0  0  0  0
    1.9873  -15.7956   15.1595 O   0  0  0  0  0  0  0  0  0  0  0  0
  1  2  1  1  0  0  0
  1  3  1  0  0  0  0
  1  8  1  0  0  0  0
  3  4  1  0  0  0  0
  3 32  1  1  0  0  0
  4  5  1  0  0  0  0
  4 33  1  1  0  0  0
  5  6  1  1  0  0  0
  5  7  1  0  0  0  0
  7  8  1  0  0  0  0
  7  9  1  6  0  0  0
  9 10  1  0  0  0  0
 11 12  1  6  0  0  0
 11 13  1  0  0  0  0
 11 19  1  0  0  0  0
 12 35  1  0  0  0  0
 13 14  1  0  0  0  0
 14 15  1  6  0  0  0
 14 16  1  0  0  0  0
 16  2  1  1  0  0  0
 16 17  1  0  0  0  0
 17 18  1  6  0  0  0
 17 19  1  0  0  0  0
 19 20  1  1  0  0  0
 21 20  1  1  0  0  0
 21 22  1  0  0  0  0
 21 29  1  0  0  0  0
 22 23  1  6  0  0  0
 22 24  1  0  0  0  0
 24 25  1  6  0  0  0
 24 26  1  0  0  0  0
 26 27  1  1  0  0  0
 26 28  1  0  0  0  0
 28 29  1  0  0  0  0
 28 30  1  1  0  0  0
 30 31  1  0  0  0  0
 34 39  1  0  0  0  0
 35 36  2  0  0  0  0
 37 35  1  1  0  0  0
 37 38  1  0  0  0  0
 37 40  1  0  0  0  0
 38 39  1  0  0  0  0
M  END
>  <CHROM.1>
-159.68918182,-65.67313368,40.39227880,-172.73646912,167.38830475,-159.42765534
-65.99222032,-78.56816536,-60.29109774,-177.85840737,-1.03341174,-10.42144222
16.47589194,-2.76467381,0.03893446,-2.49235048

>  <Name>
2g5q_lig

>  <RI>
9.52566e+06

>  <Rbt.Current_Directory>
/home/itssahil/PROJECTS/Mol_Feturizer/New_Systems/rnas/2g5q

>  <Rbt.Executable>
rbdock ($Id: //depot/dev/client3/rdock/2013.1/src/exe/rbdock.cxx#4 $)

>  <Rbt.Library>
libRbt.so (2013.1, Build901 2013/11/27)

>  <Rbt.Parameter_File>
/export/apps/rDock/src/rDock_2013.1_src/data/scripts/dock_solv.prm

>  <Rbt.Receptor>
prm/pocket_docking_4.prm

>  <SCORE>
-15.6061

>  <SCORE.INTER>
-9.75304

>  <SCORE.INTER.CONST>
1

>  <SCORE.INTER.POLAR>
-1.33841

>  <SCORE.INTER.ROT>
10

>  <SCORE.INTER.SOLV>
9.80626

>  <SCORE.INTER.VDW>
-15.5761

>  <SCORE.INTER.norm>
-0.243826

>  <SCORE.INTRA>
-5.85302

>  <SCORE.INTRA.DIHEDRAL>
-16.1168

>  <SCORE.INTRA.DIHEDRAL.0>
22.5778

>  <SCORE.INTRA.POLAR>
0

>  <SCORE.INTRA.POLAR.0>
0

>  <SCORE.INTRA.REPUL>
0

>  <SCORE.INTRA.REPUL.0>
0

>  <SCORE.INTRA.SOLV>
1.48049

>  <SCORE.INTRA.SOLV.lig_0>
-102.332

>  <SCORE.INTRA.VDW>
1.46514

>  <SCORE.INTRA.VDW.0>
-5.08747

>  <SCORE.INTRA.norm>
-0.146325

>  <SCORE.RESTR>
0

>  <SCORE.RESTR.CAVITY>
0

>  <SCORE.RESTR.norm>
0

>  <SCORE.SYSTEM>
0

>  <SCORE.SYSTEM.CONST>
0

>  <SCORE.SYSTEM.DIHEDRAL>
0

>  <SCORE.SYSTEM.SOLV>
0

>  <SCORE.SYSTEM.norm>
0

>  <SCORE.heavy>
40

>  <SCORE.norm>
-0.390151

>  <RMSD>
8.148

$$$$
2g5q_lig
 OpenBabel11021811433D
libRbt.so/2013.1/901 2013/11/27
 40 42  0  0  0  0  0  0  0  0999 V2000
   -5.0469   -9.4561   16.6875 C   0  0  2  0  0  0  0  0  0  0  0  0
   -3.8600   -9.5097   15.9273 O   0  0  0  0  0  0  0  0  0  0  0  0
   -5.1439  -10.7434   17.5583 C   0  0  1  0  0  0  0  0  0  0  0  0
   -5.3385  -12.0223   16.6865 C   0  0  2  0  0  0  0  0  0  0  0  0
   -6.6445  -11.8448   15.8693 C   0  0  2  0  0  0  0  0  0  0  0  0
   -6.8718  -13.0156   15.0680 O   0  0  0  0  0  0  0  0  0  0  0  0
   -6.4923  -10.5554   14.9647 C   0  0  2  0  0  0  0  0  0  0  0  0
   -6.2497   -9.3581   15.8192 O   0  0  0  0  0  0  0  0  0  0  0  0
   -7.7326  -10.2755   14.1227 C   0  0  0  0  0  0  0  0  0  0  0  0
   -7.6129   -8.9961   13.3542 N   0  0  0  0  0  0  0  0  0  0  0  0
    0.3718   -8.8452   16.7805 C   0  0  2  0  0  0  0  0  0  0  0  0
    1.6874   -8.9458   17.4007 N   0  0  0  0  0  0  0  0  0  0  0  0
   -0.7030   -8.3732   17.8473 C   0  0  0  0  0  0  0  0  0  0  0  0
   -2.1286   -8.2559   17.1779 C   0  0  2  0  0  0  0  0  0  0  0  0
   -3.1247   -7.8019   18.1857 N   0  0  0  0  0  0  0  0  0  0  0  0
   -2.5350   -9.6503   16.5547 C   0  0  2  0  0  0  0  0  0  0  0  0
   -1.4407  -10.0885   15.5023 C   0  0  2  0  0  0  0  0  0  0  0  0
   -1.8074  -11.3541   14.9441 O   0  0  0  0  0  0  0  0  0  0  0  0
   -0.0298  -10.2144   16.1940 C   0  0  1  0  0  0  0  0  0  0  0  0
    0.9783  -10.6060   15.2200 O   0  0  0  0  0  0  0  0  0  0  0  0
    0.8814  -10.3575   13.8391 C   0  0  2  0  0  0  0  0  0  0  0  0
    0.8502  -11.7451   13.1134 C   0  0  2  0  0  0  0  0  0  0  0  0
   -0.2482  -12.4763   13.5554 O   0  0  0  0  0  0  0  0  0  0  0  0
    2.1891  -12.5413   13.3499 C   0  0  1  0  0  0  0  0  0  0  0  0
    2.1708  -13.8704   12.6547 N   0  0  0  0  0  0  0  0  0  0  0  0
    3.3913  -11.6552   12.8331 C   0  0  2  0  0  0  0  0  0  0  0  0
    4.6375  -12.3306   13.0151 O   0  0  0  0  0  0  0  0  0  0  0  0
    3.3677  -10.2878   13.5962 C   0  0  2  0  0  0  0  0  0  0  0  0
    2.0549   -9.5827   13.3978 O   0  0  0  0  0  0  0  0  0  0  0  0
    4.4666   -9.3747   13.1356 C   0  0  0  0  0  0  0  0  0  0  0  0
    4.1840   -8.0068   13.4729 O   0  0  0  0  0  0  0  0  0  0  0  0
   -3.9269  -10.8411   18.3754 O   0  0  0  0  0  0  0  0  0  0  0  0
   -5.4311  -13.1256   17.5059 O   0  0  0  0  0  0  0  0  0  0  0  0
    3.4131   -6.2583   20.6521 N   0  0  0  0  0  0  0  0  0  0  0  0
    2.8728   -8.4870   16.8433 C   0  0  0  0  0  0  0  0  0  0  0  0
    2.9474   -7.9441   15.7465 O   0  0  0  0  0  0  0  0  0  0  0  0
    4.0943   -8.7524   17.7532 C   0  0  1  0  0  0  0  0  0  0  0  0
    3.8258   -8.2076   19.1707 C   0  0  0  0  0  0  0  0  0  0  0  0
    3.5577   -6.7012   19.2669 C   0  0  0  0  0  0  0  0  0  0  0  0
    4.3589  -10.1730   17.7877 O   0  0  0  0  0  0  0  0  0  0  0  0
  1  2  1  6  0  0  0
  1  3  1  0  0  0  0
  1  8  1  0  0  0  0
  3  4  1  0  0  0  0
  3 32  1  6  0  0  0
  4  5  1  0  0  0  0
  4 33  1  1  0  0  0
  5  6  1  6  0  0  0
  5  7  1  0  0  0  0
  7  8  1  0  0  0  0
  7  9  1  1  0  0  0
  9 10  1  0  0  0  0
 11 12  1  1  0  0  0
 11 13  1  0  0  0  0
 11 19  1  0  0  0  0
 12 35  1  0  0  0  0
 13 14  1  0  0  0  0
 14 15  1  1  0  0  0
 14 16  1  0  0  0  0
 16  2  1  6  0  0  0
 16 17  1  0  0  0  0
 17 18  1  1  0  0  0
 17 19  1  0  0  0  0
 19 20  1  6  0  0  0
 21 20  1  1  0  0  0
 21 22  1  0  0  0  0
 21 29  1  0  0  0  0
 22 23  1  1  0  0  0
 22 24  1  0  0  0  0
 24 25  1  6  0  0  0
 24 26  1  0  0  0  0
 26 27  1  1  0  0  0
 26 28  1  0  0  0  0
 28 29  1  0  0  0  0
 28 30  1  6  0  0  0
 30 31  1  0  0  0  0
 34 39  1  0  0  0  0
 35 36  2  0  0  0  0
 37 35  1  6  0  0  0
 37 38  1  0  0  0  0
 37 40  1  0  0  0  0
 38 39  1  0  0  0  0
M  END
>  <CHROM.1>
-57.37881018,175.58145252,-135.95648442,-75.82086751,-94.27441410,-117.64941261
160.14334699,-52.22815415,-60.29776512,-175.75115112,-0.65046509,-10.08688177
15.75816392,3.07539290,-0.12543002,-2.20023838

>  <Name>
2g5q_lig

>  <RI>
0

>  <Rbt.Current_Directory>
/home/itssahil/PROJECTS/Mol_Feturizer/New_Systems/rnas/2g5q

>  <Rbt.Executable>
rbdock ($Id: //depot/dev/client3/rdock/2013.1/src/exe/rbdock.cxx#4 $)

>  <Rbt.Library>
libRbt.so (2013.1, Build901 2013/11/27)

>  <Rbt.Parameter_File>
/export/apps/rDock/src/rDock_2013.1_src/data/scripts/dock_solv.prm

>  <Rbt.Receptor>
prm/pocket_docking_3.prm

>  <SCORE>
-11.7654

>  <SCORE.INTER>
-13.225

>  <SCORE.INTER.CONST>
1

>  <SCORE.INTER.POLAR>
-2.09001

>  <SCORE.INTER.ROT>
10

>  <SCORE.INTER.SOLV>
20.6478

>  <SCORE.INTER.VDW>
-18.9992

>  <SCORE.INTER.norm>
-0.330625

>  <SCORE.INTRA>
1.24178

>  <SCORE.INTRA.DIHEDRAL>
-6.49793

>  <SCORE.INTRA.DIHEDRAL.0>
22.5778

>  <SCORE.INTRA.POLAR>
0

>  <SCORE.INTRA.POLAR.0>
0

>  <SCORE.INTRA.REPUL>
0

>  <SCORE.INTRA.REPUL.0>
0

>  <SCORE.INTRA.SOLV>
3.06924

>  <SCORE.INTRA.SOLV.lig_0>
-102.332

>  <SCORE.INTRA.VDW>
2.95613

>  <SCORE.INTRA.VDW.0>
-5.08747

>  <SCORE.INTRA.norm>
0.0310445

>  <SCORE.RESTR>
0.217873

>  <SCORE.RESTR.CAVITY>
0.217873

>  <SCORE.RESTR.norm>
0.00544683

>  <SCORE.SYSTEM>
0

>  <SCORE.SYSTEM.CONST>
0

>  <SCORE.SYSTEM.DIHEDRAL>
0

>  <SCORE.SYSTEM.SOLV>
0

>  <SCORE.SYSTEM.norm>
0

>  <SCORE.heavy>
40

>  <SCORE.norm>
-0.294134

>  <RMSD>
8.149

$$$$
2g5q_lig
 OpenBabel11021811433D
libRbt.so/2013.1/901 2013/11/27
 40 42  0  0  0  0  0  0  0  0999 V2000
   -4.8479  -10.4790   16.4860 C   0  0  2  0  0  0  0  0  0  0  0  0
   -3.8778   -9.5384   16.8908 O   0  0  0  0  0  0  0  0  0  0  0  0
   -6.1950   -9.7372   16.2417 C   0  0  1  0  0  0  0  0  0  0  0  0
   -6.7899   -9.1607   17.5635 C   0  0  2  0  0  0  0  0  0  0  0  0
   -7.0153  -10.3454   18.5384 C   0  0  2  0  0  0  0  0  0  0  0  0
   -7.5857   -9.8569   19.7633 O   0  0  0  0  0  0  0  0  0  0  0  0
   -5.6205  -11.0462   18.7984 C   0  0  2  0  0  0  0  0  0  0  0  0
   -5.0477  -11.5361   17.5121 O   0  0  0  0  0  0  0  0  0  0  0  0
   -5.7271  -12.2418   19.7390 C   0  0  0  0  0  0  0  0  0  0  0  0
   -6.4121  -13.4057   19.0927 N   0  0  0  0  0  0  0  0  0  0  0  0
    0.4581   -9.4071   16.3810 C   0  0  2  0  0  0  0  0  0  0  0  0
    1.8750   -9.7205   16.5228 N   0  0  0  0  0  0  0  0  0  0  0  0
   -0.1559   -8.9962   17.7846 C   0  0  0  0  0  0  0  0  0  0  0  0
   -1.6893   -8.6488   17.6343 C   0  0  2  0  0  0  0  0  0  0  0  0
   -2.2503   -8.2545   18.9548 N   0  0  0  0  0  0  0  0  0  0  0  0
   -2.4554   -9.8932   17.0320 C   0  0  2  0  0  0  0  0  0  0  0  0
   -1.8139  -10.2747   15.6392 C   0  0  2  0  0  0  0  0  0  0  0  0
   -2.5049  -11.4054   15.0988 O   0  0  0  0  0  0  0  0  0  0  0  0
   -0.2886  -10.6324   15.8143 C   0  0  1  0  0  0  0  0  0  0  0  0
    0.3027  -10.9714   14.5283 O   0  0  0  0  0  0  0  0  0  0  0  0
   -0.2414  -11.9075   13.6306 C   0  0  2  0  0  0  0  0  0  0  0  0
   -0.1383  -13.3181   14.3036 C   0  0  2  0  0  0  0  0  0  0  0  0
   -0.8518  -13.3165   15.4983 O   0  0  0  0  0  0  0  0  0  0  0  0
    1.3646  -13.7247   14.5454 C   0  0  1  0  0  0  0  0  0  0  0  0
    1.4741  -15.0769   15.1857 N   0  0  0  0  0  0  0  0  0  0  0  0
    2.1152  -13.7007   13.1549 C   0  0  2  0  0  0  0  0  0  0  0  0
    3.4871  -14.0698   13.3097 O   0  0  0  0  0  0  0  0  0  0  0  0
    1.9768  -12.2681   12.5376 C   0  0  2  0  0  0  0  0  0  0  0  0
    0.5313  -11.8885   12.3758 O   0  0  0  0  0  0  0  0  0  0  0  0
    2.6411  -12.1746   11.1946 C   0  0  0  0  0  0  0  0  0  0  0  0
    2.8315  -10.8057   10.8010 O   0  0  0  0  0  0  0  0  0  0  0  0
   -5.9635   -8.6715   15.2574 O   0  0  0  0  0  0  0  0  0  0  0  0
   -7.9834   -8.5290   17.2915 O   0  0  0  0  0  0  0  0  0  0  0  0
    7.3360   -9.5414   16.8916 N   0  0  0  0  0  0  0  0  0  0  0  0
    2.8817   -8.7925   16.7493 C   0  0  0  0  0  0  0  0  0  0  0  0
    2.6892   -7.5857   16.8496 O   0  0  0  0  0  0  0  0  0  0  0  0
    4.2785   -9.4484   16.8444 C   0  0  1  0  0  0  0  0  0  0  0  0
    5.2018   -8.5983   17.7404 C   0  0  0  0  0  0  0  0  0  0  0  0
    6.5572   -9.2252   18.0872 C   0  0  0  0  0  0  0  0  0  0  0  0
    4.1378  -10.7871   17.3710 O   0  0  0  0  0  0  0  0  0  0  0  0
  1  2  1  1  0  0  0
  1  3  1  0  0  0  0
  1  8  1  0  0  0  0
  3  4  1  0  0  0  0
  3 32  1  6  0  0  0
  4  5  1  0  0  0  0
  4 33  1  6  0  0  0
  5  6  1  1  0  0  0
  5  7  1  0  0  0  0
  7  8  1  0  0  0  0
  7  9  1  1  0  0  0
  9 10  1  0  0  0  0
 11 12  1  1  0  0  0
 11 13  1  0  0  0  0
 11 19  1  0  0  0  0
 12 35  1  0  0  0  0
 13 14  1  0  0  0  0
 14 15  1  1  0  0  0
 14 16  1  0  0  0  0
 16  2  1  6  0  0  0
 16 17  1  0  0  0  0
 17 18  1  1  0  0  0
 17 19  1  0  0  0  0
 19 20  1  6  0  0  0
 21 20  1  1  0  0  0
 21 22  1  0  0  0  0
 21 29  1  0  0  0  0
 22 23  1  1  0  0  0
 22 24  1  0  0  0  0
 24 25  1  6  0  0  0
 24 26  1  0  0  0  0
 26 27  1  1  0  0  0
 26 28  1  0  0  0  0
 28 29  1  0  0  0  0
 28 30  1  6  0  0  0
 30 31  1  0  0  0  0
 34 39  1  0  0  0  0
 35 36  2  0  0  0  0
 37 35  1  1  0  0  0
 37 38  1  0  0  0  0
 37 40  1  0  0  0  0
 38 39  1  0  0  0  0
M  END
>  <CHROM.1>
-171.92705342,71.21948344,-72.02533120,-174.45092556,-170.30813943,-66.75449194
-164.29425888,-152.04449285,171.71758679,58.30003468,-0.85347377,-10.72547338
16.11876061,2.87146652,0.12805562,0.87469577

>  <Name>
2g5q_lig

>  <RI>
9.52566e+06

>  <Rbt.Current_Directory>
/home/itssahil/PROJECTS/Mol_Feturizer/New_Systems/rnas/2g5q

>  <Rbt.Executable>
rbdock ($Id: //depot/dev/client3/rdock/2013.1/src/exe/rbdock.cxx#4 $)

>  <Rbt.Library>
libRbt.so (2013.1, Build901 2013/11/27)

>  <Rbt.Parameter_File>
/export/apps/rDock/src/rDock_2013.1_src/data/scripts/dock_solv.prm

>  <Rbt.Receptor>
prm/pocket_docking_4.prm

>  <SCORE>
-13.8237

>  <SCORE.INTER>
-8.11128

>  <SCORE.INTER.CONST>
1

>  <SCORE.INTER.POLAR>
-0.761763

>  <SCORE.INTER.ROT>
10

>  <SCORE.INTER.SOLV>
10.9605

>  <SCORE.INTER.VDW>
-16.7885

>  <SCORE.INTER.norm>
-0.202782

>  <SCORE.INTRA>
-5.74504

>  <SCORE.INTRA.DIHEDRAL>
-18.2023

>  <SCORE.INTRA.DIHEDRAL.0>
22.5778

>  <SCORE.INTRA.POLAR>
0

>  <SCORE.INTRA.POLAR.0>
0

>  <SCORE.INTRA.REPUL>
0

>  <SCORE.INTRA.REPUL.0>
0

>  <SCORE.INTRA.SOLV>
1.19259

>  <SCORE.INTRA.SOLV.lig_0>
-102.332

>  <SCORE.INTRA.VDW>
2.75981

>  <SCORE.INTRA.VDW.0>
-5.08747

>  <SCORE.INTRA.norm>
-0.143626

>  <SCORE.RESTR>
0.0326598

>  <SCORE.RESTR.CAVITY>
0.0326598

>  <SCORE.RESTR.norm>
0.000816496

>  <SCORE.SYSTEM>
0

>  <SCORE.SYSTEM.CONST>
0

>  <SCORE.SYSTEM.DIHEDRAL>
0

>  <SCORE.SYSTEM.SOLV>
0

>  <SCORE.SYSTEM.norm>
0

>  <SCORE.heavy>
40

>  <SCORE.norm>
-0.345591

>  <RMSD>
8.150

$$$$
2g5q_lig
 OpenBabel11021811433D
libRbt.so/2013.1/901 2013/11/27
 40 42  0  0  0  0  0  0  0  0999 V2000
   -4.6493  -11.0956   15.2814 C   0  0  2  0  0  0  0  0  0  0  0  0
   -4.2907   -9.8801   15.9007 O   0  0  0  0  0  0  0  0  0  0  0  0
   -6.1698  -11.0593   14.9473 C   0  0  1  0  0  0  0  0  0  0  0  0
   -7.0485  -11.0451   16.2362 C   0  0  2  0  0  0  0  0  0  0  0  0
   -6.7222  -12.3263   17.0468 C   0  0  2  0  0  0  0  0  0  0  0  0
   -7.5307  -12.3619   18.2339 O   0  0  0  0  0  0  0  0  0  0  0  0
   -5.1813  -12.3067   17.4065 C   0  0  2  0  0  0  0  0  0  0  0  0
   -4.3664  -12.2618   16.1589 O   0  0  0  0  0  0  0  0  0  0  0  0
   -4.7442  -13.5353   18.1971 C   0  0  0  0  0  0  0  0  0  0  0  0
   -3.4262  -13.3268   18.8761 N   0  0  0  0  0  0  0  0  0  0  0  0
   -0.5134   -8.3073   17.4289 C   0  0  2  0  0  0  0  0  0  0  0  0
    0.6832   -8.1401   18.2450 N   0  0  0  0  0  0  0  0  0  0  0  0
   -1.8136   -8.1709   18.3271 C   0  0  0  0  0  0  0  0  0  0  0  0
   -3.1125   -8.3442   17.4456 C   0  0  2  0  0  0  0  0  0  0  0  0
   -4.3244   -8.2031   18.2974 N   0  0  0  0  0  0  0  0  0  0  0  0
   -3.0766   -9.7500   16.7242 C   0  0  2  0  0  0  0  0  0  0  0  0
   -1.7679   -9.8499   15.8442 C   0  0  2  0  0  0  0  0  0  0  0  0
   -1.7344  -11.1259   15.1971 O   0  0  0  0  0  0  0  0  0  0  0  0
   -0.4843   -9.6899   16.7452 C   0  0  1  0  0  0  0  0  0  0  0  0
    0.7191   -9.7700   15.9305 O   0  0  0  0  0  0  0  0  0  0  0  0
    1.0143  -10.8342   15.0596 C   0  0  2  0  0  0  0  0  0  0  0  0
    1.4406  -12.0572   15.9404 C   0  0  2  0  0  0  0  0  0  0  0  0
    0.3972  -12.4012   16.7944 O   0  0  0  0  0  0  0  0  0  0  0  0
    2.7535  -11.7432   16.7530 C   0  0  1  0  0  0  0  0  0  0  0  0
    3.1727  -12.9107   17.5966 N   0  0  0  0  0  0  0  0  0  0  0  0
    3.8915  -11.3559   15.7271 C   0  0  2  0  0  0  0  0  0  0  0  0
    5.1143  -11.0662   16.4075 O   0  0  0  0  0  0  0  0  0  0  0  0
    3.4056  -10.1303   14.8819 C   0  0  2  0  0  0  0  0  0  0  0  0
    2.1206  -10.4438   14.1675 O   0  0  0  0  0  0  0  0  0  0  0  0
    4.4251   -9.7210   13.8587 C   0  0  0  0  0  0  0  0  0  0  0  0
    4.0247   -8.5230   13.1736 O   0  0  0  0  0  0  0  0  0  0  0  0
   -6.4320   -9.8768   14.1160 O   0  0  0  0  0  0  0  0  0  0  0  0
   -8.3798  -11.0266   15.8829 O   0  0  0  0  0  0  0  0  0  0  0  0
    2.4542   -9.8966   21.0126 N   0  0  0  0  0  0  0  0  0  0  0  0
    1.9484   -7.8407   17.7595 C   0  0  0  0  0  0  0  0  0  0  0  0
    2.2060   -7.6885   16.5704 O   0  0  0  0  0  0  0  0  0  0  0  0
    3.0032   -7.7372   18.8851 C   0  0  1  0  0  0  0  0  0  0  0  0
    3.7364   -9.0840   19.0478 C   0  0  0  0  0  0  0  0  0  0  0  0
    2.9137  -10.2216   19.6638 C   0  0  0  0  0  0  0  0  0  0  0  0
    3.9337   -6.6781   18.5657 O   0  0  0  0  0  0  0  0  0  0  0  0
  1  2  1  1  0  0  0
  1  3  1  0  0  0  0
  1  8  1  0  0  0  0
  3  4  1  0  0  0  0
  3 32  1  1  0  0  0
  4  5  1  0  0  0  0
  4 33  1  6  0  0  0
  5  6  1  1  0  0  0
  5  7  1  0  0  0  0
  7  8  1  0  0  0  0
  7  9  1  6  0  0  0
  9 10  1  0  0  0  0
 11 12  1  1  0  0  0
 11 13  1  0  0  0  0
 11 19  1  0  0  0  0
 12 35  1  0  0  0  0
 13 14  1  0  0  0  0
 14 15  1  1  0  0  0
 14 16  1  0  0  0  0
 16  2  1  6  0  0  0
 16 17  1  0  0  0  0
 17 18  1  1  0  0  0
 17 19  1  0  0  0  0
 19 20  1  6  0  0  0
 21 20  1  1  0  0  0
 21 22  1  0  0  0  0
 21 29  1  0  0  0  0
 22 23  1  1  0  0  0
 22 24  1  0  0  0  0
 24 25  1  6  0  0  0
 24 26  1  0  0  0  0
 26 27  1  1  0  0  0
 26 28  1  0  0  0  0
 28 29  1  0  0  0  0
 28 30  1  6  0  0  0
 30 31  1  0  0  0  0
 34 39  1  0  0  0  0
 35 36  2  0  0  0  0
 37 35  1  6  0  0  0
 37 38  1  0  0  0  0
 37 40  1  0  0  0  0
 38 39  1  0  0  0  0
M  END
>  <CHROM.1>
159.57380620,-162.87315613,-161.63169325,-170.79712096,-173.51333420,-74.17964410
-174.66362769,95.10734634,-71.20518079,-60.63850003,-0.81474713,-10.29565936
16.72735322,-3.04245201,0.15371304,1.12537421

>  <Name>
2g5q_lig

>  <RI>
2.90231e+07

>  <Rbt.Current_Directory>
/home/itssahil/PROJECTS/Mol_Feturizer/New_Systems/rnas/2g5q

>  <Rbt.Executable>
rbdock ($Id: //depot/dev/client3/rdock/2013.1/src/exe/rbdock.cxx#4 $)

>  <Rbt.Library>
libRbt.so (2013.1, Build901 2013/11/27)

>  <Rbt.Parameter_File>
/export/apps/rDock/src/rDock_2013.1_src/data/scripts/dock_solv.prm

>  <Rbt.Receptor>
prm/pocket_docking_6.prm

>  <SCORE>
-17.7507

>  <SCORE.INTER>
-10.433

>  <SCORE.INTER.CONST>
1

>  <SCORE.INTER.POLAR>
-2.4815

>  <SCORE.INTER.ROT>
10

>  <SCORE.INTER.SOLV>
9.81451

>  <SCORE.INTER.VDW>
-12.2218

>  <SCORE.INTER.norm>
-0.260825

>  <SCORE.INTRA>
-7.31768

>  <SCORE.INTRA.DIHEDRAL>
-15.4795

>  <SCORE.INTRA.DIHEDRAL.0>
22.5778

>  <SCORE.INTRA.POLAR>
0

>  <SCORE.INTRA.POLAR.0>
0

>  <SCORE.INTRA.REPUL>
0

>  <SCORE.INTRA.REPUL.0>
0

>  <SCORE.INTRA.SOLV>
3.37136

>  <SCORE.INTRA.SOLV.lig_0>
-102.332

>  <SCORE.INTRA.VDW>
-1.26362

>  <SCORE.INTRA.VDW.0>
-5.08747

>  <SCORE.INTRA.norm>
-0.182942

>  <SCORE.RESTR>
0

>  <SCORE.RESTR.CAVITY>
0

>  <SCORE.RESTR.norm>
0

>  <SCORE.SYSTEM>
0

>  <SCORE.SYSTEM.CONST>
0

>  <SCORE.SYSTEM.DIHEDRAL>
0

>  <SCORE.SYSTEM.SOLV>
0

>  <SCORE.SYSTEM.norm>
0

>  <SCORE.heavy>
40

>  <SCORE.norm>
-0.443767

>  <RMSD>
8.159

$$$$
2g5q_lig
 OpenBabel11021811433D
libRbt.so/2013.1/901 2013/11/27
 40 42  0  0  0  0  0  0  0  0999 V2000
   -3.5727  -11.3207   16.2658 C   0  0  2  0  0  0  0  0  0  0  0  0
   -3.5025  -10.0638   16.9021 O   0  0  0  0  0  0  0  0  0  0  0  0
   -5.0391  -11.5685   15.8042 C   0  0  1  0  0  0  0  0  0  0  0  0
   -6.0107  -11.7287   17.0141 C   0  0  2  0  0  0  0  0  0  0  0  0
   -5.5193  -12.9313   17.8609 C   0  0  2  0  0  0  0  0  0  0  0  0
   -6.4043  -13.1265   18.9759 O   0  0  0  0  0  0  0  0  0  0  0  0
   -4.0457  -12.6250   18.3494 C   0  0  2  0  0  0  0  0  0  0  0  0
   -3.1510  -12.4191   17.1746 O   0  0  0  0  0  0  0  0  0  0  0  0
   -3.4541  -13.7551   19.1852 C   0  0  0  0  0  0  0  0  0  0  0  0
   -2.1757  -13.3510   19.8517 N   0  0  0  0  0  0  0  0  0  0  0  0
    0.0574   -7.6633   17.7034 C   0  0  2  0  0  0  0  0  0  0  0  0
    1.2632   -7.1539   18.3456 N   0  0  0  0  0  0  0  0  0  0  0  0
   -1.1819   -7.5380   18.6854 C   0  0  0  0  0  0  0  0  0  0  0  0
   -2.4919   -8.0822   17.9909 C   0  0  2  0  0  0  0  0  0  0  0  0
   -3.6483   -7.9488   18.9177 N   0  0  0  0  0  0  0  0  0  0  0  0
   -2.2728   -9.5861   17.5568 C   0  0  2  0  0  0  0  0  0  0  0  0
   -1.0299   -9.6712   16.5848 C   0  0  2  0  0  0  0  0  0  0  0  0
   -0.8296  -11.0344   16.1982 O   0  0  0  0  0  0  0  0  0  0  0  0
    0.2685   -9.1380   17.3023 C   0  0  1  0  0  0  0  0  0  0  0  0
    1.4091   -9.2060   16.4008 O   0  0  0  0  0  0  0  0  0  0  0  0
    2.7488   -9.0820   16.8108 C   0  0  2  0  0  0  0  0  0  0  0  0
    3.6502   -9.5348   15.6126 C   0  0  2  0  0  0  0  0  0  0  0  0
    3.4005   -8.7231   14.5103 O   0  0  0  0  0  0  0  0  0  0  0  0
    3.4099  -11.0519   15.2612 C   0  0  1  0  0  0  0  0  0  0  0  0
    4.2724  -11.4966   14.1173 N   0  0  0  0  0  0  0  0  0  0  0  0
    3.7045  -11.9132   16.5530 C   0  0  2  0  0  0  0  0  0  0  0  0
    3.5098  -13.3049   16.2931 O   0  0  0  0  0  0  0  0  0  0  0  0
    2.7733  -11.4139   17.7090 C   0  0  2  0  0  0  0  0  0  0  0  0
    2.9858   -9.9502   17.9779 O   0  0  0  0  0  0  0  0  0  0  0  0
    3.0174  -12.1670   18.9845 C   0  0  0  0  0  0  0  0  0  0  0  0
    4.3725  -12.0056   19.4345 O   0  0  0  0  0  0  0  0  0  0  0  0
   -5.4474  -10.4506   14.9430 O   0  0  0  0  0  0  0  0  0  0  0  0
   -7.2870  -11.9582   16.5494 O   0  0  0  0  0  0  0  0  0  0  0  0
    5.6809   -8.6221   19.2702 N   0  0  0  0  0  0  0  0  0  0  0  0
    1.8439   -7.6801   19.4910 C   0  0  0  0  0  0  0  0  0  0  0  0
    1.3961   -8.6428   20.1042 O   0  0  0  0  0  0  0  0  0  0  0  0
    3.1117   -6.9055   19.9191 C   0  0  1  0  0  0  0  0  0  0  0  0
    3.9706   -7.7759   20.8587 C   0  0  0  0  0  0  0  0  0  0  0  0
    4.6322   -9.0000   20.2153 C   0  0  0  0  0  0  0  0  0  0  0  0
    3.8570   -6.5288   18.7394 O   0  0  0  0  0  0  0  0  0  0  0  0
  1  2  1  1  0  0  0
  1  3  1  0  0  0  0
  1  8  1  0  0  0  0
  3  4  1  0  0  0  0
  3 32  1  6  0  0  0
  4  5  1  0  0  0  0
  4 33  1  6  0  0  0
  5  6  1  1  0  0  0
  5  7  1  0  0  0  0
  7  8  1  0  0  0  0
  7  9  1  6  0  0  0
  9 10  1  0  0  0  0
 11 12  1  1  0  0  0
 11 13  1  0  0  0  0
 11 19  1  0  0  0  0
 12 35  1  0  0  0  0
 13 14  1  0  0  0  0
 14 15  1  1  0  0  0
 14 16  1  0  0  0  0
 16  2  1  6  0  0  0
 16 17  1  0  0  0  0
 17 18  1  1  0  0  0
 17 19  1  0  0  0  0
 19 20  1  6  0  0  0
 21 20  1  6  0  0  0
 21 22  1  0  0  0  0
 21 29  1  0  0  0  0
 22 23  1  6  0  0  0
 22 24  1  0  0  0  0
 24 25  1  6  0  0  0
 24 26  1  0  0  0  0
 26 27  1  6  0  0  0
 26 28  1  0  0  0  0
 28 29  1  0  0  0  0
 28 30  1  1  0  0  0
 30 31  1  0  0  0  0
 34 39  1  0  0  0  0
 35 36  2  0  0  0  0
 37 35  1  6  0  0  0
 37 38  1  0  0  0  0
 37 40  1  0  0  0  0
 38 39  1  0  0  0  0
M  END
>  <CHROM.1>
174.56717607,-169.19770231,62.52257343,172.66003339,74.83722310,167.31234953
60.33860040,-160.62031350,68.38027630,68.69153502,-0.05092573,-10.22684829
17.65001631,-2.86626389,0.06305899,0.50768981

>  <Name>
2g5q_lig

>  <RI>
0

>  <Rbt.Current_Directory>
/home/itssahil/PROJECTS/Mol_Feturizer/New_Systems/rnas/2g5q

>  <Rbt.Executable>
rbdock ($Id: //depot/dev/client3/rdock/2013.1/src/exe/rbdock.cxx#4 $)

>  <Rbt.Library>
libRbt.so (2013.1, Build901 2013/11/27)

>  <Rbt.Parameter_File>
/export/apps/rDock/src/rDock_2013.1_src/data/scripts/dock_solv.prm

>  <Rbt.Receptor>
prm/pocket_docking_5.prm

>  <SCORE>
-16.3876

>  <SCORE.INTER>
-9.49203

>  <SCORE.INTER.CONST>
1

>  <SCORE.INTER.POLAR>
-2.04383

>  <SCORE.INTER.ROT>
10

>  <SCORE.INTER.SOLV>
10.6901

>  <SCORE.INTER.VDW>
-13.3453

>  <SCORE.INTER.norm>
-0.237301

>  <SCORE.INTRA>
-6.8997

>  <SCORE.INTRA.DIHEDRAL>
-18.2015

>  <SCORE.INTRA.DIHEDRAL.0>
22.5778

>  <SCORE.INTRA.POLAR>
0

>  <SCORE.INTRA.POLAR.0>
0

>  <SCORE.INTRA.REPUL>
0

>  <SCORE.INTRA.REPUL.0>
0

>  <SCORE.INTRA.SOLV>
5.06225

>  <SCORE.INTRA.SOLV.lig_0>
-102.332

>  <SCORE.INTRA.VDW>
-0.330047

>  <SCORE.INTRA.VDW.0>
-5.08747

>  <SCORE.INTRA.norm>
-0.172492

>  <SCORE.RESTR>
0.00413002

>  <SCORE.RESTR.CAVITY>
0.00413002

>  <SCORE.RESTR.norm>
0.000103251

>  <SCORE.SYSTEM>
0

>  <SCORE.SYSTEM.CONST>
0

>  <SCORE.SYSTEM.DIHEDRAL>
0

>  <SCORE.SYSTEM.SOLV>
0

>  <SCORE.SYSTEM.norm>
0

>  <SCORE.heavy>
40

>  <SCORE.norm>
-0.40969

>  <RMSD>
8.170

$$$$
2g5q_lig
 OpenBabel11021811433D
libRbt.so/2013.1/901 2013/11/27
 40 42  0  0  0  0  0  0  0  0999 V2000
   -3.3845  -10.8892   15.6664 C   0  0  2  0  0  0  0  0  0  0  0  0
   -2.8295   -9.7848   16.3460 O   0  0  0  0  0  0  0  0  0  0  0  0
   -4.9372  -10.7865   15.7257 C   0  0  1  0  0  0  0  0  0  0  0  0
   -5.4764  -10.9572   17.1796 C   0  0  2  0  0  0  0  0  0  0  0  0
   -5.0249  -12.3494   17.6924 C   0  0  2  0  0  0  0  0  0  0  0  0
   -5.5231  -12.5547   19.0243 O   0  0  0  0  0  0  0  0  0  0  0  0
   -3.4437  -12.4009   17.6606 C   0  0  2  0  0  0  0  0  0  0  0  0
   -2.9534  -12.1773   16.2705 O   0  0  0  0  0  0  0  0  0  0  0  0
   -2.8872  -13.7393   18.1346 C   0  0  0  0  0  0  0  0  0  0  0  0
   -3.0681  -14.8170   17.1110 N   0  0  0  0  0  0  0  0  0  0  0  0
    1.2832   -8.3176   16.4459 C   0  0  2  0  0  0  0  0  0  0  0  0
    2.6999   -8.2008   16.7703 N   0  0  0  0  0  0  0  0  0  0  0  0
    0.4084   -8.2207   17.7654 C   0  0  0  0  0  0  0  0  0  0  0  0
   -1.1276   -8.3395   17.4176 C   0  0  2  0  0  0  0  0  0  0  0  0
   -1.9373   -8.2360   18.6617 N   0  0  0  0  0  0  0  0  0  0  0  0
   -1.3947   -9.7057   16.6691 C   0  0  2  0  0  0  0  0  0  0  0  0
   -0.5043   -9.7672   15.3652 C   0  0  2  0  0  0  0  0  0  0  0  0
   -0.7431  -11.0076   14.6926 O   0  0  0  0  0  0  0  0  0  0  0  0
    1.0242   -9.6626   15.7360 C   0  0  1  0  0  0  0  0  0  0  0  0
    1.8413   -9.7071   14.5324 O   0  0  0  0  0  0  0  0  0  0  0  0
    3.1390  -10.2465   14.4778 C   0  0  2  0  0  0  0  0  0  0  0  0
    3.6759  -10.0316   13.0222 C   0  0  2  0  0  0  0  0  0  0  0  0
    3.7010   -8.6708   12.7321 O   0  0  0  0  0  0  0  0  0  0  0  0
    2.8018  -10.8156   11.9716 C   0  0  1  0  0  0  0  0  0  0  0  0
    3.3110  -10.6197   10.5743 N   0  0  0  0  0  0  0  0  0  0  0  0
    2.8115  -12.3469   12.3620 C   0  0  2  0  0  0  0  0  0  0  0  0
    2.0378  -13.1138   11.4370 O   0  0  0  0  0  0  0  0  0  0  0  0
    2.2636  -12.4934   13.8217 C   0  0  2  0  0  0  0  0  0  0  0  0
    3.0840  -11.6861   14.7887 O   0  0  0  0  0  0  0  0  0  0  0  0
    2.2712  -13.9237   14.2778 C   0  0  0  0  0  0  0  0  0  0  0  0
    1.3379  -14.7161   13.5257 O   0  0  0  0  0  0  0  0  0  0  0  0
   -5.3361   -9.4895   15.1631 O   0  0  0  0  0  0  0  0  0  0  0  0
   -6.8512  -10.8712   17.1713 O   0  0  0  0  0  0  0  0  0  0  0  0
    5.6494   -9.4734   20.6728 N   0  0  0  0  0  0  0  0  0  0  0  0
    3.4209   -9.0994   17.5442 C   0  0  0  0  0  0  0  0  0  0  0  0
    2.9372  -10.1033   18.0554 O   0  0  0  0  0  0  0  0  0  0  0  0
    4.9015   -8.6841   17.7051 C   0  0  1  0  0  0  0  0  0  0  0  0
    5.0664   -7.7856   18.9476 C   0  0  0  0  0  0  0  0  0  0  0  0
    4.7008   -8.4295   20.2900 C   0  0  0  0  0  0  0  0  0  0  0  0
    5.7169   -9.8725   17.8156 O   0  0  0  0  0  0  0  0  0  0  0  0
  1  2  1  1  0  0  0
  1  3  1  0  0  0  0
  1  8  1  0  0  0  0
  3  4  1  0  0  0  0
  3 32  1  1  0  0  0
  4  5  1  0  0  0  0
  4 33  1  6  0  0  0
  5  6  1  1  0  0  0
  5  7  1  0  0  0  0
  7  8  1  0  0  0  0
  7  9  1  6  0  0  0
  9 10  1  0  0  0  0
 11 12  1  1  0  0  0
 11 13  1  0  0  0  0
 11 19  1  0  0  0  0
 12 35  1  0  0  0  0
 13 14  1  0  0  0  0
 14 15  1  1  0  0  0
 14 16  1  0  0  0  0
 16  2  1  6  0  0  0
 16 17  1  0  0  0  0
 17 18  1  1  0  0  0
 17 19  1  0  0  0  0
 19 20  1  6  0  0  0
 21 20  1  6  0  0  0
 21 22  1  0  0  0  0
 21 29  1  0  0  0  0
 22 23  1  6  0  0  0
 22 24  1  0  0  0  0
 24 25  1  6  0  0  0
 24 26  1  0  0  0  0
 26 27  1  6  0  0  0
 26 28  1  0  0  0  0
 28 29  1  0  0  0  0
 28 30  1  1  0  0  0
 30 31  1  0  0  0  0
 34 39  1  0  0  0  0
 35 36  2  0  0  0  0
 37 35  1  1  0  0  0
 37 38  1  0  0  0  0
 37 40  1  0  0  0  0
 38 39  1  0  0  0  0
M  END
>  <CHROM.1>
169.33376701,74.47457550,63.88157402,179.67511662,91.56907900,-177.37405013
-66.60463274,89.78597862,61.83898292,69.02415681,0.29366729,-10.63157160
16.01475817,3.09522566,0.23279561,1.08862757

>  <Name>
2g5q_lig

>  <RI>
9.52566e+06

>  <Rbt.Current_Directory>
/home/itssahil/PROJECTS/Mol_Feturizer/New_Systems/rnas/2g5q

>  <Rbt.Executable>
rbdock ($Id: //depot/dev/client3/rdock/2013.1/src/exe/rbdock.cxx#4 $)

>  <Rbt.Library>
libRbt.so (2013.1, Build901 2013/11/27)

>  <Rbt.Parameter_File>
/export/apps/rDock/src/rDock_2013.1_src/data/scripts/dock_solv.prm

>  <Rbt.Receptor>
prm/pocket_docking_4.prm

>  <SCORE>
-20.05

>  <SCORE.INTER>
-13.9966

>  <SCORE.INTER.CONST>
1

>  <SCORE.INTER.POLAR>
-2.10954

>  <SCORE.INTER.ROT>
10

>  <SCORE.INTER.SOLV>
19.9116

>  <SCORE.INTER.VDW>
-19.2031

>  <SCORE.INTER.norm>
-0.349914

>  <SCORE.INTRA>
-6.05744

>  <SCORE.INTRA.DIHEDRAL>
-15.245

>  <SCORE.INTRA.DIHEDRAL.0>
22.5778

>  <SCORE.INTRA.POLAR>
0

>  <SCORE.INTRA.POLAR.0>
0

>  <SCORE.INTRA.REPUL>
0

>  <SCORE.INTRA.REPUL.0>
0

>  <SCORE.INTRA.SOLV>
3.18965

>  <SCORE.INTRA.SOLV.lig_0>
-102.332

>  <SCORE.INTRA.VDW>
-0.0297678

>  <SCORE.INTRA.VDW.0>
-5.08747

>  <SCORE.INTRA.norm>
-0.151436

>  <SCORE.RESTR>
0.00400033

>  <SCORE.RESTR.CAVITY>
0.00400033

>  <SCORE.RESTR.norm>
0.000100008

>  <SCORE.SYSTEM>
0

>  <SCORE.SYSTEM.CONST>
0

>  <SCORE.SYSTEM.DIHEDRAL>
0

>  <SCORE.SYSTEM.SOLV>
0

>  <SCORE.SYSTEM.norm>
0

>  <SCORE.heavy>
40

>  <SCORE.norm>
-0.50125

>  <RMSD>
8.175

$$$$
2g5q_lig
 OpenBabel11021811433D
libRbt.so/2013.1/901 2013/11/27
 40 42  0  0  0  0  0  0  0  0999 V2000
   -4.3552  -10.2951   17.1857 C   0  0  2  0  0  0  0  0  0  0  0  0
   -3.2848  -10.1221   16.2836 O   0  0  0  0  0  0  0  0  0  0  0  0
   -5.2499  -11.4668   16.6843 C   0  0  1  0  0  0  0  0  0  0  0  0
   -5.9683  -11.1180   15.3442 C   0  0  2  0  0  0  0  0  0  0  0  0
   -6.8425   -9.8606   15.5882 C   0  0  2  0  0  0  0  0  0  0  0  0
   -7.5407   -9.5198   14.3795 O   0  0  0  0  0  0  0  0  0  0  0  0
   -5.8958   -8.6805   16.0519 C   0  0  2  0  0  0  0  0  0  0  0  0
   -5.1784   -9.0627   17.3018 O   0  0  0  0  0  0  0  0  0  0  0  0
   -6.6570   -7.3898   16.3353 C   0  0  0  0  0  0  0  0  0  0  0  0
   -7.4660   -6.9445   15.1567 N   0  0  0  0  0  0  0  0  0  0  0  0
    0.7002   -8.3895   16.7253 C   0  0  2  0  0  0  0  0  0  0  0  0
    2.0674   -8.1702   17.1819 N   0  0  0  0  0  0  0  0  0  0  0  0
   -0.3068   -8.3035   17.9478 C   0  0  0  0  0  0  0  0  0  0  0  0
   -1.7901   -8.5334   17.4564 C   0  0  2  0  0  0  0  0  0  0  0  0
   -2.7253   -8.4391   18.6099 N   0  0  0  0  0  0  0  0  0  0  0  0
   -1.8972   -9.9392   16.7421 C   0  0  2  0  0  0  0  0  0  0  0  0
   -0.8784   -9.9883   15.5352 C   0  0  2  0  0  0  0  0  0  0  0  0
   -0.9726  -11.2642   14.8939 O   0  0  0  0  0  0  0  0  0  0  0  0
    0.5960   -9.7723   16.0493 C   0  0  1  0  0  0  0  0  0  0  0  0
    1.5309   -9.8057   14.9343 O   0  0  0  0  0  0  0  0  0  0  0  0
    2.8556  -10.2689   15.0274 C   0  0  2  0  0  0  0  0  0  0  0  0
    3.5018  -10.1319   13.6073 C   0  0  2  0  0  0  0  0  0  0  0  0
    3.4784   -8.7977   13.2126 O   0  0  0  0  0  0  0  0  0  0  0  0
    2.7632  -11.0437   12.5557 C   0  0  1  0  0  0  0  0  0  0  0  0
    3.3780  -10.9229   11.1926 N   0  0  0  0  0  0  0  0  0  0  0  0
    2.8219  -12.5380   13.0664 C   0  0  2  0  0  0  0  0  0  0  0  0
    2.1717  -13.4171   12.1463 O   0  0  0  0  0  0  0  0  0  0  0  0
    2.1608  -12.6072   14.4844 C   0  0  2  0  0  0  0  0  0  0  0  0
    2.8517  -11.6818   15.4468 O   0  0  0  0  0  0  0  0  0  0  0  0
    2.2063  -13.9961   15.0522 C   0  0  0  0  0  0  0  0  0  0  0  0
    1.3963  -14.9007   14.2838 O   0  0  0  0  0  0  0  0  0  0  0  0
   -4.4072  -12.6610   16.5368 O   0  0  0  0  0  0  0  0  0  0  0  0
   -6.7537  -12.1807   14.9553 O   0  0  0  0  0  0  0  0  0  0  0  0
    5.6237  -10.7604   19.6109 N   0  0  0  0  0  0  0  0  0  0  0  0
    2.6264   -8.7173   18.3283 C   0  0  0  0  0  0  0  0  0  0  0  0
    2.0205   -9.4516   19.1010 O   0  0  0  0  0  0  0  0  0  0  0  0
    4.0962   -8.2834   18.5332 C   0  0  1  0  0  0  0  0  0  0  0  0
    5.0380   -9.2220   17.7521 C   0  0  0  0  0  0  0  0  0  0  0  0
    5.0995  -10.6708   18.2496 C   0  0  0  0  0  0  0  0  0  0  0  0
    4.2511   -6.9149   18.0946 O   0  0  0  0  0  0  0  0  0  0  0  0
  1  2  1  6  0  0  0
  1  3  1  0  0  0  0
  1  8  1  0  0  0  0
  3  4  1  0  0  0  0
  3 32  1  6  0  0  0
  4  5  1  0  0  0  0
  4 33  1  1  0  0  0
  5  6  1  6  0  0  0
  5  7  1  0  0  0  0
  7  8  1  0  0  0  0
  7  9  1  1  0  0  0
  9 10  1  0  0  0  0
 11 12  1  1  0  0  0
 11 13  1  0  0  0  0
 11 19  1  0  0  0  0
 12 35  1  0  0  0  0
 13 14  1  0  0  0  0
 14 15  1  1  0  0  0
 14 16  1  0  0  0  0
 16  2  1  6  0  0  0
 16 17  1  0  0  0  0
 17 18  1  1  0  0  0
 17 19  1  0  0  0  0
 19 20  1  6  0  0  0
 21 20  1  6  0  0  0
 21 22  1  0  0  0  0
 21 29  1  0  0  0  0
 22 23  1  6  0  0  0
 22 24  1  0  0  0  0
 24 25  1  6  0  0  0
 24 26  1  0  0  0  0
 26 27  1  6  0  0  0
 26 28  1  0  0  0  0
 28 29  1  0  0  0  0
 28 30  1  1  0  0  0
 30 31  1  0  0  0  0
 34 39  1  0  0  0  0
 35 36  2  0  0  0  0
 37 35  1  6  0  0  0
 37 38  1  0  0  0  0
 37 40  1  0  0  0  0
 38 39  1  0  0  0  0
M  END
>  <CHROM.1>
-134.66460468,-56.05143651,43.14069792,-68.41178402,91.94851829,179.95406120
-65.93108560,-85.81961787,-66.79473643,-63.03892960,-0.39032735,-10.18729374
15.92025837,-3.08669513,0.05160382,-2.29836371

>  <Name>
2g5q_lig

>  <RI>
0

>  <Rbt.Current_Directory>
/home/itssahil/PROJECTS/Mol_Feturizer/New_Systems/rnas/2g5q

>  <Rbt.Executable>
rbdock ($Id: //depot/dev/client3/rdock/2013.1/src/exe/rbdock.cxx#4 $)

>  <Rbt.Library>
libRbt.so (2013.1, Build901 2013/11/27)

>  <Rbt.Parameter_File>
/export/apps/rDock/src/rDock_2013.1_src/data/scripts/dock_solv.prm

>  <Rbt.Receptor>
prm/pocket_docking_3.prm

>  <SCORE>
-15.5878

>  <SCORE.INTER>
-12.8328

>  <SCORE.INTER.CONST>
1

>  <SCORE.INTER.POLAR>
-2.04526

>  <SCORE.INTER.ROT>
10

>  <SCORE.INTER.SOLV>
14.7655

>  <SCORE.INTER.VDW>
-16.9262

>  <SCORE.INTER.norm>
-0.320821

>  <SCORE.INTRA>
-2.77336

>  <SCORE.INTRA.DIHEDRAL>
-10.0473

>  <SCORE.INTRA.DIHEDRAL.0>
22.5778

>  <SCORE.INTRA.POLAR>
0

>  <SCORE.INTRA.POLAR.0>
0

>  <SCORE.INTRA.REPUL>
0

>  <SCORE.INTRA.REPUL.0>
0

>  <SCORE.INTRA.SOLV>
3.9199

>  <SCORE.INTRA.SOLV.lig_0>
-102.332

>  <SCORE.INTRA.VDW>
0.290365

>  <SCORE.INTRA.VDW.0>
-5.08747

>  <SCORE.INTRA.norm>
-0.069334

>  <SCORE.RESTR>
0.0183558

>  <SCORE.RESTR.CAVITY>
0.0183558

>  <SCORE.RESTR.norm>
0.000458895

>  <SCORE.SYSTEM>
0

>  <SCORE.SYSTEM.CONST>
0

>  <SCORE.SYSTEM.DIHEDRAL>
0

>  <SCORE.SYSTEM.SOLV>
0

>  <SCORE.SYSTEM.norm>
0

>  <SCORE.heavy>
40

>  <SCORE.norm>
-0.389696

>  <RMSD>
8.194

$$$$
2g5q_lig
 OpenBabel11021811433D
libRbt.so/2013.1/901 2013/11/27
 40 42  0  0  0  0  0  0  0  0999 V2000
   -3.6785  -10.2952   17.1945 C   0  0  2  0  0  0  0  0  0  0  0  0
   -2.6958  -10.1312   16.1960 O   0  0  0  0  0  0  0  0  0  0  0  0
   -4.6461  -11.4367   16.7640 C   0  0  1  0  0  0  0  0  0  0  0  0
   -5.4811  -11.0477   15.5050 C   0  0  2  0  0  0  0  0  0  0  0  0
   -6.2964   -9.7748   15.8515 C   0  0  2  0  0  0  0  0  0  0  0  0
   -7.0989   -9.3967   14.7213 O   0  0  0  0  0  0  0  0  0  0  0  0
   -5.2804   -8.6254   16.2397 C   0  0  2  0  0  0  0  0  0  0  0  0
   -4.4559   -9.0462   17.4085 O   0  0  0  0  0  0  0  0  0  0  0  0
   -5.9786   -7.3226   16.6150 C   0  0  0  0  0  0  0  0  0  0  0  0
   -6.8678   -6.8255   15.5177 N   0  0  0  0  0  0  0  0  0  0  0  0
    1.2806   -8.3327   16.3734 C   0  0  2  0  0  0  0  0  0  0  0  0
    2.6839   -8.1153   16.7035 N   0  0  0  0  0  0  0  0  0  0  0  0
    0.4066   -8.3792   17.6962 C   0  0  0  0  0  0  0  0  0  0  0  0
   -1.1157   -8.6074   17.3427 C   0  0  2  0  0  0  0  0  0  0  0  0
   -1.9256   -8.6378   18.5906 N   0  0  0  0  0  0  0  0  0  0  0  0
   -1.2712   -9.9496   16.5228 C   0  0  2  0  0  0  0  0  0  0  0  0
   -0.3847   -9.8675   15.2174 C   0  0  2  0  0  0  0  0  0  0  0  0
   -0.5221  -11.0862   14.4799 O   0  0  0  0  0  0  0  0  0  0  0  0
    1.1315   -9.6552   15.5931 C   0  0  1  0  0  0  0  0  0  0  0  0
    1.9440   -9.5676   14.3888 O   0  0  0  0  0  0  0  0  0  0  0  0
    3.1997  -10.1825   14.2363 C   0  0  2  0  0  0  0  0  0  0  0  0
    3.8602   -9.5876   12.9467 C   0  0  2  0  0  0  0  0  0  0  0  0
    4.0057   -8.2113   13.0916 O   0  0  0  0  0  0  0  0  0  0  0  0
    3.0143   -9.9328   11.6630 C   0  0  1  0  0  0  0  0  0  0  0  0
    3.6415   -9.3710   10.4215 N   0  0  0  0  0  0  0  0  0  0  0  0
    2.8834  -11.5045   11.5627 C   0  0  2  0  0  0  0  0  0  0  0  0
    2.1291  -11.8806   10.4087 O   0  0  0  0  0  0  0  0  0  0  0  0
    2.2166  -12.0347   12.8768 C   0  0  2  0  0  0  0  0  0  0  0  0
    3.0171  -11.6372   14.0855 O   0  0  0  0  0  0  0  0  0  0  0  0
    2.0859  -13.5302   12.8699 C   0  0  0  0  0  0  0  0  0  0  0  0
    1.2713  -13.9877   13.9618 O   0  0  0  0  0  0  0  0  0  0  0  0
   -3.8513  -12.6474   16.5174 O   0  0  0  0  0  0  0  0  0  0  0  0
   -6.3264  -12.0849   15.1775 O   0  0  0  0  0  0  0  0  0  0  0  0
    4.5478   -7.4220   21.2827 N   0  0  0  0  0  0  0  0  0  0  0  0
    3.5006   -9.0214   17.3656 C   0  0  0  0  0  0  0  0  0  0  0  0
    3.1244  -10.1199   17.7594 O   0  0  0  0  0  0  0  0  0  0  0  0
    4.9361   -8.4839   17.5675 C   0  0  1  0  0  0  0  0  0  0  0  0
    5.0061   -7.6328   18.8516 C   0  0  0  0  0  0  0  0  0  0  0  0
    4.5735   -8.3366   20.1430 C   0  0  0  0  0  0  0  0  0  0  0  0
    5.8535   -9.5989   17.6365 O   0  0  0  0  0  0  0  0  0  0  0  0
  1  2  1  6  0  0  0
  1  3  1  0  0  0  0
  1  8  1  0  0  0  0
  3  4  1  0  0  0  0
  3 32  1  6  0  0  0
  4  5  1  0  0  0  0
  4 33  1  1  0  0  0
  5  6  1  6  0  0  0
  5  7  1  0  0  0  0
  7  8  1  0  0  0  0
  7  9  1  1  0  0  0
  9 10  1  0  0  0  0
 11 12  1  1  0  0  0
 11 13  1  0  0  0  0
 11 19  1  0  0  0  0
 12 35  1  0  0  0  0
 13 14  1  0  0  0  0
 14 15  1  1  0  0  0
 14 16  1  0  0  0  0
 16  2  1  6  0  0  0
 16 17  1  0  0  0  0
 17 18  1  1  0  0  0
 17 19  1  0  0  0  0
 19 20  1  6  0  0  0
 21 20  1  6  0  0  0
 21 22  1  0  0  0  0
 21 29  1  0  0  0  0
 22 23  1  1  0  0  0
 22 24  1  0  0  0  0
 24 25  1  6  0  0  0
 24 26  1  0  0  0  0
 26 27  1  6  0  0  0
 26 28  1  0  0  0  0
 28 29  1  0  0  0  0
 28 30  1  6  0  0  0
 30 31  1  0  0  0  0
 34 39  1  0  0  0  0
 35 36  2  0  0  0  0
 37 35  1  1  0  0  0
 37 38  1  0  0  0  0
 37 40  1  0  0  0  0
 38 39  1  0  0  0  0
M  END
>  <CHROM.1>
-136.47298833,-57.03347001,67.57265356,-62.82669013,102.31353744,-167.73134326
-169.95590979,85.56081961,56.99056917,-174.45906678,0.04511578,-9.87252172
15.61353487,-3.08320072,-0.04473185,-2.04534836

>  <Name>
2g5q_lig

>  <RI>
9.52566e+06

>  <Rbt.Current_Directory>
/home/itssahil/PROJECTS/Mol_Feturizer/New_Systems/rnas/2g5q

>  <Rbt.Executable>
rbdock ($Id: //depot/dev/client3/rdock/2013.1/src/exe/rbdock.cxx#4 $)

>  <Rbt.Library>
libRbt.so (2013.1, Build901 2013/11/27)

>  <Rbt.Parameter_File>
/export/apps/rDock/src/rDock_2013.1_src/data/scripts/dock_solv.prm

>  <Rbt.Receptor>
prm/pocket_docking_4.prm

>  <SCORE>
-17.9696

>  <SCORE.INTER>
-15.472

>  <SCORE.INTER.CONST>
1

>  <SCORE.INTER.POLAR>
-1.16806

>  <SCORE.INTER.ROT>
10

>  <SCORE.INTER.SOLV>
21.083

>  <SCORE.INTER.VDW>
-23.7155

>  <SCORE.INTER.norm>
-0.3868

>  <SCORE.INTRA>
-2.49764

>  <SCORE.INTRA.DIHEDRAL>
-8.05996

>  <SCORE.INTRA.DIHEDRAL.0>
22.5778

>  <SCORE.INTRA.POLAR>
0

>  <SCORE.INTRA.POLAR.0>
0

>  <SCORE.INTRA.REPUL>
0

>  <SCORE.INTRA.REPUL.0>
0

>  <SCORE.INTRA.SOLV>
2.73785

>  <SCORE.INTRA.SOLV.lig_0>
-102.332

>  <SCORE.INTRA.VDW>
0.163419

>  <SCORE.INTRA.VDW.0>
-5.08747

>  <SCORE.INTRA.norm>
-0.0624409

>  <SCORE.RESTR>
0

>  <SCORE.RESTR.CAVITY>
0

>  <SCORE.RESTR.norm>
0

>  <SCORE.SYSTEM>
0

>  <SCORE.SYSTEM.CONST>
0

>  <SCORE.SYSTEM.DIHEDRAL>
0

>  <SCORE.SYSTEM.SOLV>
0

>  <SCORE.SYSTEM.norm>
0

>  <SCORE.heavy>
40

>  <SCORE.norm>
-0.449241

>  <RMSD>
8.194

$$$$
2g5q_lig
 OpenBabel11021811433D
libRbt.so/2013.1/901 2013/11/27
 40 42  0  0  0  0  0  0  0  0999 V2000
   -4.1135  -10.3938   17.1432 C   0  0  2  0  0  0  0  0  0  0  0  0
   -3.1032  -10.3191   16.1618 O   0  0  0  0  0  0  0  0  0  0  0  0
   -5.1436  -11.4827   16.7214 C   0  0  1  0  0  0  0  0  0  0  0  0
   -5.9276  -11.0750   15.4358 C   0  0  2  0  0  0  0  0  0  0  0  0
   -6.6663   -9.7442   15.7328 C   0  0  2  0  0  0  0  0  0  0  0  0
   -7.4209   -9.3460   14.5768 O   0  0  0  0  0  0  0  0  0  0  0  0
   -5.5865   -8.6517   16.1132 C   0  0  2  0  0  0  0  0  0  0  0  0
   -4.8134   -9.0928   17.3092 O   0  0  0  0  0  0  0  0  0  0  0  0
   -6.2070   -7.2977   16.4407 C   0  0  0  0  0  0  0  0  0  0  0  0
   -7.2329   -7.3978   17.5267 N   0  0  0  0  0  0  0  0  0  0  0  0
    0.8165   -8.3932   16.2218 C   0  0  2  0  0  0  0  0  0  0  0  0
    2.2013   -8.0912   16.5640 N   0  0  0  0  0  0  0  0  0  0  0  0
   -0.1022   -8.2894   17.5106 C   0  0  0  0  0  0  0  0  0  0  0  0
   -1.6047   -8.6088   17.1429 C   0  0  2  0  0  0  0  0  0  0  0  0
   -2.4572   -8.4972   18.3573 N   0  0  0  0  0  0  0  0  0  0  0  0
   -1.6963  -10.0524   16.5061 C   0  0  2  0  0  0  0  0  0  0  0  0
   -0.7665  -10.1181   15.2302 C   0  0  2  0  0  0  0  0  0  0  0  0
   -0.8462  -11.4279   14.6590 O   0  0  0  0  0  0  0  0  0  0  0  0
    0.7294   -9.8118   15.6219 C   0  0  1  0  0  0  0  0  0  0  0  0
    1.5815   -9.8608   14.4430 O   0  0  0  0  0  0  0  0  0  0  0  0
    2.8891  -10.3788   14.4342 C   0  0  2  0  0  0  0  0  0  0  0  0
    3.5104  -10.0613   13.0319 C   0  0  2  0  0  0  0  0  0  0  0  0
    3.5301   -8.6841   12.8332 O   0  0  0  0  0  0  0  0  0  0  0  0
    2.7155  -10.7854   11.8801 C   0  0  1  0  0  0  0  0  0  0  0  0
    3.3060  -10.4910   10.5329 N   0  0  0  0  0  0  0  0  0  0  0  0
    2.7272  -12.3389   12.1697 C   0  0  2  0  0  0  0  0  0  0  0  0
    2.0247  -13.0528   11.1504 O   0  0  0  0  0  0  0  0  0  0  0  0
    2.0936  -12.5885   13.5800 C   0  0  2  0  0  0  0  0  0  0  0  0
    2.8395  -11.8364   14.6466 O   0  0  0  0  0  0  0  0  0  0  0  0
    2.0974  -14.0455   13.9415 C   0  0  0  0  0  0  0  0  0  0  0  0
    1.1902  -14.7910   13.1132 O   0  0  0  0  0  0  0  0  0  0  0  0
   -4.4234  -12.7475   16.5222 O   0  0  0  0  0  0  0  0  0  0  0  0
   -6.8310  -12.0648   15.1169 O   0  0  0  0  0  0  0  0  0  0  0  0
    4.2175   -5.5604   19.2776 N   0  0  0  0  0  0  0  0  0  0  0  0
    2.9533   -8.7576   17.5214 C   0  0  0  0  0  0  0  0  0  0  0  0
    2.5274   -9.6844   18.2019 O   0  0  0  0  0  0  0  0  0  0  0  0
    4.3857   -8.1895   17.6473 C   0  0  1  0  0  0  0  0  0  0  0  0
    4.7435   -7.9826   19.1330 C   0  0  0  0  0  0  0  0  0  0  0  0
    3.9670   -6.8777   19.8588 C   0  0  0  0  0  0  0  0  0  0  0  0
    5.3132   -9.1000   17.0149 O   0  0  0  0  0  0  0  0  0  0  0  0
  1  2  1  6  0  0  0
  1  3  1  0  0  0  0
  1  8  1  0  0  0  0
  3  4  1  0  0  0  0
  3 32  1  6  0  0  0
  4  5  1  0  0  0  0
  4 33  1  1  0  0  0
  5  6  1  6  0  0  0
  5  7  1  0  0  0  0
  7  8  1  0  0  0  0
  7  9  1  1  0  0  0
  9 10  1  0  0  0  0
 11 12  1  1  0  0  0
 11 13  1  0  0  0  0
 11 19  1  0  0  0  0
 12 35  1  0  0  0  0
 13 14  1  0  0  0  0
 14 15  1  1  0  0  0
 14 16  1  0  0  0  0
 16  2  1  6  0  0  0
 16 17  1  0  0  0  0
 17 18  1  1  0  0  0
 17 19  1  0  0  0  0
 19 20  1  6  0  0  0
 21 20  1  6  0  0  0
 21 22  1  0  0  0  0
 21 29  1  0  0  0  0
 22 23  1  6  0  0  0
 22 24  1  0  0  0  0
 24 25  1  6  0  0  0
 24 26  1  0  0  0  0
 26 27  1  6  0  0  0
 26 28  1  0  0  0  0
 28 29  1  0  0  0  0
 28 30  1  1  0  0  0
 30 31  1  0  0  0  0
 34 39  1  0  0  0  0
 35 36  2  0  0  0  0
 37 35  1  1  0  0  0
 37 38  1  0  0  0  0
 37 40  1  0  0  0  0
 38 39  1  0  0  0  0
M  END
>  <CHROM.1>
-144.22077229,55.46910022,57.22719140,-63.58680654,98.25308319,-172.34343691
-68.61993422,133.25931437,-68.13591673,-62.49643556,-0.32955830,-9.99159722
15.65207597,-3.05726361,-0.07030524,-2.28603002

>  <Name>
2g5q_lig

>  <RI>
9.52566e+06

>  <Rbt.Current_Directory>
/home/itssahil/PROJECTS/Mol_Feturizer/New_Systems/rnas/2g5q

>  <Rbt.Executable>
rbdock ($Id: //depot/dev/client3/rdock/2013.1/src/exe/rbdock.cxx#4 $)

>  <Rbt.Library>
libRbt.so (2013.1, Build901 2013/11/27)

>  <Rbt.Parameter_File>
/export/apps/rDock/src/rDock_2013.1_src/data/scripts/dock_solv.prm

>  <Rbt.Receptor>
prm/pocket_docking_4.prm

>  <SCORE>
-19.6976

>  <SCORE.INTER>
-17.2208

>  <SCORE.INTER.CONST>
1

>  <SCORE.INTER.POLAR>
-2.17502

>  <SCORE.INTER.ROT>
10

>  <SCORE.INTER.SOLV>
23.7373

>  <SCORE.INTER.VDW>
-22.4095

>  <SCORE.INTER.norm>
-0.430519

>  <SCORE.INTRA>
-2.47683

>  <SCORE.INTRA.DIHEDRAL>
-9.60542

>  <SCORE.INTRA.DIHEDRAL.0>
22.5778

>  <SCORE.INTRA.POLAR>
0

>  <SCORE.INTRA.POLAR.0>
0

>  <SCORE.INTRA.REPUL>
0

>  <SCORE.INTRA.REPUL.0>
0

>  <SCORE.INTRA.SOLV>
4.27527

>  <SCORE.INTRA.SOLV.lig_0>
-102.332

>  <SCORE.INTRA.VDW>
0.188241

>  <SCORE.INTRA.VDW.0>
-5.08747

>  <SCORE.INTRA.norm>
-0.0619208

>  <SCORE.RESTR>
0

>  <SCORE.RESTR.CAVITY>
0

>  <SCORE.RESTR.norm>
0

>  <SCORE.SYSTEM>
0

>  <SCORE.SYSTEM.CONST>
0

>  <SCORE.SYSTEM.DIHEDRAL>
0

>  <SCORE.SYSTEM.SOLV>
0

>  <SCORE.SYSTEM.norm>
0

>  <SCORE.heavy>
40

>  <SCORE.norm>
-0.49244

>  <RMSD>
8.197

$$$$
2g5q_lig
 OpenBabel11021811433D
libRbt.so/2013.1/901 2013/11/27
 40 42  0  0  0  0  0  0  0  0999 V2000
   -5.0105   -8.8534   17.8569 C   0  0  2  0  0  0  0  0  0  0  0  0
   -3.6540   -8.8524   18.2436 O   0  0  0  0  0  0  0  0  0  0  0  0
   -5.8443   -8.1205   18.9490 C   0  0  1  0  0  0  0  0  0  0  0  0
   -5.8588   -8.9077   20.2958 C   0  0  2  0  0  0  0  0  0  0  0  0
   -6.4714  -10.3057   20.0213 C   0  0  2  0  0  0  0  0  0  0  0  0
   -6.5236  -11.0554   21.2459 O   0  0  0  0  0  0  0  0  0  0  0  0
   -5.5742  -11.0373   18.9425 C   0  0  2  0  0  0  0  0  0  0  0  0
   -5.5306  -10.2356   17.6863 O   0  0  0  0  0  0  0  0  0  0  0  0
   -6.0957  -12.4249   18.5843 C   0  0  0  0  0  0  0  0  0  0  0  0
   -5.1273  -13.1866   17.7336 N   0  0  0  0  0  0  0  0  0  0  0  0
   -0.1371  -10.1675   16.0121 C   0  0  2  0  0  0  0  0  0  0  0  0
    0.9400  -10.2061   15.0303 N   0  0  0  0  0  0  0  0  0  0  0  0
   -1.5452  -10.1665   15.2819 C   0  0  0  0  0  0  0  0  0  0  0  0
   -2.7153  -10.1320   16.3422 C   0  0  2  0  0  0  0  0  0  0  0  0
   -4.0299  -10.1426   15.6452 N   0  0  0  0  0  0  0  0  0  0  0  0
   -2.5597   -8.8532   17.2579 C   0  0  2  0  0  0  0  0  0  0  0  0
   -1.1463   -8.8874   17.9635 C   0  0  2  0  0  0  0  0  0  0  0  0
   -1.0051   -7.7255   18.7870 O   0  0  0  0  0  0  0  0  0  0  0  0
    0.0063   -8.9058   16.8882 C   0  0  1  0  0  0  0  0  0  0  0  0
    1.3066   -8.9498   17.5407 O   0  0  0  0  0  0  0  0  0  0  0  0
    1.9067   -7.8509   18.1813 C   0  0  2  0  0  0  0  0  0  0  0  0
    3.3594   -7.7117   17.6124 C   0  0  2  0  0  0  0  0  0  0  0  0
    3.3023   -7.5032   16.2377 O   0  0  0  0  0  0  0  0  0  0  0  0
    4.2284   -8.9808   17.9541 C   0  0  1  0  0  0  0  0  0  0  0  0
    5.6235   -8.8551   17.4171 N   0  0  0  0  0  0  0  0  0  0  0  0
    4.2464   -9.1620   19.5238 C   0  0  2  0  0  0  0  0  0  0  0  0
    5.0289  -10.2982   19.8970 O   0  0  0  0  0  0  0  0  0  0  0  0
    2.7698   -9.2969   20.0278 C   0  0  2  0  0  0  0  0  0  0  0  0
    1.9543   -8.0972   19.6336 O   0  0  0  0  0  0  0  0  0  0  0  0
    2.7025   -9.4419   21.5204 C   0  0  0  0  0  0  0  0  0  0  0  0
    3.2267   -8.2788   22.1818 O   0  0  0  0  0  0  0  0  0  0  0  0
   -5.2860   -6.7738   19.1301 O   0  0  0  0  0  0  0  0  0  0  0  0
   -6.6189   -8.2231   21.2183 O   0  0  0  0  0  0  0  0  0  0  0  0
    3.4864  -13.6948   12.4127 N   0  0  0  0  0  0  0  0  0  0  0  0
    1.1293  -11.2072   14.0879 C   0  0  0  0  0  0  0  0  0  0  0  0
    0.4043  -12.1900   13.9796 O   0  0  0  0  0  0  0  0  0  0  0  0
    2.3686  -10.9542   13.1988 C   0  0  1  0  0  0  0  0  0  0  0  0
    2.1935  -11.6549   11.8363 C   0  0  0  0  0  0  0  0  0  0  0  0
    2.2303  -13.1873   11.8645 C   0  0  0  0  0  0  0  0  0  0  0  0
    2.5454   -9.5298   13.0279 O   0  0  0  0  0  0  0  0  0  0  0  0
  1  2  1  1  0  0  0
  1  3  1  0  0  0  0
  1  8  1  0  0  0  0
  3  4  1  0  0  0  0
  3 32  1  1  0  0  0
  4  5  1  0  0  0  0
  4 33  1  1  0  0  0
  5  6  1  1  0  0  0
  5  7  1  0  0  0  0
  7  8  1  0  0  0  0
  7  9  1  6  0  0  0
  9 10  1  0  0  0  0
 11 12  1  6  0  0  0
 11 13  1  0  0  0  0
 11 19  1  0  0  0  0
 12 35  1  0  0  0  0
 13 14  1  0  0  0  0
 14 15  1  6  0  0  0
 14 16  1  0  0  0  0
 16  2  1  1  0  0  0
 16 17  1  0  0  0  0
 17 18  1  1  0  0  0
 17 19  1  0  0  0  0
 19 20  1  1  0  0  0
 21 20  1  6  0  0  0
 21 22  1  0  0  0  0
 21 29  1  0  0  0  0
 22 23  1  6  0  0  0
 22 24  1  0  0  0  0
 24 25  1  1  0  0  0
 24 26  1  0  0  0  0
 26 27  1  6  0  0  0
 26 28  1  0  0  0  0
 28 29  1  0  0  0  0
 28 30  1  1  0  0  0
 30 31  1  0  0  0  0
 34 39  1  0  0  0  0
 35 36  2  0  0  0  0
 37 35  1  1  0  0  0
 37 38  1  0  0  0  0
 37 40  1  0  0  0  0
 38 39  1  0  0  0  0
M  END
>  <CHROM.1>
-150.22890713,-170.95244710,-59.34929594,-58.40705342,165.74214910,-128.81216023
62.46295839,-154.14919906,-68.92718948,-58.65271014,-0.64852904,-9.72735692
17.47139030,2.81042048,0.11960790,1.12571477

>  <Name>
2g5q_lig

>  <RI>
2.47104e+07

>  <Rbt.Current_Directory>
/home/itssahil/PROJECTS/Mol_Feturizer/New_Systems/rnas/2g5q

>  <Rbt.Executable>
rbdock ($Id: //depot/dev/client3/rdock/2013.1/src/exe/rbdock.cxx#4 $)

>  <Rbt.Library>
libRbt.so (2013.1, Build901 2013/11/27)

>  <Rbt.Parameter_File>
/export/apps/rDock/src/rDock_2013.1_src/data/scripts/dock_solv.prm

>  <Rbt.Receptor>
prm/pocket_docking_7.prm

>  <SCORE>
-10.4975

>  <SCORE.INTER>
-10.045

>  <SCORE.INTER.CONST>
1

>  <SCORE.INTER.POLAR>
-1.35083

>  <SCORE.INTER.ROT>
10

>  <SCORE.INTER.SOLV>
15.0384

>  <SCORE.INTER.VDW>
-17.4734

>  <SCORE.INTER.norm>
-0.251126

>  <SCORE.INTRA>
-0.452428

>  <SCORE.INTRA.DIHEDRAL>
-9.14933

>  <SCORE.INTRA.DIHEDRAL.0>
22.5778

>  <SCORE.INTRA.POLAR>
0

>  <SCORE.INTRA.POLAR.0>
0

>  <SCORE.INTRA.REPUL>
0

>  <SCORE.INTRA.REPUL.0>
0

>  <SCORE.INTRA.SOLV>
3.94369

>  <SCORE.INTRA.SOLV.lig_0>
-102.332

>  <SCORE.INTRA.VDW>
2.1504

>  <SCORE.INTRA.VDW.0>
-5.08747

>  <SCORE.INTRA.norm>
-0.0113107

>  <SCORE.RESTR>
0

>  <SCORE.RESTR.CAVITY>
0

>  <SCORE.RESTR.norm>
0

>  <SCORE.SYSTEM>
0

>  <SCORE.SYSTEM.CONST>
0

>  <SCORE.SYSTEM.DIHEDRAL>
0

>  <SCORE.SYSTEM.SOLV>
0

>  <SCORE.SYSTEM.norm>
0

>  <SCORE.heavy>
40

>  <SCORE.norm>
-0.262437

>  <RMSD>
8.197

$$$$
2g5q_lig
 OpenBabel11021811433D
libRbt.so/2013.1/901 2013/11/27
 40 42  0  0  0  0  0  0  0  0999 V2000
   -3.7499  -11.3795   15.8040 C   0  0  2  0  0  0  0  0  0  0  0  0
   -3.2157  -10.2910   16.5247 O   0  0  0  0  0  0  0  0  0  0  0  0
   -5.2980  -11.2263   15.7374 C   0  0  1  0  0  0  0  0  0  0  0  0
   -5.9583  -11.3734   17.1431 C   0  0  2  0  0  0  0  0  0  0  0  0
   -5.5955  -12.7774   17.6928 C   0  0  2  0  0  0  0  0  0  0  0  0
   -6.2061  -12.9610   18.9803 O   0  0  0  0  0  0  0  0  0  0  0  0
   -4.0193  -12.8804   17.7891 C   0  0  2  0  0  0  0  0  0  0  0  0
   -3.4114  -12.6785   16.4428 O   0  0  0  0  0  0  0  0  0  0  0  0
   -3.5471  -14.2342   18.3084 C   0  0  0  0  0  0  0  0  0  0  0  0
   -4.0016  -14.4870   19.7124 N   0  0  0  0  0  0  0  0  0  0  0  0
    0.8699   -8.7515   16.4017 C   0  0  2  0  0  0  0  0  0  0  0  0
    2.2928   -8.5892   16.6748 N   0  0  0  0  0  0  0  0  0  0  0  0
    0.0319   -8.5801   17.7375 C   0  0  0  0  0  0  0  0  0  0  0  0
   -1.5111   -8.7480   17.4449 C   0  0  2  0  0  0  0  0  0  0  0  0
   -2.2862   -8.5741   18.7031 N   0  0  0  0  0  0  0  0  0  0  0  0
   -1.7740  -10.1661   16.7984 C   0  0  2  0  0  0  0  0  0  0  0  0
   -0.9207  -10.3008   15.4753 C   0  0  2  0  0  0  0  0  0  0  0  0
   -1.1554  -11.5878   14.8951 O   0  0  0  0  0  0  0  0  0  0  0  0
    0.6157  -10.1456   15.7920 C   0  0  1  0  0  0  0  0  0  0  0  0
    1.3983  -10.2579   14.5700 O   0  0  0  0  0  0  0  0  0  0  0  0
    2.7554  -10.6254   14.5318 C   0  0  2  0  0  0  0  0  0  0  0  0
    3.2533  -10.4301   13.0596 C   0  0  2  0  0  0  0  0  0  0  0  0
    3.0984   -9.0977   12.6894 O   0  0  0  0  0  0  0  0  0  0  0  0
    2.4851  -11.3835   12.0679 C   0  0  1  0  0  0  0  0  0  0  0  0
    2.9583  -11.2071   10.6553 N   0  0  0  0  0  0  0  0  0  0  0  0
    2.6972  -12.8741   12.5479 C   0  0  2  0  0  0  0  0  0  0  0  0
    2.0270  -13.7897   11.6793 O   0  0  0  0  0  0  0  0  0  0  0  0
    2.1795  -13.0028   14.0203 C   0  0  2  0  0  0  0  0  0  0  0  0
    2.8910  -12.0385   14.9279 O   0  0  0  0  0  0  0  0  0  0  0  0
    2.3766  -14.3897   14.5600 C   0  0  0  0  0  0  0  0  0  0  0  0
    3.7719  -14.7213   14.6495 O   0  0  0  0  0  0  0  0  0  0  0  0
   -5.6076   -9.9193   15.1424 O   0  0  0  0  0  0  0  0  0  0  0  0
   -7.3243  -11.2429   17.0236 O   0  0  0  0  0  0  0  0  0  0  0  0
    3.2259   -8.5830   20.4349 N   0  0  0  0  0  0  0  0  0  0  0  0
    3.0326   -9.3647   17.5566 C   0  0  0  0  0  0  0  0  0  0  0  0
    2.5624  -10.2822   18.2203 O   0  0  0  0  0  0  0  0  0  0  0  0
    4.5153   -8.9313   17.6227 C   0  0  1  0  0  0  0  0  0  0  0  0
    4.6775   -7.7502   18.6008 C   0  0  0  0  0  0  0  0  0  0  0  0
    4.5599   -8.0958   20.0898 C   0  0  0  0  0  0  0  0  0  0  0  0
    5.3198  -10.0586   18.0366 O   0  0  0  0  0  0  0  0  0  0  0  0
  1  2  1  1  0  0  0
  1  3  1  0  0  0  0
  1  8  1  0  0  0  0
  3  4  1  0  0  0  0
  3 32  1  1  0  0  0
  4  5  1  0  0  0  0
  4 33  1  6  0  0  0
  5  6  1  1  0  0  0
  5  7  1  0  0  0  0
  7  8  1  0  0  0  0
  7  9  1  6  0  0  0
  9 10  1  0  0  0  0
 11 12  1  1  0  0  0
 11 13  1  0  0  0  0
 11 19  1  0  0  0  0
 12 35  1  0  0  0  0
 13 14  1  0  0  0  0
 14 15  1  1  0  0  0
 14 16  1  0  0  0  0
 16  2  1  6  0  0  0
 16 17  1  0  0  0  0
 17 18  1  1  0  0  0
 17 19  1  0  0  0  0
 19 20  1  6  0  0  0
 21 20  1  6  0  0  0
 21 22  1  0  0  0  0
 21 29  1  0  0  0  0
 22 23  1  6  0  0  0
 22 24  1  0  0  0  0
 24 25  1  6  0  0  0
 24 26  1  0  0  0  0
 26 27  1  6  0  0  0
 26 28  1  0  0  0  0
 28 29  1  0  0  0  0
 28 30  1  1  0  0  0
 30 31  1  0  0  0  0
 34 39  1  0  0  0  0
 35 36  2  0  0  0  0
 37 35  1  1  0  0  0
 37 38  1  0  0  0  0
 37 40  1  0  0  0  0
 38 39  1  0  0  0  0
M  END
>  <CHROM.1>
178.12480550,-63.64136594,59.17091762,172.40033773,83.58057800,-172.27420432
64.10075832,83.41097564,73.19901285,-64.09565155,-0.06338855,-10.97343753
16.15680083,3.03786250,0.25204834,1.02159350

>  <Name>
2g5q_lig

>  <RI>
2.90231e+07

>  <Rbt.Current_Directory>
/home/itssahil/PROJECTS/Mol_Feturizer/New_Systems/rnas/2g5q

>  <Rbt.Executable>
rbdock ($Id: //depot/dev/client3/rdock/2013.1/src/exe/rbdock.cxx#4 $)

>  <Rbt.Library>
libRbt.so (2013.1, Build901 2013/11/27)

>  <Rbt.Parameter_File>
/export/apps/rDock/src/rDock_2013.1_src/data/scripts/dock_solv.prm

>  <Rbt.Receptor>
prm/pocket_docking_6.prm

>  <SCORE>
-20.0065

>  <SCORE.INTER>
-13.8588

>  <SCORE.INTER.CONST>
1

>  <SCORE.INTER.POLAR>
-1.80882

>  <SCORE.INTER.ROT>
10

>  <SCORE.INTER.SOLV>
13.1977

>  <SCORE.INTER.VDW>
-17.8757

>  <SCORE.INTER.norm>
-0.346471

>  <SCORE.INTRA>
-6.14771

>  <SCORE.INTRA.DIHEDRAL>
-17.4296

>  <SCORE.INTRA.DIHEDRAL.0>
22.5778

>  <SCORE.INTRA.POLAR>
0

>  <SCORE.INTRA.POLAR.0>
0

>  <SCORE.INTRA.REPUL>
0

>  <SCORE.INTRA.REPUL.0>
0

>  <SCORE.INTRA.SOLV>
4.49164

>  <SCORE.INTRA.SOLV.lig_0>
-102.332

>  <SCORE.INTRA.VDW>
0.321251

>  <SCORE.INTRA.VDW.0>
-5.08747

>  <SCORE.INTRA.norm>
-0.153693

>  <SCORE.RESTR>
0

>  <SCORE.RESTR.CAVITY>
0

>  <SCORE.RESTR.norm>
0

>  <SCORE.SYSTEM>
0

>  <SCORE.SYSTEM.CONST>
0

>  <SCORE.SYSTEM.DIHEDRAL>
0

>  <SCORE.SYSTEM.SOLV>
0

>  <SCORE.SYSTEM.norm>
0

>  <SCORE.heavy>
40

>  <SCORE.norm>
-0.500163

>  <RMSD>
8.198

$$$$
2g5q_lig
 OpenBabel11021811433D
libRbt.so/2013.1/901 2013/11/27
 40 42  0  0  0  0  0  0  0  0999 V2000
   -4.6100  -10.0494   18.6131 C   0  0  2  0  0  0  0  0  0  0  0  0
   -3.7122  -11.1201   18.4206 O   0  0  0  0  0  0  0  0  0  0  0  0
   -5.0435  -10.0204   20.1085 C   0  0  1  0  0  0  0  0  0  0  0  0
   -5.8947  -11.2703   20.4918 C   0  0  2  0  0  0  0  0  0  0  0  0
   -7.1517  -11.2845   19.5836 C   0  0  2  0  0  0  0  0  0  0  0  0
   -7.9757  -12.4117   19.9226 O   0  0  0  0  0  0  0  0  0  0  0  0
   -6.6743  -11.3597   18.0768 C   0  0  2  0  0  0  0  0  0  0  0  0
   -5.8158  -10.1842   17.7541 O   0  0  0  0  0  0  0  0  0  0  0  0
   -7.8363  -11.3651   17.0892 C   0  0  0  0  0  0  0  0  0  0  0  0
   -8.7079  -12.5713   17.2540 N   0  0  0  0  0  0  0  0  0  0  0  0
   -1.1187  -12.1695   15.0665 C   0  0  2  0  0  0  0  0  0  0  0  0
   -0.0494  -12.1105   14.0771 N   0  0  0  0  0  0  0  0  0  0  0  0
   -2.0614  -10.9010   14.9318 C   0  0  0  0  0  0  0  0  0  0  0  0
   -3.2255  -10.9644   15.9973 C   0  0  2  0  0  0  0  0  0  0  0  0
   -4.1084   -9.7754   15.8531 N   0  0  0  0  0  0  0  0  0  0  0  0
   -2.6073  -11.0495   17.4494 C   0  0  2  0  0  0  0  0  0  0  0  0
   -1.6730  -12.3204   17.5434 C   0  0  2  0  0  0  0  0  0  0  0  0
   -1.1095  -12.3918   18.8569 O   0  0  0  0  0  0  0  0  0  0  0  0
   -0.5102  -12.2294   16.4829 C   0  0  1  0  0  0  0  0  0  0  0  0
    0.3415  -13.4068   16.5633 O   0  0  0  0  0  0  0  0  0  0  0  0
    1.5836  -13.5294   15.9149 C   0  0  2  0  0  0  0  0  0  0  0  0
    2.1228  -14.9716   16.2022 C   0  0  2  0  0  0  0  0  0  0  0  0
    1.2216  -15.9113   15.7111 O   0  0  0  0  0  0  0  0  0  0  0  0
    2.3787  -15.1873   17.7419 C   0  0  1  0  0  0  0  0  0  0  0  0
    2.8999  -16.5647   18.0269 N   0  0  0  0  0  0  0  0  0  0  0  0
    3.4020  -14.0880   18.2338 C   0  0  2  0  0  0  0  0  0  0  0  0
    3.6801  -14.2377   19.6275 O   0  0  0  0  0  0  0  0  0  0  0  0
    2.8050  -12.6745   17.9206 C   0  0  2  0  0  0  0  0  0  0  0  0
    2.5176  -12.5242   16.4527 O   0  0  0  0  0  0  0  0  0  0  0  0
    3.7379  -11.5729   18.3327 C   0  0  0  0  0  0  0  0  0  0  0  0
    4.9932  -11.6657   17.6395 O   0  0  0  0  0  0  0  0  0  0  0  0
   -3.8346   -9.9299   20.9382 O   0  0  0  0  0  0  0  0  0  0  0  0
   -6.2608  -11.1863   21.8171 O   0  0  0  0  0  0  0  0  0  0  0  0
    5.2440  -13.1260   12.8828 N   0  0  0  0  0  0  0  0  0  0  0  0
    0.8034  -11.0330   13.8828 C   0  0  0  0  0  0  0  0  0  0  0  0
    0.7465   -9.9912   14.5268 O   0  0  0  0  0  0  0  0  0  0  0  0
    1.8245  -11.2854   12.7496 C   0  0  1  0  0  0  0  0  0  0  0  0
    3.0252  -12.0886   13.2895 C   0  0  0  0  0  0  0  0  0  0  0  0
    4.1614  -12.3420   12.2919 C   0  0  0  0  0  0  0  0  0  0  0  0
    1.1710  -11.9948   11.6731 O   0  0  0  0  0  0  0  0  0  0  0  0
  1  2  1  1  0  0  0
  1  3  1  0  0  0  0
  1  8  1  0  0  0  0
  3  4  1  0  0  0  0
  3 32  1  1  0  0  0
  4  5  1  0  0  0  0
  4 33  1  1  0  0  0
  5  6  1  1  0  0  0
  5  7  1  0  0  0  0
  7  8  1  0  0  0  0
  7  9  1  6  0  0  0
  9 10  1  0  0  0  0
 11 12  1  6  0  0  0
 11 13  1  0  0  0  0
 11 19  1  0  0  0  0
 12 35  1  0  0  0  0
 13 14  1  0  0  0  0
 14 15  1  1  0  0  0
 14 16  1  0  0  0  0
 16  2  1  1  0  0  0
 16 17  1  0  0  0  0
 17 18  1  1  0  0  0
 17 19  1  0  0  0  0
 19 20  1  6  0  0  0
 21 20  1  1  0  0  0
 21 22  1  0  0  0  0
 21 29  1  0  0  0  0
 22 23  1  1  0  0  0
 22 24  1  0  0  0  0
 24 25  1  6  0  0  0
 24 26  1  0  0  0  0
 26 27  1  1  0  0  0
 26 28  1  0  0  0  0
 28 29  1  0  0  0  0
 28 30  1  6  0  0  0
 30 31  1  0  0  0  0
 34 39  1  0  0  0  0
 35 36  2  0  0  0  0
 37 35  1  1  0  0  0
 37 38  1  0  0  0  0
 37 40  1  0  0  0  0
 38 39  1  0  0  0  0
M  END
>  <CHROM.1>
-146.65042890,-63.04945496,52.42967309,-65.63946104,71.64980899,-176.98218702
60.25486153,-83.00130733,-176.50306075,-179.10390437,-1.02771640,-12.12217219
16.93235506,2.84695821,-0.29720424,1.84248602

>  <Name>
2g5q_lig

>  <RI>
2.47104e+07

>  <Rbt.Current_Directory>
/home/itssahil/PROJECTS/Mol_Feturizer/New_Systems/rnas/2g5q

>  <Rbt.Executable>
rbdock ($Id: //depot/dev/client3/rdock/2013.1/src/exe/rbdock.cxx#4 $)

>  <Rbt.Library>
libRbt.so (2013.1, Build901 2013/11/27)

>  <Rbt.Parameter_File>
/export/apps/rDock/src/rDock_2013.1_src/data/scripts/dock_solv.prm

>  <Rbt.Receptor>
prm/pocket_docking_7.prm

>  <SCORE>
-4.51496

>  <SCORE.INTER>
1.65454

>  <SCORE.INTER.CONST>
1

>  <SCORE.INTER.POLAR>
-0.695051

>  <SCORE.INTER.ROT>
10

>  <SCORE.INTER.SOLV>
8.4086

>  <SCORE.INTER.VDW>
-9.64967

>  <SCORE.INTER.norm>
0.0413636

>  <SCORE.INTRA>
-6.1695

>  <SCORE.INTRA.DIHEDRAL>
-16.0482

>  <SCORE.INTRA.DIHEDRAL.0>
22.5778

>  <SCORE.INTRA.POLAR>
0

>  <SCORE.INTRA.POLAR.0>
0

>  <SCORE.INTRA.REPUL>
0

>  <SCORE.INTRA.REPUL.0>
0

>  <SCORE.INTRA.SOLV>
2.91656

>  <SCORE.INTRA.SOLV.lig_0>
-102.332

>  <SCORE.INTRA.VDW>
0.396296

>  <SCORE.INTRA.VDW.0>
-5.08747

>  <SCORE.INTRA.norm>
-0.154238

>  <SCORE.RESTR>
0

>  <SCORE.RESTR.CAVITY>
0

>  <SCORE.RESTR.norm>
0

>  <SCORE.SYSTEM>
0

>  <SCORE.SYSTEM.CONST>
0

>  <SCORE.SYSTEM.DIHEDRAL>
0

>  <SCORE.SYSTEM.SOLV>
0

>  <SCORE.SYSTEM.norm>
0

>  <SCORE.heavy>
40

>  <SCORE.norm>
-0.112874

>  <RMSD>
8.201

$$$$
2g5q_lig
 OpenBabel11021811433D
libRbt.so/2013.1/901 2013/11/27
 40 42  0  0  0  0  0  0  0  0999 V2000
   -3.9426  -11.5727   15.8928 C   0  0  2  0  0  0  0  0  0  0  0  0
   -3.4667  -10.4704   16.6329 O   0  0  0  0  0  0  0  0  0  0  0  0
   -5.4714  -11.3957   15.6554 C   0  0  1  0  0  0  0  0  0  0  0  0
   -6.2810  -11.4856   16.9858 C   0  0  2  0  0  0  0  0  0  0  0  0
   -6.0076  -12.8767   17.6142 C   0  0  2  0  0  0  0  0  0  0  0  0
   -6.7560  -13.0077   18.8337 O   0  0  0  0  0  0  0  0  0  0  0  0
   -4.4532  -13.0030   17.8826 C   0  0  2  0  0  0  0  0  0  0  0  0
   -3.7008  -12.8556   16.6040 O   0  0  0  0  0  0  0  0  0  0  0  0
   -4.0667  -14.3469   18.4911 C   0  0  0  0  0  0  0  0  0  0  0  0
   -2.6047  -14.4215   18.8055 N   0  0  0  0  0  0  0  0  0  0  0  0
    0.6751   -9.1284   16.9824 C   0  0  2  0  0  0  0  0  0  0  0  0
    2.0523   -9.0061   17.4451 N   0  0  0  0  0  0  0  0  0  0  0  0
   -0.3317   -8.8064   18.1651 C   0  0  0  0  0  0  0  0  0  0  0  0
   -1.8250   -8.9307   17.6662 C   0  0  2  0  0  0  0  0  0  0  0  0
   -2.7586   -8.6155   18.7812 N   0  0  0  0  0  0  0  0  0  0  0  0
   -2.0731  -10.3860   17.1018 C   0  0  2  0  0  0  0  0  0  0  0  0
   -1.0510  -10.6711   15.9310 C   0  0  2  0  0  0  0  0  0  0  0  0
   -1.2733  -11.9915   15.4258 O   0  0  0  0  0  0  0  0  0  0  0  0
    0.4318  -10.5571   16.4538 C   0  0  1  0  0  0  0  0  0  0  0  0
    1.3711  -10.8081   15.3706 O   0  0  0  0  0  0  0  0  0  0  0  0
    1.3797  -10.1038   14.1532 C   0  0  2  0  0  0  0  0  0  0  0  0
    1.5424  -11.1553   13.0038 C   0  0  2  0  0  0  0  0  0  0  0  0
    0.4794  -12.0525   13.0406 O   0  0  0  0  0  0  0  0  0  0  0  0
    2.9210  -11.9103   13.1141 C   0  0  1  0  0  0  0  0  0  0  0  0
    3.0883  -12.9168   12.0145 N   0  0  0  0  0  0  0  0  0  0  0  0
    4.0797  -10.8366   13.0721 C   0  0  2  0  0  0  0  0  0  0  0  0
    5.3603  -11.4646   13.1613 O   0  0  0  0  0  0  0  0  0  0  0  0
    3.8610   -9.8200   14.2431 C   0  0  2  0  0  0  0  0  0  0  0  0
    2.5132   -9.1620   14.1407 O   0  0  0  0  0  0  0  0  0  0  0  0
    4.9097   -8.7458   14.2505 C   0  0  0  0  0  0  0  0  0  0  0  0
    6.2222   -9.2994   14.4396 O   0  0  0  0  0  0  0  0  0  0  0  0
   -5.6890  -10.1039   14.9906 O   0  0  0  0  0  0  0  0  0  0  0  0
   -7.6235  -11.3360   16.7161 O   0  0  0  0  0  0  0  0  0  0  0  0
    6.5936  -10.7629   17.1593 N   0  0  0  0  0  0  0  0  0  0  0  0
    2.5986   -7.8802   18.0450 C   0  0  0  0  0  0  0  0  0  0  0  0
    1.9758   -6.8439   18.2489 O   0  0  0  0  0  0  0  0  0  0  0  0
    4.0881   -8.0715   18.4130 C   0  0  1  0  0  0  0  0  0  0  0  0
    4.6942   -9.2208   17.5824 C   0  0  0  0  0  0  0  0  0  0  0  0
    6.1295   -9.6206   17.9438 C   0  0  0  0  0  0  0  0  0  0  0  0
    4.7967   -6.8341   18.1763 O   0  0  0  0  0  0  0  0  0  0  0  0
  1  2  1  1  0  0  0
  1  3  1  0  0  0  0
  1  8  1  0  0  0  0
  3  4  1  0  0  0  0
  3 32  1  1  0  0  0
  4  5  1  0  0  0  0
  4 33  1  6  0  0  0
  5  6  1  1  0  0  0
  5  7  1  0  0  0  0
  7  8  1  0  0  0  0
  7  9  1  6  0  0  0
  9 10  1  0  0  0  0
 11 12  1  1  0  0  0
 11 13  1  0  0  0  0
 11 19  1  0  0  0  0
 12 35  1  0  0  0  0
 13 14  1  0  0  0  0
 14 15  1  1  0  0  0
 14 16  1  0  0  0  0
 16  2  1  6  0  0  0
 16 17  1  0  0  0  0
 17 18  1  1  0  0  0
 17 19  1  0  0  0  0
 19 20  1  6  0  0  0
 21 20  1  1  0  0  0
 21 22  1  0  0  0  0
 21 29  1  0  0  0  0
 22 23  1  1  0  0  0
 22 24  1  0  0  0  0
 24 25  1  6  0  0  0
 24 26  1  0  0  0  0
 26 27  1  1  0  0  0
 26 28  1  0  0  0  0
 28 29  1  0  0  0  0
 28 30  1  6  0  0  0
 30 31  1  0  0  0  0
 34 39  1  0  0  0  0
 35 36  2  0  0  0  0
 37 35  1  6  0  0  0
 37 38  1  0  0  0  0
 37 40  1  0  0  0  0
 38 39  1  0  0  0  0
M  END
>  <CHROM.1>
175.65344289,-176.96467804,-55.25812477,170.30828436,-64.04695187,-135.25199093
-61.43766809,20.46574201,-173.95849207,176.79936345,0.05088578,-10.56244817
16.20109812,-3.13987914,0.29240262,0.95997613

>  <Name>
2g5q_lig

>  <RI>
2.90231e+07

>  <Rbt.Current_Directory>
/home/itssahil/PROJECTS/Mol_Feturizer/New_Systems/rnas/2g5q

>  <Rbt.Executable>
rbdock ($Id: //depot/dev/client3/rdock/2013.1/src/exe/rbdock.cxx#4 $)

>  <Rbt.Library>
libRbt.so (2013.1, Build901 2013/11/27)

>  <Rbt.Parameter_File>
/export/apps/rDock/src/rDock_2013.1_src/data/scripts/dock_solv.prm

>  <Rbt.Receptor>
prm/pocket_docking_6.prm

>  <SCORE>
-19.1859

>  <SCORE.INTER>
-14.7719

>  <SCORE.INTER.CONST>
1

>  <SCORE.INTER.POLAR>
-2.71169

>  <SCORE.INTER.ROT>
10

>  <SCORE.INTER.SOLV>
10.3262

>  <SCORE.INTER.VDW>
-14.5177

>  <SCORE.INTER.norm>
-0.369297

>  <SCORE.INTRA>
-4.41866

>  <SCORE.INTRA.DIHEDRAL>
-13.595

>  <SCORE.INTRA.DIHEDRAL.0>
22.5778

>  <SCORE.INTRA.POLAR>
0

>  <SCORE.INTRA.POLAR.0>
0

>  <SCORE.INTRA.REPUL>
0

>  <SCORE.INTRA.REPUL.0>
0

>  <SCORE.INTRA.SOLV>
1.65435

>  <SCORE.INTRA.SOLV.lig_0>
-102.332

>  <SCORE.INTRA.VDW>
1.55167

>  <SCORE.INTRA.VDW.0>
-5.08747

>  <SCORE.INTRA.norm>
-0.110466

>  <SCORE.RESTR>
0.00463677

>  <SCORE.RESTR.CAVITY>
0.00463677

>  <SCORE.RESTR.norm>
0.000115919

>  <SCORE.SYSTEM>
0

>  <SCORE.SYSTEM.CONST>
0

>  <SCORE.SYSTEM.DIHEDRAL>
0

>  <SCORE.SYSTEM.SOLV>
0

>  <SCORE.SYSTEM.norm>
0

>  <SCORE.heavy>
40

>  <SCORE.norm>
-0.479648

>  <RMSD>
8.202

$$$$
2g5q_lig
 OpenBabel11021811433D
libRbt.so/2013.1/901 2013/11/27
 40 42  0  0  0  0  0  0  0  0999 V2000
   -3.6090  -10.4344   17.2568 C   0  0  2  0  0  0  0  0  0  0  0  0
   -2.6466  -10.1429   16.2678 O   0  0  0  0  0  0  0  0  0  0  0  0
   -4.4736  -11.6373   16.7768 C   0  0  1  0  0  0  0  0  0  0  0  0
   -5.3421  -11.2703   15.5340 C   0  0  2  0  0  0  0  0  0  0  0  0
   -6.2652  -10.0896   15.9326 C   0  0  2  0  0  0  0  0  0  0  0  0
   -7.1001   -9.7359   14.8179 O   0  0  0  0  0  0  0  0  0  0  0  0
   -5.3532   -8.8729   16.3707 C   0  0  2  0  0  0  0  0  0  0  0  0
   -4.4926   -9.2686   17.5220 O   0  0  0  0  0  0  0  0  0  0  0  0
   -6.1622   -7.6533   16.7994 C   0  0  0  0  0  0  0  0  0  0  0  0
   -5.3049   -6.6089   17.4445 N   0  0  0  0  0  0  0  0  0  0  0  0
    1.3446   -8.3792   16.4609 C   0  0  2  0  0  0  0  0  0  0  0  0
    2.7516   -8.1799   16.7873 N   0  0  0  0  0  0  0  0  0  0  0  0
    0.4781   -8.4483   17.7876 C   0  0  0  0  0  0  0  0  0  0  0  0
   -1.0480   -8.6570   17.4384 C   0  0  2  0  0  0  0  0  0  0  0  0
   -1.8507   -8.7088   18.6901 N   0  0  0  0  0  0  0  0  0  0  0  0
   -1.2187   -9.9795   16.5899 C   0  0  2  0  0  0  0  0  0  0  0  0
   -0.3393   -9.8752   15.2813 C   0  0  2  0  0  0  0  0  0  0  0  0
   -0.4905  -11.0762   14.5179 O   0  0  0  0  0  0  0  0  0  0  0  0
    1.1807   -9.6829   15.6525 C   0  0  1  0  0  0  0  0  0  0  0  0
    1.9867   -9.5748   14.4455 O   0  0  0  0  0  0  0  0  0  0  0  0
    3.2312  -10.2055   14.2673 C   0  0  2  0  0  0  0  0  0  0  0  0
    3.8832   -9.6015   12.9776 C   0  0  2  0  0  0  0  0  0  0  0  0
    4.0506   -8.2296   13.1401 O   0  0  0  0  0  0  0  0  0  0  0  0
    3.0154   -9.9158   11.7006 C   0  0  1  0  0  0  0  0  0  0  0  0
    3.6342   -9.3451   10.4589 N   0  0  0  0  0  0  0  0  0  0  0  0
    2.8602  -11.4838   11.5795 C   0  0  2  0  0  0  0  0  0  0  0  0
    2.0852  -11.8323   10.4305 O   0  0  0  0  0  0  0  0  0  0  0  0
    2.2032  -12.0234   12.8948 C   0  0  2  0  0  0  0  0  0  0  0  0
    3.0254  -11.6550   14.0982 O   0  0  0  0  0  0  0  0  0  0  0  0
    2.0506  -13.5166   12.8683 C   0  0  0  0  0  0  0  0  0  0  0  0
    1.2733  -13.9815   13.9839 O   0  0  0  0  0  0  0  0  0  0  0  0
   -3.5763  -12.7621   16.4808 O   0  0  0  0  0  0  0  0  0  0  0  0
   -6.0938  -12.3628   15.1616 O   0  0  0  0  0  0  0  0  0  0  0  0
    7.5851  -10.1511   17.9012 N   0  0  0  0  0  0  0  0  0  0  0  0
    3.4631   -8.8994   17.7371 C   0  0  0  0  0  0  0  0  0  0  0  0
    2.9777   -9.7918   18.4236 O   0  0  0  0  0  0  0  0  0  0  0  0
    4.9348   -8.4382   17.8463 C   0  0  1  0  0  0  0  0  0  0  0  0
    5.7557   -9.0081   16.6718 C   0  0  0  0  0  0  0  0  0  0  0  0
    7.2657   -9.1270   16.9087 C   0  0  0  0  0  0  0  0  0  0  0  0
    4.9786   -6.9935   17.8538 O   0  0  0  0  0  0  0  0  0  0  0  0
  1  2  1  6  0  0  0
  1  3  1  0  0  0  0
  1  8  1  0  0  0  0
  3  4  1  0  0  0  0
  3 32  1  6  0  0  0
  4  5  1  0  0  0  0
  4 33  1  1  0  0  0
  5  6  1  6  0  0  0
  5  7  1  0  0  0  0
  7  8  1  0  0  0  0
  7  9  1  1  0  0  0
  9 10  1  0  0  0  0
 11 12  1  1  0  0  0
 11 13  1  0  0  0  0
 11 19  1  0  0  0  0
 12 35  1  0  0  0  0
 13 14  1  0  0  0  0
 14 15  1  1  0  0  0
 14 16  1  0  0  0  0
 16  2  1  6  0  0  0
 16 17  1  0  0  0  0
 17 18  1  1  0  0  0
 17 19  1  0  0  0  0
 19 20  1  6  0  0  0
 21 20  1  6  0  0  0
 21 22  1  0  0  0  0
 21 29  1  0  0  0  0
 22 23  1  1  0  0  0
 22 24  1  0  0  0  0
 24 25  1  6  0  0  0
 24 26  1  0  0  0  0
 26 27  1  6  0  0  0
 26 28  1  0  0  0  0
 28 29  1  0  0  0  0
 28 30  1  6  0  0  0
 30 31  1  0  0  0  0
 34 39  1  0  0  0  0
 35 36  2  0  0  0  0
 37 35  1  6  0  0  0
 37 38  1  0  0  0  0
 37 40  1  0  0  0  0
 38 39  1  0  0  0  0
M  END
>  <CHROM.1>
-130.43233405,169.49667567,47.81511665,-68.32374277,102.90696158,-168.60125525
-171.46705565,-77.52458406,-156.58849459,68.57244165,0.24510891,-9.96966404
15.52630750,-3.04105116,-0.09450713,-2.12596401

>  <Name>
2g5q_lig

>  <RI>
9.52566e+06

>  <Rbt.Current_Directory>
/home/itssahil/PROJECTS/Mol_Feturizer/New_Systems/rnas/2g5q

>  <Rbt.Executable>
rbdock ($Id: //depot/dev/client3/rdock/2013.1/src/exe/rbdock.cxx#4 $)

>  <Rbt.Library>
libRbt.so (2013.1, Build901 2013/11/27)

>  <Rbt.Parameter_File>
/export/apps/rDock/src/rDock_2013.1_src/data/scripts/dock_solv.prm

>  <Rbt.Receptor>
prm/pocket_docking_4.prm

>  <SCORE>
-16.8985

>  <SCORE.INTER>
-15.0834

>  <SCORE.INTER.CONST>
1

>  <SCORE.INTER.POLAR>
-1.78177

>  <SCORE.INTER.ROT>
10

>  <SCORE.INTER.SOLV>
22.8758

>  <SCORE.INTER.VDW>
-22.0083

>  <SCORE.INTER.norm>
-0.377085

>  <SCORE.INTRA>
-1.81512

>  <SCORE.INTRA.DIHEDRAL>
-5.22923

>  <SCORE.INTRA.DIHEDRAL.0>
22.5778

>  <SCORE.INTRA.POLAR>
0

>  <SCORE.INTRA.POLAR.0>
0

>  <SCORE.INTRA.REPUL>
0

>  <SCORE.INTRA.REPUL.0>
0

>  <SCORE.INTRA.SOLV>
2.11308

>  <SCORE.INTRA.SOLV.lig_0>
-102.332

>  <SCORE.INTRA.VDW>
-0.257044

>  <SCORE.INTRA.VDW.0>
-5.08747

>  <SCORE.INTRA.norm>
-0.045378

>  <SCORE.RESTR>
0

>  <SCORE.RESTR.CAVITY>
0

>  <SCORE.RESTR.norm>
0

>  <SCORE.SYSTEM>
0

>  <SCORE.SYSTEM.CONST>
0

>  <SCORE.SYSTEM.DIHEDRAL>
0

>  <SCORE.SYSTEM.SOLV>
0

>  <SCORE.SYSTEM.norm>
0

>  <SCORE.heavy>
40

>  <SCORE.norm>
-0.422463

>  <RMSD>
8.212

$$$$
2g5q_lig
 OpenBabel11021811433D
libRbt.so/2013.1/901 2013/11/27
 40 42  0  0  0  0  0  0  0  0999 V2000
   -4.0477  -10.8335   16.3478 C   0  0  2  0  0  0  0  0  0  0  0  0
   -3.7976   -9.5599   16.9000 O   0  0  0  0  0  0  0  0  0  0  0  0
   -5.5156  -10.8766   15.8298 C   0  0  1  0  0  0  0  0  0  0  0  0
   -6.5472  -10.7871   16.9967 C   0  0  2  0  0  0  0  0  0  0  0  0
   -6.2932  -11.9859   17.9471 C   0  0  2  0  0  0  0  0  0  0  0  0
   -7.2413  -11.9519   19.0261 O   0  0  0  0  0  0  0  0  0  0  0  0
   -4.8096  -11.8843   18.4882 C   0  0  2  0  0  0  0  0  0  0  0  0
   -3.8478  -11.9138   17.3494 O   0  0  0  0  0  0  0  0  0  0  0  0
   -4.4445  -13.0286   19.4278 C   0  0  0  0  0  0  0  0  0  0  0  0
   -3.0505  -12.8970   19.9581 N   0  0  0  0  0  0  0  0  0  0  0  0
   -0.0599   -7.6975   18.1800 C   0  0  2  0  0  0  0  0  0  0  0  0
    1.1254   -7.3796   18.9673 N   0  0  0  0  0  0  0  0  0  0  0  0
   -1.3714   -7.4364   19.0329 C   0  0  0  0  0  0  0  0  0  0  0  0
   -2.6582   -7.7727   18.1812 C   0  0  2  0  0  0  0  0  0  0  0  0
   -3.8810   -7.5131   18.9883 N   0  0  0  0  0  0  0  0  0  0  0  0
   -2.5943   -9.2771   17.7008 C   0  0  2  0  0  0  0  0  0  0  0  0
   -1.2750   -9.4992   16.8600 C   0  0  2  0  0  0  0  0  0  0  0  0
   -1.2162  -10.8634   16.4316 O   0  0  0  0  0  0  0  0  0  0  0  0
   -0.0036   -9.1730   17.7330 C   0  0  1  0  0  0  0  0  0  0  0  0
    1.2095   -9.3665   16.9524 O   0  0  0  0  0  0  0  0  0  0  0  0
    1.8139  -10.6166   16.7282 C   0  0  2  0  0  0  0  0  0  0  0  0
    3.2998  -10.3513   16.3101 C   0  0  2  0  0  0  0  0  0  0  0  0
    3.9551   -9.6690   17.3306 O   0  0  0  0  0  0  0  0  0  0  0  0
    3.3756   -9.5486   14.9564 C   0  0  1  0  0  0  0  0  0  0  0  0
    4.7955   -9.2935   14.5451 N   0  0  0  0  0  0  0  0  0  0  0  0
    2.6103  -10.3734   13.8468 C   0  0  2  0  0  0  0  0  0  0  0  0
    2.6512   -9.6961   12.5891 O   0  0  0  0  0  0  0  0  0  0  0  0
    1.1360  -10.6023   14.3228 C   0  0  2  0  0  0  0  0  0  0  0  0
    1.1015  -11.3172   15.6448 O   0  0  0  0  0  0  0  0  0  0  0  0
    0.3500  -11.4095   13.3307 C   0  0  0  0  0  0  0  0  0  0  0  0
    0.9460  -12.6998   13.1189 O   0  0  0  0  0  0  0  0  0  0  0  0
   -5.7010   -9.7757   14.8750 O   0  0  0  0  0  0  0  0  0  0  0  0
   -7.8245  -10.8430   16.4841 O   0  0  0  0  0  0  0  0  0  0  0  0
    6.0915   -9.2899   21.9021 N   0  0  0  0  0  0  0  0  0  0  0  0
    1.5868   -8.1126   20.0517 C   0  0  0  0  0  0  0  0  0  0  0  0
    1.0358   -9.1209   20.4796 O   0  0  0  0  0  0  0  0  0  0  0  0
    2.8660   -7.5058   20.6729 C   0  0  1  0  0  0  0  0  0  0  0  0
    3.8818   -8.6226   20.9874 C   0  0  0  0  0  0  0  0  0  0  0  0
    5.1815   -8.1714   21.6639 C   0  0  0  0  0  0  0  0  0  0  0  0
    3.4268   -6.5416   19.7537 O   0  0  0  0  0  0  0  0  0  0  0  0
  1  2  1  1  0  0  0
  1  3  1  0  0  0  0
  1  8  1  0  0  0  0
  3  4  1  0  0  0  0
  3 32  1  6  0  0  0
  4  5  1  0  0  0  0
  4 33  1  6  0  0  0
  5  6  1  1  0  0  0
  5  7  1  0  0  0  0
  7  8  1  0  0  0  0
  7  9  1  1  0  0  0
  9 10  1  0  0  0  0
 11 12  1  1  0  0  0
 11 13  1  0  0  0  0
 11 19  1  0  0  0  0
 12 35  1  0  0  0  0
 13 14  1  0  0  0  0
 14 15  1  1  0  0  0
 14 16  1  0  0  0  0
 16  2  1  6  0  0  0
 16 17  1  0  0  0  0
 17 18  1  1  0  0  0
 17 19  1  0  0  0  0
 19 20  1  6  0  0  0
 21 20  1  6  0  0  0
 21 22  1  0  0  0  0
 21 29  1  0  0  0  0
 22 23  1  1  0  0  0
 22 24  1  0  0  0  0
 24 25  1  6  0  0  0
 24 26  1  0  0  0  0
 26 27  1  6  0  0  0
 26 28  1  0  0  0  0
 28 29  1  0  0  0  0
 28 30  1  6  0  0  0
 30 31  1  0  0  0  0
 34 39  1  0  0  0  0
 35 36  2  0  0  0  0
 37 35  1  6  0  0  0
 37 38  1  0  0  0  0
 37 40  1  0  0  0  0
 38 39  1  0  0  0  0
M  END
>  <CHROM.1>
168.19187468,-178.49246035,70.33168561,-178.71723246,159.53070542,-160.29222420
59.55530215,-136.51424978,-177.57478309,-179.00266577,-0.61152599,-9.90348597
17.39314566,-2.97710614,0.18879449,1.23569644

>  <Name>
2g5q_lig

>  <RI>
9.52566e+06

>  <Rbt.Current_Directory>
/home/itssahil/PROJECTS/Mol_Feturizer/New_Systems/rnas/2g5q

>  <Rbt.Executable>
rbdock ($Id: //depot/dev/client3/rdock/2013.1/src/exe/rbdock.cxx#4 $)

>  <Rbt.Library>
libRbt.so (2013.1, Build901 2013/11/27)

>  <Rbt.Parameter_File>
/export/apps/rDock/src/rDock_2013.1_src/data/scripts/dock_solv.prm

>  <Rbt.Receptor>
prm/pocket_docking_4.prm

>  <SCORE>
-12.0301

>  <SCORE.INTER>
-4.87388

>  <SCORE.INTER.CONST>
1

>  <SCORE.INTER.POLAR>
-0.47303

>  <SCORE.INTER.ROT>
10

>  <SCORE.INTER.SOLV>
15.2093

>  <SCORE.INTER.VDW>
-17.0089

>  <SCORE.INTER.norm>
-0.121847

>  <SCORE.INTRA>
-7.15619

>  <SCORE.INTRA.DIHEDRAL>
-15.9631

>  <SCORE.INTRA.DIHEDRAL.0>
22.5778

>  <SCORE.INTRA.POLAR>
0

>  <SCORE.INTRA.POLAR.0>
0

>  <SCORE.INTRA.REPUL>
0

>  <SCORE.INTRA.REPUL.0>
0

>  <SCORE.INTRA.SOLV>
-0.106965

>  <SCORE.INTRA.SOLV.lig_0>
-102.332

>  <SCORE.INTRA.VDW>
0.878825

>  <SCORE.INTRA.VDW.0>
-5.08747

>  <SCORE.INTRA.norm>
-0.178905

>  <SCORE.RESTR>
0

>  <SCORE.RESTR.CAVITY>
0

>  <SCORE.RESTR.norm>
0

>  <SCORE.SYSTEM>
0

>  <SCORE.SYSTEM.CONST>
0

>  <SCORE.SYSTEM.DIHEDRAL>
0

>  <SCORE.SYSTEM.SOLV>
0

>  <SCORE.SYSTEM.norm>
0

>  <SCORE.heavy>
40

>  <SCORE.norm>
-0.300752

>  <RMSD>
8.221

$$$$
2g5q_lig
 OpenBabel11021811433D
libRbt.so/2013.1/901 2013/11/27
 40 42  0  0  0  0  0  0  0  0999 V2000
   -2.9092  -11.0588   17.5599 C   0  0  2  0  0  0  0  0  0  0  0  0
   -1.5152  -10.8945   17.6986 O   0  0  0  0  0  0  0  0  0  0  0  0
   -3.5945   -9.6669   17.6939 C   0  0  1  0  0  0  0  0  0  0  0  0
   -3.4477   -9.0822   19.1327 C   0  0  2  0  0  0  0  0  0  0  0  0
   -4.1011  -10.0835   20.1203 C   0  0  2  0  0  0  0  0  0  0  0  0
   -4.0066   -9.5684   21.4583 O   0  0  0  0  0  0  0  0  0  0  0  0
   -3.3513  -11.4708   19.9890 C   0  0  2  0  0  0  0  0  0  0  0  0
   -3.4578  -11.9783   18.5912 O   0  0  0  0  0  0  0  0  0  0  0  0
   -3.9246  -12.5412   20.9116 C   0  0  0  0  0  0  0  0  0  0  0  0
   -3.1757  -13.8334   20.8063 N   0  0  0  0  0  0  0  0  0  0  0  0
    1.6188  -10.3119   14.7125 C   0  0  2  0  0  0  0  0  0  0  0  0
    2.4308   -9.7072   13.6634 N   0  0  0  0  0  0  0  0  0  0  0  0
    0.1197  -10.4751   14.2206 C   0  0  0  0  0  0  0  0  0  0  0  0
   -0.7621  -11.1365   15.3517 C   0  0  2  0  0  0  0  0  0  0  0  0
   -2.1624  -11.2942   14.8739 N   0  0  0  0  0  0  0  0  0  0  0  0
   -0.6961  -10.2496   16.6582 C   0  0  2  0  0  0  0  0  0  0  0  0
    0.8100  -10.1064   17.1143 C   0  0  2  0  0  0  0  0  0  0  0  0
    0.8678   -9.2978   18.2936 O   0  0  0  0  0  0  0  0  0  0  0  0
    1.6682   -9.4306   15.9778 C   0  0  1  0  0  0  0  0  0  0  0  0
    3.0573   -9.3113   16.3957 O   0  0  0  0  0  0  0  0  0  0  0  0
    3.8333   -8.1491   16.2364 C   0  0  2  0  0  0  0  0  0  0  0  0
    5.3351   -8.5608   16.4038 C   0  0  2  0  0  0  0  0  0  0  0  0
    5.6685   -9.5058   15.4382 O   0  0  0  0  0  0  0  0  0  0  0  0
    5.6159   -9.1126   17.8527 C   0  0  1  0  0  0  0  0  0  0  0  0
    7.0534   -9.5056   18.0244 N   0  0  0  0  0  0  0  0  0  0  0  0
    5.2117   -7.9965   18.8958 C   0  0  2  0  0  0  0  0  0  0  0  0
    5.4518   -8.4380   20.2336 O   0  0  0  0  0  0  0  0  0  0  0  0
    3.7043   -7.6321   18.6780 C   0  0  2  0  0  0  0  0  0  0  0  0
    3.4605   -7.1664   17.2696 O   0  0  0  0  0  0  0  0  0  0  0  0
    3.2522   -6.5508   19.6161 C   0  0  0  0  0  0  0  0  0  0  0  0
    1.8480   -6.2843   19.4672 O   0  0  0  0  0  0  0  0  0  0  0  0
   -3.0070   -8.7647   16.6944 O   0  0  0  0  0  0  0  0  0  0  0  0
   -4.0814   -7.8609   19.1977 O   0  0  0  0  0  0  0  0  0  0  0  0
    6.6571   -8.4099   10.9142 N   0  0  0  0  0  0  0  0  0  0  0  0
    2.9282  -10.3728   12.5517 C   0  0  0  0  0  0  0  0  0  0  0  0
    2.7432  -11.5642   12.3287 O   0  0  0  0  0  0  0  0  0  0  0  0
    3.7579   -9.4474   11.6321 C   0  0  1  0  0  0  0  0  0  0  0  0
    4.7358   -8.6038   12.4749 C   0  0  0  0  0  0  0  0  0  0  0  0
    5.6615   -7.6698   11.6868 C   0  0  0  0  0  0  0  0  0  0  0  0
    4.4709  -10.2544   10.6679 O   0  0  0  0  0  0  0  0  0  0  0  0
  1  2  1  1  0  0  0
  1  3  1  0  0  0  0
  1  8  1  0  0  0  0
  3  4  1  0  0  0  0
  3 32  1  6  0  0  0
  4  5  1  0  0  0  0
  4 33  1  6  0  0  0
  5  6  1  1  0  0  0
  5  7  1  0  0  0  0
  7  8  1  0  0  0  0
  7  9  1  1  0  0  0
  9 10  1  0  0  0  0
 11 12  1  6  0  0  0
 11 13  1  0  0  0  0
 11 19  1  0  0  0  0
 12 35  1  0  0  0  0
 13 14  1  0  0  0  0
 14 15  1  6  0  0  0
 14 16  1  0  0  0  0
 16  2  1  1  0  0  0
 16 17  1  0  0  0  0
 17 18  1  1  0  0  0
 17 19  1  0  0  0  0
 19 20  1  1  0  0  0
 21 20  1  1  0  0  0
 21 22  1  0  0  0  0
 21 29  1  0  0  0  0
 22 23  1  6  0  0  0
 22 24  1  0  0  0  0
 24 25  1  6  0  0  0
 24 26  1  0  0  0  0
 26 27  1  1  0  0  0
 26 28  1  0  0  0  0
 28 29  1  0  0  0  0
 28 30  1  1  0  0  0
 30 31  1  0  0  0  0
 34 39  1  0  0  0  0
 35 36  2  0  0  0  0
 37 35  1  1  0  0  0
 37 38  1  0  0  0  0
 37 40  1  0  0  0  0
 38 39  1  0  0  0  0
M  END
>  <CHROM.1>
-71.30395739,-178.16468811,-78.04809360,-63.78755089,106.33991746,-163.28158143
-176.28327414,45.95593003,177.98558188,-69.15668302,1.18532073,-9.56762633
16.71319610,2.64778368,0.34231252,1.31196190

>  <Name>
2g5q_lig

>  <RI>
2.90231e+07

>  <Rbt.Current_Directory>
/home/itssahil/PROJECTS/Mol_Feturizer/New_Systems/rnas/2g5q

>  <Rbt.Executable>
rbdock ($Id: //depot/dev/client3/rdock/2013.1/src/exe/rbdock.cxx#4 $)

>  <Rbt.Library>
libRbt.so (2013.1, Build901 2013/11/27)

>  <Rbt.Parameter_File>
/export/apps/rDock/src/rDock_2013.1_src/data/scripts/dock_solv.prm

>  <Rbt.Receptor>
prm/pocket_docking_6.prm

>  <SCORE>
-12.2904

>  <SCORE.INTER>
-8.15601

>  <SCORE.INTER.CONST>
1

>  <SCORE.INTER.POLAR>
-1.01915

>  <SCORE.INTER.ROT>
10

>  <SCORE.INTER.SOLV>
14.5602

>  <SCORE.INTER.VDW>
-17.1603

>  <SCORE.INTER.norm>
-0.2039

>  <SCORE.INTRA>
-4.1344

>  <SCORE.INTRA.DIHEDRAL>
-12.63

>  <SCORE.INTRA.DIHEDRAL.0>
22.5778

>  <SCORE.INTRA.POLAR>
0

>  <SCORE.INTRA.POLAR.0>
0

>  <SCORE.INTRA.REPUL>
0

>  <SCORE.INTRA.REPUL.0>
0

>  <SCORE.INTRA.SOLV>
3.06064

>  <SCORE.INTRA.SOLV.lig_0>
-102.332

>  <SCORE.INTRA.VDW>
0.650283

>  <SCORE.INTRA.VDW.0>
-5.08747

>  <SCORE.INTRA.norm>
-0.10336

>  <SCORE.RESTR>
0

>  <SCORE.RESTR.CAVITY>
0

>  <SCORE.RESTR.norm>
0

>  <SCORE.SYSTEM>
0

>  <SCORE.SYSTEM.CONST>
0

>  <SCORE.SYSTEM.DIHEDRAL>
0

>  <SCORE.SYSTEM.SOLV>
0

>  <SCORE.SYSTEM.norm>
0

>  <SCORE.heavy>
40

>  <SCORE.norm>
-0.30726

>  <RMSD>
8.221

$$$$
2g5q_lig
 OpenBabel11021811433D
libRbt.so/2013.1/901 2013/11/27
 40 42  0  0  0  0  0  0  0  0999 V2000
   -4.5483  -11.9961   16.4059 C   0  0  2  0  0  0  0  0  0  0  0  0
   -4.0076  -10.7844   16.8843 O   0  0  0  0  0  0  0  0  0  0  0  0
   -6.0817  -12.0033   16.6769 C   0  0  1  0  0  0  0  0  0  0  0  0
   -6.4026  -12.0497   18.2029 C   0  0  2  0  0  0  0  0  0  0  0  0
   -5.7636  -13.3382   18.7828 C   0  0  2  0  0  0  0  0  0  0  0  0
   -6.0573  -13.4296   20.1863 O   0  0  0  0  0  0  0  0  0  0  0  0
   -4.2028  -13.2752   18.5297 C   0  0  2  0  0  0  0  0  0  0  0  0
   -3.9264  -13.1728   17.0682 O   0  0  0  0  0  0  0  0  0  0  0  0
   -3.4702  -14.5070   19.0509 C   0  0  0  0  0  0  0  0  0  0  0  0
   -3.8875  -15.7537   18.3345 N   0  0  0  0  0  0  0  0  0  0  0  0
   -0.1472   -8.9734   15.9381 C   0  0  2  0  0  0  0  0  0  0  0  0
    1.2810   -8.6805   15.9528 N   0  0  0  0  0  0  0  0  0  0  0  0
   -0.7731   -8.7244   17.3741 C   0  0  0  0  0  0  0  0  0  0  0  0
   -2.3219   -9.0337   17.3609 C   0  0  2  0  0  0  0  0  0  0  0  0
   -2.8987   -8.7857   18.7099 N   0  0  0  0  0  0  0  0  0  0  0  0
   -2.5576  -10.5270   16.8999 C   0  0  2  0  0  0  0  0  0  0  0  0
   -1.9178  -10.7373   15.4704 C   0  0  2  0  0  0  0  0  0  0  0  0
   -2.1268  -12.0916   15.0579 O   0  0  0  0  0  0  0  0  0  0  0  0
   -0.3705  -10.4386   15.5096 C   0  0  1  0  0  0  0  0  0  0  0  0
    0.2139  -10.6210   14.1892 O   0  0  0  0  0  0  0  0  0  0  0  0
    0.2264  -11.8428   13.4926 C   0  0  2  0  0  0  0  0  0  0  0  0
    0.9817  -12.8846   14.3856 C   0  0  2  0  0  0  0  0  0  0  0  0
    0.3181  -13.0230   15.6009 O   0  0  0  0  0  0  0  0  0  0  0  0
    2.4828  -12.4609   14.6084 C   0  0  1  0  0  0  0  0  0  0  0  0
    3.2163  -13.4552   15.4591 N   0  0  0  0  0  0  0  0  0  0  0  0
    3.1730  -12.3165   13.1941 C   0  0  2  0  0  0  0  0  0  0  0  0
    4.5444  -11.9393   13.3322 O   0  0  0  0  0  0  0  0  0  0  0  0
    2.3743  -11.2633   12.3542 C   0  0  2  0  0  0  0  0  0  0  0  0
    0.9337  -11.6684   12.2114 O   0  0  0  0  0  0  0  0  0  0  0  0
    2.9536  -11.0929   10.9798 C   0  0  0  0  0  0  0  0  0  0  0  0
    2.3721  -12.0212   10.0497 O   0  0  0  0  0  0  0  0  0  0  0  0
   -6.6671  -10.8107   16.0499 O   0  0  0  0  0  0  0  0  0  0  0  0
   -7.7680  -12.0677   18.3835 O   0  0  0  0  0  0  0  0  0  0  0  0
    7.0805  -10.5762   16.9252 N   0  0  0  0  0  0  0  0  0  0  0  0
    2.2277   -9.3487   16.7167 C   0  0  0  0  0  0  0  0  0  0  0  0
    1.9629  -10.2693   17.4819 O   0  0  0  0  0  0  0  0  0  0  0  0
    3.6546   -8.7908   16.5084 C   0  0  1  0  0  0  0  0  0  0  0  0
    4.6977   -9.8955   16.7725 C   0  0  0  0  0  0  0  0  0  0  0  0
    6.1656   -9.4663   16.6665 C   0  0  0  0  0  0  0  0  0  0  0  0
    3.7716   -8.2819   15.1606 O   0  0  0  0  0  0  0  0  0  0  0  0
  1  2  1  1  0  0  0
  1  3  1  0  0  0  0
  1  8  1  0  0  0  0
  3  4  1  0  0  0  0
  3 32  1  1  0  0  0
  4  5  1  0  0  0  0
  4 33  1  6  0  0  0
  5  6  1  1  0  0  0
  5  7  1  0  0  0  0
  7  8  1  0  0  0  0
  7  9  1  6  0  0  0
  9 10  1  0  0  0  0
 11 12  1  1  0  0  0
 11 13  1  0  0  0  0
 11 19  1  0  0  0  0
 12 35  1  0  0  0  0
 13 14  1  0  0  0  0
 14 15  1  1  0  0  0
 14 16  1  0  0  0  0
 16  2  1  6  0  0  0
 16 17  1  0  0  0  0
 17 18  1  1  0  0  0
 17 19  1  0  0  0  0
 19 20  1  6  0  0  0
 21 20  1  1  0  0  0
 21 22  1  0  0  0  0
 21 29  1  0  0  0  0
 22 23  1  1  0  0  0
 22 24  1  0  0  0  0
 24 25  1  1  0  0  0
 24 26  1  0  0  0  0
 26 27  1  1  0  0  0
 26 28  1  0  0  0  0
 28 29  1  0  0  0  0
 28 30  1  6  0  0  0
 30 31  1  0  0  0  0
 34 39  1  0  0  0  0
 35 36  2  0  0  0  0
 37 35  1  6  0  0  0
 37 38  1  0  0  0  0
 37 40  1  0  0  0  0
 38 39  1  0  0  0  0
M  END
>  <CHROM.1>
173.72475382,63.84581715,62.56381927,174.50261725,178.50906089,-58.81923929
88.97926202,-152.43232335,-177.25996309,-179.71177992,-0.55182959,-11.32610284
15.95154397,2.90397232,0.33666053,1.07174281

>  <Name>
2g5q_lig

>  <RI>
2.47104e+07

>  <Rbt.Current_Directory>
/home/itssahil/PROJECTS/Mol_Feturizer/New_Systems/rnas/2g5q

>  <Rbt.Executable>
rbdock ($Id: //depot/dev/client3/rdock/2013.1/src/exe/rbdock.cxx#4 $)

>  <Rbt.Library>
libRbt.so (2013.1, Build901 2013/11/27)

>  <Rbt.Parameter_File>
/export/apps/rDock/src/rDock_2013.1_src/data/scripts/dock_solv.prm

>  <Rbt.Receptor>
prm/pocket_docking_7.prm

>  <SCORE>
-14.6794

>  <SCORE.INTER>
-8.04201

>  <SCORE.INTER.CONST>
1

>  <SCORE.INTER.POLAR>
-1.30787

>  <SCORE.INTER.ROT>
10

>  <SCORE.INTER.SOLV>
12.1562

>  <SCORE.INTER.VDW>
-15.3205

>  <SCORE.INTER.norm>
-0.20105

>  <SCORE.INTRA>
-6.66681

>  <SCORE.INTRA.DIHEDRAL>
-18.0746

>  <SCORE.INTRA.DIHEDRAL.0>
22.5778

>  <SCORE.INTRA.POLAR>
0

>  <SCORE.INTRA.POLAR.0>
0

>  <SCORE.INTRA.REPUL>
0

>  <SCORE.INTRA.REPUL.0>
0

>  <SCORE.INTRA.SOLV>
1.88521

>  <SCORE.INTRA.SOLV.lig_0>
-102.332

>  <SCORE.INTRA.VDW>
1.42789

>  <SCORE.INTRA.VDW.0>
-5.08747

>  <SCORE.INTRA.norm>
-0.16667

>  <SCORE.RESTR>
0.0294318

>  <SCORE.RESTR.CAVITY>
0.0294318

>  <SCORE.RESTR.norm>
0.000735796

>  <SCORE.SYSTEM>
0

>  <SCORE.SYSTEM.CONST>
0

>  <SCORE.SYSTEM.DIHEDRAL>
0

>  <SCORE.SYSTEM.SOLV>
0

>  <SCORE.SYSTEM.norm>
0

>  <SCORE.heavy>
40

>  <SCORE.norm>
-0.366985

>  <RMSD>
8.222

$$$$
2g5q_lig
 OpenBabel11021811433D
libRbt.so/2013.1/901 2013/11/27
 40 42  0  0  0  0  0  0  0  0999 V2000
   -3.7947  -11.3623   15.7109 C   0  0  2  0  0  0  0  0  0  0  0  0
   -3.2714  -10.2696   16.4331 O   0  0  0  0  0  0  0  0  0  0  0  0
   -5.3470  -11.2442   15.6765 C   0  0  1  0  0  0  0  0  0  0  0  0
   -5.9756  -11.4216   17.0932 C   0  0  2  0  0  0  0  0  0  0  0  0
   -5.5699  -12.8227   17.6198 C   0  0  2  0  0  0  0  0  0  0  0  0
   -6.1503  -13.0342   18.9170 O   0  0  0  0  0  0  0  0  0  0  0  0
   -3.9902  -12.8903   17.6840 C   0  0  2  0  0  0  0  0  0  0  0  0
   -3.4139  -12.6600   16.3283 O   0  0  0  0  0  0  0  0  0  0  0  0
   -3.4768  -14.2384   18.1786 C   0  0  0  0  0  0  0  0  0  0  0  0
   -3.9286  -14.5334   19.5753 N   0  0  0  0  0  0  0  0  0  0  0  0
    0.8162   -8.7358   16.5608 C   0  0  2  0  0  0  0  0  0  0  0  0
    2.2281   -8.5950   16.8963 N   0  0  0  0  0  0  0  0  0  0  0  0
   -0.0709   -8.6481   17.8728 C   0  0  0  0  0  0  0  0  0  0  0  0
   -1.6019   -8.7930   17.5129 C   0  0  2  0  0  0  0  0  0  0  0  0
   -2.4233   -8.6979   18.7500 N   0  0  0  0  0  0  0  0  0  0  0  0
   -1.8408  -10.1661   16.7676 C   0  0  2  0  0  0  0  0  0  0  0  0
   -0.9389  -10.2181   15.4711 C   0  0  2  0  0  0  0  0  0  0  0  0
   -1.1521  -11.4647   14.8014 O   0  0  0  0  0  0  0  0  0  0  0  0
    0.5847  -10.0874   15.8540 C   0  0  1  0  0  0  0  0  0  0  0  0
    1.4122  -10.1232   14.6572 O   0  0  0  0  0  0  0  0  0  0  0  0
    2.7730  -10.4786   14.6478 C   0  0  2  0  0  0  0  0  0  0  0  0
    3.3026  -10.2703   13.1886 C   0  0  2  0  0  0  0  0  0  0  0  0
    3.1442   -8.9371   12.8225 O   0  0  0  0  0  0  0  0  0  0  0  0
    2.5657  -11.2244   12.1741 C   0  0  1  0  0  0  0  0  0  0  0  0
    3.0693  -11.0356   10.7738 N   0  0  0  0  0  0  0  0  0  0  0  0
    2.7801  -12.7159   12.6503 C   0  0  2  0  0  0  0  0  0  0  0  0
    2.1379  -13.6323   11.7614 O   0  0  0  0  0  0  0  0  0  0  0  0
    2.2301  -12.8579   14.1098 C   0  0  2  0  0  0  0  0  0  0  0  0
    2.9122  -11.8927   15.0389 O   0  0  0  0  0  0  0  0  0  0  0  0
    2.4272  -14.2462   14.6459 C   0  0  0  0  0  0  0  0  0  0  0  0
    3.8195  -14.6002   14.6783 O   0  0  0  0  0  0  0  0  0  0  0  0
   -5.6982   -9.9383   15.1024 O   0  0  0  0  0  0  0  0  0  0  0  0
   -7.3464  -11.3214   17.0020 O   0  0  0  0  0  0  0  0  0  0  0  0
    4.5257   -8.3419   20.9872 N   0  0  0  0  0  0  0  0  0  0  0  0
    2.9335   -9.4249   17.7565 C   0  0  0  0  0  0  0  0  0  0  0  0
    2.4378  -10.3795   18.3450 O   0  0  0  0  0  0  0  0  0  0  0  0
    4.4130   -9.0011   17.9043 C   0  0  1  0  0  0  0  0  0  0  0  0
    4.5028   -7.6319   18.6081 C   0  0  0  0  0  0  0  0  0  0  0  0
    3.8284   -7.5424   19.9820 C   0  0  0  0  0  0  0  0  0  0  0  0
    5.1228  -10.0138   18.6526 O   0  0  0  0  0  0  0  0  0  0  0  0
  1  2  1  1  0  0  0
  1  3  1  0  0  0  0
  1  8  1  0  0  0  0
  3  4  1  0  0  0  0
  3 32  1  1  0  0  0
  4  5  1  0  0  0  0
  4 33  1  6  0  0  0
  5  6  1  1  0  0  0
  5  7  1  0  0  0  0
  7  8  1  0  0  0  0
  7  9  1  6  0  0  0
  9 10  1  0  0  0  0
 11 12  1  1  0  0  0
 11 13  1  0  0  0  0
 11 19  1  0  0  0  0
 12 35  1  0  0  0  0
 13 14  1  0  0  0  0
 14 15  1  1  0  0  0
 14 16  1  0  0  0  0
 16  2  1  6  0  0  0
 16 17  1  0  0  0  0
 17 18  1  1  0  0  0
 17 19  1  0  0  0  0
 19 20  1  6  0  0  0
 21 20  1  6  0  0  0
 21 22  1  0  0  0  0
 21 29  1  0  0  0  0
 22 23  1  6  0  0  0
 22 24  1  0  0  0  0
 24 25  1  6  0  0  0
 24 26  1  0  0  0  0
 26 27  1  6  0  0  0
 26 28  1  0  0  0  0
 28 29  1  0  0  0  0
 28 30  1  1  0  0  0
 30 31  1  0  0  0  0
 34 39  1  0  0  0  0
 35 36  2  0  0  0  0
 37 35  1  1  0  0  0
 37 38  1  0  0  0  0
 37 40  1  0  0  0  0
 38 39  1  0  0  0  0
M  END
>  <CHROM.1>
173.40468514,-62.07979312,58.97758240,177.33228291,82.94112767,-175.36266662
60.09818384,66.28269194,56.36886937,68.41363307,-0.06443163,-10.91581354
16.21786340,3.08126776,0.24699637,1.04485479

>  <Name>
2g5q_lig

>  <RI>
2.90231e+07

>  <Rbt.Current_Directory>
/home/itssahil/PROJECTS/Mol_Feturizer/New_Systems/rnas/2g5q

>  <Rbt.Executable>
rbdock ($Id: //depot/dev/client3/rdock/2013.1/src/exe/rbdock.cxx#4 $)

>  <Rbt.Library>
libRbt.so (2013.1, Build901 2013/11/27)

>  <Rbt.Parameter_File>
/export/apps/rDock/src/rDock_2013.1_src/data/scripts/dock_solv.prm

>  <Rbt.Receptor>
prm/pocket_docking_6.prm

>  <SCORE>
-20.5066

>  <SCORE.INTER>
-13.0778

>  <SCORE.INTER.CONST>
1

>  <SCORE.INTER.POLAR>
-1.74373

>  <SCORE.INTER.ROT>
10

>  <SCORE.INTER.SOLV>
12.5353

>  <SCORE.INTER.VDW>
-17.3512

>  <SCORE.INTER.norm>
-0.326945

>  <SCORE.INTRA>
-7.4288

>  <SCORE.INTRA.DIHEDRAL>
-18.7331

>  <SCORE.INTRA.DIHEDRAL.0>
22.5778

>  <SCORE.INTRA.POLAR>
0

>  <SCORE.INTRA.POLAR.0>
0

>  <SCORE.INTRA.REPUL>
0

>  <SCORE.INTRA.REPUL.0>
0

>  <SCORE.INTRA.SOLV>
3.01923

>  <SCORE.INTRA.SOLV.lig_0>
-102.332

>  <SCORE.INTRA.VDW>
0.428132

>  <SCORE.INTRA.VDW.0>
-5.08747

>  <SCORE.INTRA.norm>
-0.18572

>  <SCORE.RESTR>
0

>  <SCORE.RESTR.CAVITY>
0

>  <SCORE.RESTR.norm>
0

>  <SCORE.SYSTEM>
0

>  <SCORE.SYSTEM.CONST>
0

>  <SCORE.SYSTEM.DIHEDRAL>
0

>  <SCORE.SYSTEM.SOLV>
0

>  <SCORE.SYSTEM.norm>
0

>  <SCORE.heavy>
40

>  <SCORE.norm>
-0.512665

>  <RMSD>
8.236

$$$$
2g5q_lig
 OpenBabel11021811433D
libRbt.so/2013.1/901 2013/11/27
 40 42  0  0  0  0  0  0  0  0999 V2000
   -4.6829  -10.6616   17.4334 C   0  0  2  0  0  0  0  0  0  0  0  0
   -3.5110  -10.6307   16.6491 O   0  0  0  0  0  0  0  0  0  0  0  0
   -5.7403  -11.5557   16.7211 C   0  0  1  0  0  0  0  0  0  0  0  0
   -6.2274  -10.9245   15.3802 C   0  0  2  0  0  0  0  0  0  0  0  0
   -6.8472   -9.5406   15.7052 C   0  0  2  0  0  0  0  0  0  0  0  0
   -7.3301   -8.9351   14.4950 O   0  0  0  0  0  0  0  0  0  0  0  0
   -5.7335   -8.6457   16.3856 C   0  0  2  0  0  0  0  0  0  0  0  0
   -5.2447   -9.2998   17.6330 O   0  0  0  0  0  0  0  0  0  0  0  0
   -6.2406   -7.2578   16.7627 C   0  0  0  0  0  0  0  0  0  0  0  0
   -6.4923   -6.4051   15.5579 N   0  0  0  0  0  0  0  0  0  0  0  0
    0.5090   -9.0926   17.3915 C   0  0  2  0  0  0  0  0  0  0  0  0
    1.8293   -8.9078   17.9819 N   0  0  0  0  0  0  0  0  0  0  0  0
   -0.6185   -8.8302   18.4758 C   0  0  0  0  0  0  0  0  0  0  0  0
   -2.0507   -9.0224   17.8385 C   0  0  2  0  0  0  0  0  0  0  0  0
   -3.0988   -8.7627   18.8623 N   0  0  0  0  0  0  0  0  0  0  0  0
   -2.1732  -10.4830   17.2471 C   0  0  2  0  0  0  0  0  0  0  0  0
   -1.0333  -10.7079   16.1762 C   0  0  2  0  0  0  0  0  0  0  0  0
   -1.1423  -12.0330   15.6468 O   0  0  0  0  0  0  0  0  0  0  0  0
    0.3867  -10.5268   16.8363 C   0  0  1  0  0  0  0  0  0  0  0  0
    1.4343  -10.7223   15.8450 O   0  0  0  0  0  0  0  0  0  0  0  0
    2.3682  -11.7735   15.8792 C   0  0  2  0  0  0  0  0  0  0  0  0
    3.4620  -11.4649   14.8014 C   0  0  2  0  0  0  0  0  0  0  0  0
    4.0796  -10.2540   15.0993 O   0  0  0  0  0  0  0  0  0  0  0  0
    2.8425  -11.4400   13.3528 C   0  0  1  0  0  0  0  0  0  0  0  0
    3.8835  -11.1496   12.3125 N   0  0  0  0  0  0  0  0  0  0  0  0
    2.1551  -12.8371   13.0829 C   0  0  2  0  0  0  0  0  0  0  0  0
    1.5790  -12.8778   11.7758 O   0  0  0  0  0  0  0  0  0  0  0  0
    1.0748  -13.0840   14.1896 C   0  0  2  0  0  0  0  0  0  0  0  0
    1.6889  -13.0421   15.5610 O   0  0  0  0  0  0  0  0  0  0  0  0
    0.3963  -14.4121   14.0182 C   0  0  0  0  0  0  0  0  0  0  0  0
    1.3167  -15.4976   14.2161 O   0  0  0  0  0  0  0  0  0  0  0  0
   -5.1484  -12.8814   16.4967 O   0  0  0  0  0  0  0  0  0  0  0  0
   -7.1680  -11.7478   14.8014 O   0  0  0  0  0  0  0  0  0  0  0  0
    6.1110  -10.9274   18.8031 N   0  0  0  0  0  0  0  0  0  0  0  0
    2.3384   -7.7021   18.4437 C   0  0  0  0  0  0  0  0  0  0  0  0
    1.7276   -6.6400   18.3988 O   0  0  0  0  0  0  0  0  0  0  0  0
    3.7715   -7.8436   19.0066 C   0  0  1  0  0  0  0  0  0  0  0  0
    4.4227   -9.1366   18.4753 C   0  0  0  0  0  0  0  0  0  0  0  0
    5.7117   -9.5733   19.1812 C   0  0  0  0  0  0  0  0  0  0  0  0
    4.5452   -6.6827   18.6283 O   0  0  0  0  0  0  0  0  0  0  0  0
  1  2  1  6  0  0  0
  1  3  1  0  0  0  0
  1  8  1  0  0  0  0
  3  4  1  0  0  0  0
  3 32  1  6  0  0  0
  4  5  1  0  0  0  0
  4 33  1  1  0  0  0
  5  6  1  6  0  0  0
  5  7  1  0  0  0  0
  7  8  1  0  0  0  0
  7  9  1  1  0  0  0
  9 10  1  0  0  0  0
 11 12  1  1  0  0  0
 11 13  1  0  0  0  0
 11 19  1  0  0  0  0
 12 35  1  0  0  0  0
 13 14  1  0  0  0  0
 14 15  1  1  0  0  0
 14 16  1  0  0  0  0
 16  2  1  6  0  0  0
 16 17  1  0  0  0  0
 17 18  1  1  0  0  0
 17 19  1  0  0  0  0
 19 20  1  6  0  0  0
 21 20  1  6  0  0  0
 21 22  1  0  0  0  0
 21 29  1  0  0  0  0
 22 23  1  1  0  0  0
 22 24  1  0  0  0  0
 24 25  1  6  0  0  0
 24 26  1  0  0  0  0
 26 27  1  6  0  0  0
 26 28  1  0  0  0  0
 28 29  1  0  0  0  0
 28 30  1  6  0  0  0
 30 31  1  0  0  0  0
 34 39  1  0  0  0  0
 35 36  2  0  0  0  0
 37 35  1  6  0  0  0
 37 38  1  0  0  0  0
 37 40  1  0  0  0  0
 38 39  1  0  0  0  0
M  END
>  <CHROM.1>
-149.19466544,-70.35155115,-66.13922697,-68.80864950,125.61618843,-169.67436185
65.42024905,19.42494142,-166.90719082,168.60116906,-0.58611558,-10.37356956
16.26407306,-3.11383062,0.06772315,-2.43419806

>  <Name>
2g5q_lig

>  <RI>
0

>  <Rbt.Current_Directory>
/home/itssahil/PROJECTS/Mol_Feturizer/New_Systems/rnas/2g5q

>  <Rbt.Executable>
rbdock ($Id: //depot/dev/client3/rdock/2013.1/src/exe/rbdock.cxx#4 $)

>  <Rbt.Library>
libRbt.so (2013.1, Build901 2013/11/27)

>  <Rbt.Parameter_File>
/export/apps/rDock/src/rDock_2013.1_src/data/scripts/dock_solv.prm

>  <Rbt.Receptor>
prm/pocket_docking_3.prm

>  <SCORE>
-8.82225

>  <SCORE.INTER>
-8.09457

>  <SCORE.INTER.CONST>
1

>  <SCORE.INTER.POLAR>
-1.24739

>  <SCORE.INTER.ROT>
10

>  <SCORE.INTER.SOLV>
13.6133

>  <SCORE.INTER.VDW>
-16.0429

>  <SCORE.INTER.norm>
-0.202364

>  <SCORE.INTRA>
-0.739584

>  <SCORE.INTRA.DIHEDRAL>
-7.26373

>  <SCORE.INTRA.DIHEDRAL.0>
22.5778

>  <SCORE.INTRA.POLAR>
0

>  <SCORE.INTRA.POLAR.0>
0

>  <SCORE.INTRA.REPUL>
0

>  <SCORE.INTRA.REPUL.0>
0

>  <SCORE.INTRA.SOLV>
2.61708

>  <SCORE.INTRA.SOLV.lig_0>
-102.332

>  <SCORE.INTRA.VDW>
1.58374

>  <SCORE.INTRA.VDW.0>
-5.08747

>  <SCORE.INTRA.norm>
-0.0184896

>  <SCORE.RESTR>
0.0119003

>  <SCORE.RESTR.CAVITY>
0.0119003

>  <SCORE.RESTR.norm>
0.000297507

>  <SCORE.SYSTEM>
0

>  <SCORE.SYSTEM.CONST>
0

>  <SCORE.SYSTEM.DIHEDRAL>
0

>  <SCORE.SYSTEM.SOLV>
0

>  <SCORE.SYSTEM.norm>
0

>  <SCORE.heavy>
40

>  <SCORE.norm>
-0.220556

>  <RMSD>
8.237

$$$$
2g5q_lig
 OpenBabel11021811433D
libRbt.so/2013.1/901 2013/11/27
 40 42  0  0  0  0  0  0  0  0999 V2000
   -5.0543   -9.7200   17.3309 C   0  0  2  0  0  0  0  0  0  0  0  0
   -4.0324   -8.7874   17.0565 O   0  0  0  0  0  0  0  0  0  0  0  0
   -5.8246  -10.0234   16.0120 C   0  0  1  0  0  0  0  0  0  0  0  0
   -6.6100   -8.7778   15.4972 C   0  0  2  0  0  0  0  0  0  0  0  0
   -7.6130   -8.3592   16.6034 C   0  0  2  0  0  0  0  0  0  0  0  0
   -8.3743   -7.2255   16.1568 O   0  0  0  0  0  0  0  0  0  0  0  0
   -6.7930   -8.0157   17.9125 C   0  0  2  0  0  0  0  0  0  0  0  0
   -6.0070   -9.2049   18.3493 O   0  0  0  0  0  0  0  0  0  0  0  0
   -7.6865   -7.6022   19.0771 C   0  0  0  0  0  0  0  0  0  0  0  0
   -6.8921   -7.2386   20.2930 N   0  0  0  0  0  0  0  0  0  0  0  0
    0.2798   -8.2617   17.5107 C   0  0  2  0  0  0  0  0  0  0  0  0
    1.6389   -8.3835   18.0243 N   0  0  0  0  0  0  0  0  0  0  0  0
   -0.6801   -7.6797   18.6313 C   0  0  0  0  0  0  0  0  0  0  0  0
   -2.1523   -7.5393   18.0768 C   0  0  2  0  0  0  0  0  0  0  0  0
   -3.0397   -6.9823   19.1333 N   0  0  0  0  0  0  0  0  0  0  0  0
   -2.6649   -8.9491   17.5789 C   0  0  2  0  0  0  0  0  0  0  0  0
   -1.6830   -9.4973   16.4689 C   0  0  2  0  0  0  0  0  0  0  0  0
   -2.1456  -10.7765   16.0242 O   0  0  0  0  0  0  0  0  0  0  0  0
   -0.2240   -9.6443   17.0473 C   0  0  1  0  0  0  0  0  0  0  0  0
    0.6807  -10.1376   16.0195 O   0  0  0  0  0  0  0  0  0  0  0  0
    1.9614  -10.6583   16.2778 C   0  0  2  0  0  0  0  0  0  0  0  0
    2.7054  -10.7777   14.9047 C   0  0  2  0  0  0  0  0  0  0  0  0
    2.7998   -9.5203   14.3162 O   0  0  0  0  0  0  0  0  0  0  0  0
    1.9744  -11.7941   13.9479 C   0  0  1  0  0  0  0  0  0  0  0  0
    2.6822  -11.9189   12.6312 N   0  0  0  0  0  0  0  0  0  0  0  0
    1.8964  -13.1939   14.6771 C   0  0  2  0  0  0  0  0  0  0  0  0
    1.2473  -14.1633   13.8518 O   0  0  0  0  0  0  0  0  0  0  0  0
    1.1425  -13.0071   16.0370 C   0  0  2  0  0  0  0  0  0  0  0  0
    1.8327  -11.9880   16.9001 O   0  0  0  0  0  0  0  0  0  0  0  0
    1.0552  -14.2934   16.8059 C   0  0  0  0  0  0  0  0  0  0  0  0
    0.3103  -14.1242   18.0230 O   0  0  0  0  0  0  0  0  0  0  0  0
   -4.8575  -10.4898   15.0092 O   0  0  0  0  0  0  0  0  0  0  0  0
   -7.2810   -9.1055   14.3397 O   0  0  0  0  0  0  0  0  0  0  0  0
    6.9419  -10.7010   17.4121 N   0  0  0  0  0  0  0  0  0  0  0  0
    2.7800   -7.9128   17.3898 C   0  0  0  0  0  0  0  0  0  0  0  0
    2.7725   -7.3398   16.3058 O   0  0  0  0  0  0  0  0  0  0  0  0
    4.0667   -8.2071   18.1948 C   0  0  1  0  0  0  0  0  0  0  0  0
    4.9240   -9.2550   17.4565 C   0  0  0  0  0  0  0  0  0  0  0  0
    6.1936   -9.7115   18.1846 C   0  0  0  0  0  0  0  0  0  0  0  0
    4.8015   -6.9760   18.3791 O   0  0  0  0  0  0  0  0  0  0  0  0
  1  2  1  6  0  0  0
  1  3  1  0  0  0  0
  1  8  1  0  0  0  0
  3  4  1  0  0  0  0
  3 32  1  6  0  0  0
  4  5  1  0  0  0  0
  4 33  1  6  0  0  0
  5  6  1  6  0  0  0
  5  7  1  0  0  0  0
  7  8  1  0  0  0  0
  7  9  1  1  0  0  0
  9 10  1  0  0  0  0
 11 12  1  1  0  0  0
 11 13  1  0  0  0  0
 11 19  1  0  0  0  0
 12 35  1  0  0  0  0
 13 14  1  0  0  0  0
 14 15  1  1  0  0  0
 14 16  1  0  0  0  0
 16  2  1  6  0  0  0
 16 17  1  0  0  0  0
 17 18  1  1  0  0  0
 17 19  1  0  0  0  0
 19 20  1  6  0  0  0
 21 20  1  6  0  0  0
 21 22  1  0  0  0  0
 21 29  1  0  0  0  0
 22 23  1  6  0  0  0
 22 24  1  0  0  0  0
 24 25  1  6  0  0  0
 24 26  1  0  0  0  0
 26 27  1  6  0  0  0
 26 28  1  0  0  0  0
 28 29  1  0  0  0  0
 28 30  1  1  0  0  0
 30 31  1  0  0  0  0
 34 39  1  0  0  0  0
 35 36  2  0  0  0  0
 37 35  1  6  0  0  0
 37 38  1  0  0  0  0
 37 40  1  0  0  0  0
 38 39  1  0  0  0  0
M  END
>  <CHROM.1>
-134.99760684,-178.16233424,-130.38659588,-137.84635398,75.51162381,-167.94032534
-177.41644513,111.25136430,-176.28729435,-179.93340408,-0.89148388,-9.71586571
16.72644896,2.93810919,-0.05862344,0.61793977

>  <Name>
2g5q_lig

>  <RI>
0

>  <Rbt.Current_Directory>
/home/itssahil/PROJECTS/Mol_Feturizer/New_Systems/rnas/2g5q

>  <Rbt.Executable>
rbdock ($Id: //depot/dev/client3/rdock/2013.1/src/exe/rbdock.cxx#4 $)

>  <Rbt.Library>
libRbt.so (2013.1, Build901 2013/11/27)

>  <Rbt.Parameter_File>
/export/apps/rDock/src/rDock_2013.1_src/data/scripts/dock_solv.prm

>  <Rbt.Receptor>
prm/pocket_docking_5.prm

>  <SCORE>
-11.8747

>  <SCORE.INTER>
-8.56192

>  <SCORE.INTER.CONST>
1

>  <SCORE.INTER.POLAR>
-1.79216

>  <SCORE.INTER.ROT>
10

>  <SCORE.INTER.SOLV>
14.7524

>  <SCORE.INTER.VDW>
-14.9182

>  <SCORE.INTER.norm>
-0.214048

>  <SCORE.INTRA>
-3.3128

>  <SCORE.INTRA.DIHEDRAL>
-5.28824

>  <SCORE.INTRA.DIHEDRAL.0>
22.5778

>  <SCORE.INTRA.POLAR>
0

>  <SCORE.INTRA.POLAR.0>
0

>  <SCORE.INTRA.REPUL>
0

>  <SCORE.INTRA.REPUL.0>
0

>  <SCORE.INTRA.SOLV>
0.694125

>  <SCORE.INTRA.SOLV.lig_0>
-102.332

>  <SCORE.INTRA.VDW>
-1.01575

>  <SCORE.INTRA.VDW.0>
-5.08747

>  <SCORE.INTRA.norm>
-0.0828201

>  <SCORE.RESTR>
0

>  <SCORE.RESTR.CAVITY>
0

>  <SCORE.RESTR.norm>
0

>  <SCORE.SYSTEM>
0

>  <SCORE.SYSTEM.CONST>
0

>  <SCORE.SYSTEM.DIHEDRAL>
0

>  <SCORE.SYSTEM.SOLV>
0

>  <SCORE.SYSTEM.norm>
0

>  <SCORE.heavy>
40

>  <SCORE.norm>
-0.296868

>  <RMSD>
8.256

$$$$
2g5q_lig
 OpenBabel11021811433D
libRbt.so/2013.1/901 2013/11/27
 40 42  0  0  0  0  0  0  0  0999 V2000
   -3.7584  -10.8981   21.7318 C   0  0  2  0  0  0  0  0  0  0  0  0
   -3.4572  -10.2898   20.4954 O   0  0  0  0  0  0  0  0  0  0  0  0
   -4.6787  -12.1278   21.4753 C   0  0  1  0  0  0  0  0  0  0  0  0
   -6.0804  -11.7035   20.9380 C   0  0  2  0  0  0  0  0  0  0  0  0
   -6.7322  -10.7747   21.9951 C   0  0  2  0  0  0  0  0  0  0  0  0
   -8.0386  -10.3795   21.5462 O   0  0  0  0  0  0  0  0  0  0  0  0
   -5.7935   -9.5167   22.1963 C   0  0  2  0  0  0  0  0  0  0  0  0
   -4.4439   -9.9548   22.6539 O   0  0  0  0  0  0  0  0  0  0  0  0
   -6.3342   -8.5366   23.2320 C   0  0  0  0  0  0  0  0  0  0  0  0
   -6.5728   -9.1934   24.5562 N   0  0  0  0  0  0  0  0  0  0  0  0
    0.0383   -8.2034   18.9123 C   0  0  2  0  0  0  0  0  0  0  0  0
    1.0912   -7.2102   18.7371 N   0  0  0  0  0  0  0  0  0  0  0  0
   -1.3871   -7.5247   18.7592 C   0  0  0  0  0  0  0  0  0  0  0  0
   -2.5308   -8.5987   18.9412 C   0  0  2  0  0  0  0  0  0  0  0  0
   -3.8616   -7.9519   18.7842 N   0  0  0  0  0  0  0  0  0  0  0  0
   -2.3883   -9.2860   20.3573 C   0  0  2  0  0  0  0  0  0  0  0  0
   -0.9572   -9.9458   20.4737 C   0  0  2  0  0  0  0  0  0  0  0  0
   -0.8283  -10.5619   21.7589 O   0  0  0  0  0  0  0  0  0  0  0  0
    0.1681   -8.8549   20.3047 C   0  0  1  0  0  0  0  0  0  0  0  0
    1.4850   -9.4672   20.4001 O   0  0  0  0  0  0  0  0  0  0  0  0
    1.8335  -10.6896   19.7981 C   0  0  2  0  0  0  0  0  0  0  0  0
    3.3345  -10.9727   20.1449 C   0  0  2  0  0  0  0  0  0  0  0  0
    3.4861  -11.0487   21.5261 O   0  0  0  0  0  0  0  0  0  0  0  0
    4.2777   -9.8680   19.5345 C   0  0  1  0  0  0  0  0  0  0  0  0
    5.7185  -10.1329   19.8575 N   0  0  0  0  0  0  0  0  0  0  0  0
    4.0516   -9.8311   17.9709 C   0  0  2  0  0  0  0  0  0  0  0  0
    4.8890   -8.8487   17.3577 O   0  0  0  0  0  0  0  0  0  0  0  0
    2.5377   -9.5432   17.6921 C   0  0  2  0  0  0  0  0  0  0  0  0
    1.6639  -10.5820   18.3380 O   0  0  0  0  0  0  0  0  0  0  0  0
    2.2368   -9.5236   16.2214 C   0  0  0  0  0  0  0  0  0  0  0  0
    2.9572   -8.4737   15.5554 O   0  0  0  0  0  0  0  0  0  0  0  0
   -3.9995  -13.0238   20.5298 O   0  0  0  0  0  0  0  0  0  0  0  0
   -6.8549  -12.8256   20.7421 O   0  0  0  0  0  0  0  0  0  0  0  0
    2.9319   -2.6446   21.9512 N   0  0  0  0  0  0  0  0  0  0  0  0
    1.4553   -6.2550   19.6758 C   0  0  0  0  0  0  0  0  0  0  0  0
    0.9182   -6.1335   20.7713 O   0  0  0  0  0  0  0  0  0  0  0  0
    2.6044   -5.3476   19.1792 C   0  0  1  0  0  0  0  0  0  0  0  0
    3.1776   -4.5299   20.3543 C   0  0  0  0  0  0  0  0  0  0  0  0
    2.2940   -3.3859   20.8652 C   0  0  0  0  0  0  0  0  0  0  0  0
    3.6281   -6.1690   18.5739 O   0  0  0  0  0  0  0  0  0  0  0  0
  1  2  1  6  0  0  0
  1  3  1  0  0  0  0
  1  8  1  0  0  0  0
  3  4  1  0  0  0  0
  3 32  1  6  0  0  0
  4  5  1  0  0  0  0
  4 33  1  1  0  0  0
  5  6  1  6  0  0  0
  5  7  1  0  0  0  0
  7  8  1  0  0  0  0
  7  9  1  1  0  0  0
  9 10  1  0  0  0  0
 11 12  1  1  0  0  0
 11 13  1  0  0  0  0
 11 19  1  0  0  0  0
 12 35  1  0  0  0  0
 13 14  1  0  0  0  0
 14 15  1  1  0  0  0
 14 16  1  0  0  0  0
 16  2  1  6  0  0  0
 16 17  1  0  0  0  0
 17 18  1  1  0  0  0
 17 19  1  0  0  0  0
 19 20  1  6  0  0  0
 21 20  1  1  0  0  0
 21 22  1  0  0  0  0
 21 29  1  0  0  0  0
 22 23  1  1  0  0  0
 22 24  1  0  0  0  0
 24 25  1  6  0  0  0
 24 26  1  0  0  0  0
 26 27  1  6  0  0  0
 26 28  1  0  0  0  0
 28 29  1  0  0  0  0
 28 30  1  6  0  0  0
 30 31  1  0  0  0  0
 34 39  1  0  0  0  0
 35 36  2  0  0  0  0
 37 35  1  1  0  0  0
 37 38  1  0  0  0  0
 37 40  1  0  0  0  0
 38 39  1  0  0  0  0
M  END
>  <CHROM.1>
-166.66665338,56.15983082,75.40817604,-167.93462213,-77.18682878,179.77110364
-62.29112446,-167.29092829,-73.04765058,-178.38895147,-0.55084834,-9.04574446
20.11956959,-2.92980558,0.36162856,0.26548618

>  <Name>
2g5q_lig

>  <RI>
2.47104e+07

>  <Rbt.Current_Directory>
/home/itssahil/PROJECTS/Mol_Feturizer/New_Systems/rnas/2g5q

>  <Rbt.Executable>
rbdock ($Id: //depot/dev/client3/rdock/2013.1/src/exe/rbdock.cxx#4 $)

>  <Rbt.Library>
libRbt.so (2013.1, Build901 2013/11/27)

>  <Rbt.Parameter_File>
/export/apps/rDock/src/rDock_2013.1_src/data/scripts/dock_solv.prm

>  <Rbt.Receptor>
prm/pocket_docking_7.prm

>  <SCORE>
-13.2979

>  <SCORE.INTER>
-5.94432

>  <SCORE.INTER.CONST>
1

>  <SCORE.INTER.POLAR>
-0.911357

>  <SCORE.INTER.ROT>
10

>  <SCORE.INTER.SOLV>
8.90792

>  <SCORE.INTER.VDW>
-14.161

>  <SCORE.INTER.norm>
-0.148608

>  <SCORE.INTRA>
-7.35356

>  <SCORE.INTRA.DIHEDRAL>
-17.8386

>  <SCORE.INTRA.DIHEDRAL.0>
22.5778

>  <SCORE.INTRA.POLAR>
0

>  <SCORE.INTRA.POLAR.0>
0

>  <SCORE.INTRA.REPUL>
0

>  <SCORE.INTRA.REPUL.0>
0

>  <SCORE.INTRA.SOLV>
1.92372

>  <SCORE.INTRA.SOLV.lig_0>
-102.332

>  <SCORE.INTRA.VDW>
0.603889

>  <SCORE.INTRA.VDW.0>
-5.08747

>  <SCORE.INTRA.norm>
-0.183839

>  <SCORE.RESTR>
0

>  <SCORE.RESTR.CAVITY>
0

>  <SCORE.RESTR.norm>
0

>  <SCORE.SYSTEM>
0

>  <SCORE.SYSTEM.CONST>
0

>  <SCORE.SYSTEM.DIHEDRAL>
0

>  <SCORE.SYSTEM.SOLV>
0

>  <SCORE.SYSTEM.norm>
0

>  <SCORE.heavy>
40

>  <SCORE.norm>
-0.332447

>  <RMSD>
8.268

$$$$
2g5q_lig
 OpenBabel11021811433D
libRbt.so/2013.1/901 2013/11/27
 40 42  0  0  0  0  0  0  0  0999 V2000
    0.1986  -14.2544   13.9599 C   0  0  2  0  0  0  0  0  0  0  0  0
   -0.2093  -13.7677   15.2194 O   0  0  0  0  0  0  0  0  0  0  0  0
    1.0139  -15.5646   14.1680 C   0  0  1  0  0  0  0  0  0  0  0  0
    2.3654  -15.2988   14.9002 C   0  0  2  0  0  0  0  0  0  0  0  0
    3.1851  -14.3051   14.0368 C   0  0  2  0  0  0  0  0  0  0  0  0
    4.4508  -14.0519   14.6680 O   0  0  0  0  0  0  0  0  0  0  0  0
    2.3468  -12.9716   13.8846 C   0  0  2  0  0  0  0  0  0  0  0  0
    1.0370  -13.2635   13.2350 O   0  0  0  0  0  0  0  0  0  0  0  0
    3.0567  -11.9218   13.0363 C   0  0  0  0  0  0  0  0  0  0  0  0
    4.3619  -11.5021   13.6382 N   0  0  0  0  0  0  0  0  0  0  0  0
   -2.6673  -10.5761   16.9074 C   0  0  2  0  0  0  0  0  0  0  0  0
   -3.7218   -9.5815   17.0634 N   0  0  0  0  0  0  0  0  0  0  0  0
   -1.8148  -10.2722   15.6048 C   0  0  0  0  0  0  0  0  0  0  0  0
   -0.6665  -11.3434   15.4358 C   0  0  2  0  0  0  0  0  0  0  0  0
    0.1322  -11.0407   14.2174 N   0  0  0  0  0  0  0  0  0  0  0  0
   -1.3006  -12.7893   15.3639 C   0  0  2  0  0  0  0  0  0  0  0  0
   -2.1439  -13.0533   16.6738 C   0  0  2  0  0  0  0  0  0  0  0  0
   -2.7222  -14.3604   16.6036 O   0  0  0  0  0  0  0  0  0  0  0  0
   -3.2929  -11.9832   16.8147 C   0  0  1  0  0  0  0  0  0  0  0  0
   -4.0603  -12.2213   18.0283 O   0  0  0  0  0  0  0  0  0  0  0  0
   -5.2532  -11.5509   18.3531 C   0  0  2  0  0  0  0  0  0  0  0  0
   -5.9136  -12.3197   19.5474 C   0  0  2  0  0  0  0  0  0  0  0  0
   -5.0450  -12.3238   20.6346 O   0  0  0  0  0  0  0  0  0  0  0  0
   -6.3038  -13.7887   19.1323 C   0  0  1  0  0  0  0  0  0  0  0  0
   -6.9414  -14.5320   20.2686 N   0  0  0  0  0  0  0  0  0  0  0  0
   -7.2826  -13.7112   17.8940 C   0  0  2  0  0  0  0  0  0  0  0  0
   -7.6789  -15.0186   17.4749 O   0  0  0  0  0  0  0  0  0  0  0  0
   -6.5648  -12.9355   16.7383 C   0  0  2  0  0  0  0  0  0  0  0  0
   -6.1534  -11.5608   17.1863 O   0  0  0  0  0  0  0  0  0  0  0  0
   -7.4473  -12.7930   15.5322 C   0  0  0  0  0  0  0  0  0  0  0  0
   -8.6149  -12.0099   15.8296 O   0  0  0  0  0  0  0  0  0  0  0  0
    0.1816  -16.5116   14.9221 O   0  0  0  0  0  0  0  0  0  0  0  0
    3.0490  -16.4859   15.0454 O   0  0  0  0  0  0  0  0  0  0  0  0
   -8.2469   -8.2355   19.5541 N   0  0  0  0  0  0  0  0  0  0  0  0
   -3.5867   -8.3676   17.7224 C   0  0  0  0  0  0  0  0  0  0  0  0
   -2.5509   -7.9941   18.2618 O   0  0  0  0  0  0  0  0  0  0  0  0
   -4.8950   -7.5437   17.7161 C   0  0  1  0  0  0  0  0  0  0  0  0
   -5.9364   -8.1986   18.6460 C   0  0  0  0  0  0  0  0  0  0  0  0
   -7.3490   -7.6058   18.5881 C   0  0  0  0  0  0  0  0  0  0  0  0
   -4.6049   -6.1917   18.1371 O   0  0  0  0  0  0  0  0  0  0  0  0
  1  2  1  1  0  0  0
  1  3  1  0  0  0  0
  1  8  1  0  0  0  0
  3  4  1  0  0  0  0
  3 32  1  1  0  0  0
  4  5  1  0  0  0  0
  4 33  1  6  0  0  0
  5  6  1  1  0  0  0
  5  7  1  0  0  0  0
  7  8  1  0  0  0  0
  7  9  1  6  0  0  0
  9 10  1  0  0  0  0
 11 12  1  6  0  0  0
 11 13  1  0  0  0  0
 11 19  1  0  0  0  0
 12 35  1  0  0  0  0
 13 14  1  0  0  0  0
 14 15  1  6  0  0  0
 14 16  1  0  0  0  0
 16  2  1  1  0  0  0
 16 17  1  0  0  0  0
 17 18  1  6  0  0  0
 17 19  1  0  0  0  0
 19 20  1  1  0  0  0
 21 20  1  6  0  0  0
 21 22  1  0  0  0  0
 21 29  1  0  0  0  0
 22 23  1  1  0  0  0
 22 24  1  0  0  0  0
 24 25  1  1  0  0  0
 24 26  1  0  0  0  0
 26 27  1  6  0  0  0
 26 28  1  0  0  0  0
 28 29  1  0  0  0  0
 28 30  1  6  0  0  0
 30 31  1  0  0  0  0
 34 39  1  0  0  0  0
 35 36  2  0  0  0  0
 37 35  1  1  0  0  0
 37 38  1  0  0  0  0
 37 40  1  0  0  0  0
 38 39  1  0  0  0  0
M  END
>  <CHROM.1>
-161.95501217,-61.38205456,-87.78749824,-95.20453965,69.08647640,167.30392243
63.23343979,71.07007050,-171.62494609,-176.73925813,-2.68981529,-12.11948252
16.51845456,0.37220864,-0.39954356,-3.03663463

>  <Name>
2g5q_lig

>  <RI>
224

>  <Rbt.Current_Directory>
/home/itssahil/PROJECTS/Mol_Feturizer/New_Systems/rnas/2g5q

>  <Rbt.Executable>
rbdock ($Id: //depot/dev/client3/rdock/2013.1/src/exe/rbdock.cxx#4 $)

>  <Rbt.Library>
libRbt.so (2013.1, Build901 2013/11/27)

>  <Rbt.Parameter_File>
/export/apps/rDock/src/rDock_2013.1_src/data/scripts/dock_solv.prm

>  <Rbt.Receptor>
prm/pocket_docking_8.prm

>  <SCORE>
-11.203

>  <SCORE.INTER>
-5.98225

>  <SCORE.INTER.CONST>
1

>  <SCORE.INTER.POLAR>
0

>  <SCORE.INTER.ROT>
10

>  <SCORE.INTER.SOLV>
10.507

>  <SCORE.INTER.VDW>
-17.7572

>  <SCORE.INTER.norm>
-0.149556

>  <SCORE.INTRA>
-5.22078

>  <SCORE.INTRA.DIHEDRAL>
-13.5283

>  <SCORE.INTRA.DIHEDRAL.0>
22.5778

>  <SCORE.INTRA.POLAR>
0

>  <SCORE.INTRA.POLAR.0>
0

>  <SCORE.INTRA.REPUL>
0

>  <SCORE.INTRA.REPUL.0>
0

>  <SCORE.INTRA.SOLV>
3.15523

>  <SCORE.INTRA.SOLV.lig_0>
-102.332

>  <SCORE.INTRA.VDW>
-0.0342599

>  <SCORE.INTRA.VDW.0>
-5.08747

>  <SCORE.INTRA.norm>
-0.130519

>  <SCORE.RESTR>
0

>  <SCORE.RESTR.CAVITY>
0

>  <SCORE.RESTR.norm>
0

>  <SCORE.SYSTEM>
0

>  <SCORE.SYSTEM.CONST>
0

>  <SCORE.SYSTEM.DIHEDRAL>
0

>  <SCORE.SYSTEM.SOLV>
0

>  <SCORE.SYSTEM.norm>
0

>  <SCORE.heavy>
40

>  <SCORE.norm>
-0.280076

>  <RMSD>
8.272

$$$$
2g5q_lig
 OpenBabel11021811433D
libRbt.so/2013.1/901 2013/11/27
 40 42  0  0  0  0  0  0  0  0999 V2000
   -3.5048  -11.0411   15.9175 C   0  0  2  0  0  0  0  0  0  0  0  0
   -3.4059   -9.9167   16.7633 O   0  0  0  0  0  0  0  0  0  0  0  0
   -5.0030  -11.2705   15.5604 C   0  0  1  0  0  0  0  0  0  0  0  0
   -5.8407  -11.6902   16.8077 C   0  0  2  0  0  0  0  0  0  0  0  0
   -5.2309  -13.0008   17.3693 C   0  0  2  0  0  0  0  0  0  0  0  0
   -5.9911  -13.4338   18.5090 O   0  0  0  0  0  0  0  0  0  0  0  0
   -3.7243  -12.7184   17.7626 C   0  0  2  0  0  0  0  0  0  0  0  0
   -2.9609  -12.2636   16.5654 O   0  0  0  0  0  0  0  0  0  0  0  0
   -3.0181  -13.9510   18.3171 C   0  0  0  0  0  0  0  0  0  0  0  0
   -3.5856  -14.3781   19.6352 N   0  0  0  0  0  0  0  0  0  0  0  0
    0.0979   -7.8092   18.2992 C   0  0  2  0  0  0  0  0  0  0  0  0
    1.2850   -7.4942   19.0850 N   0  0  0  0  0  0  0  0  0  0  0  0
   -1.1573   -7.9936   19.2513 C   0  0  0  0  0  0  0  0  0  0  0  0
   -2.4471   -8.3279   18.4034 C   0  0  2  0  0  0  0  0  0  0  0  0
   -3.6188   -8.4873   19.3067 N   0  0  0  0  0  0  0  0  0  0  0  0
   -2.1945   -9.6355   17.5523 C   0  0  2  0  0  0  0  0  0  0  0  0
   -0.9367   -9.4154   16.6215 C   0  0  2  0  0  0  0  0  0  0  0  0
   -0.7061  -10.6026   15.8565 O   0  0  0  0  0  0  0  0  0  0  0  0
    0.3416   -9.0986   17.4880 C   0  0  1  0  0  0  0  0  0  0  0  0
    1.4958   -8.8842   16.6277 O   0  0  0  0  0  0  0  0  0  0  0  0
    2.0152   -9.8500   15.7471 C   0  0  2  0  0  0  0  0  0  0  0  0
    2.6971  -10.9599   16.6168 C   0  0  2  0  0  0  0  0  0  0  0  0
    1.7533  -11.5309   17.4651 O   0  0  0  0  0  0  0  0  0  0  0  0
    3.9104  -10.3763   17.4352 C   0  0  1  0  0  0  0  0  0  0  0  0
    4.5733  -11.4332   18.2682 N   0  0  0  0  0  0  0  0  0  0  0  0
    4.9370   -9.7408   16.4156 C   0  0  2  0  0  0  0  0  0  0  0  0
    6.0677   -9.1991   17.1014 O   0  0  0  0  0  0  0  0  0  0  0  0
    4.1965   -8.6416   15.5814 C   0  0  2  0  0  0  0  0  0  0  0  0
    3.0102   -9.2197   14.8612 O   0  0  0  0  0  0  0  0  0  0  0  0
    5.1026   -8.0104   14.5644 C   0  0  0  0  0  0  0  0  0  0  0  0
    6.1779   -7.2962   15.1957 O   0  0  0  0  0  0  0  0  0  0  0  0
   -5.5292  -10.0367   14.9613 O   0  0  0  0  0  0  0  0  0  0  0  0
   -7.1507  -11.8922   16.4329 O   0  0  0  0  0  0  0  0  0  0  0  0
    5.4560   -9.4012   21.7968 N   0  0  0  0  0  0  0  0  0  0  0  0
    2.4756   -6.9977   18.5732 C   0  0  0  0  0  0  0  0  0  0  0  0
    2.6671   -6.7722   17.3834 O   0  0  0  0  0  0  0  0  0  0  0  0
    3.5425   -6.7760   19.6701 C   0  0  1  0  0  0  0  0  0  0  0  0
    4.0914   -8.1330   20.1554 C   0  0  0  0  0  0  0  0  0  0  0  0
    5.1037   -8.0708   21.3050 C   0  0  0  0  0  0  0  0  0  0  0  0
    4.6032   -5.9504   19.1385 O   0  0  0  0  0  0  0  0  0  0  0  0
  1  2  1  1  0  0  0
  1  3  1  0  0  0  0
  1  8  1  0  0  0  0
  3  4  1  0  0  0  0
  3 32  1  1  0  0  0
  4  5  1  0  0  0  0
  4 33  1  6  0  0  0
  5  6  1  1  0  0  0
  5  7  1  0  0  0  0
  7  8  1  0  0  0  0
  7  9  1  6  0  0  0
  9 10  1  0  0  0  0
 11 12  1  1  0  0  0
 11 13  1  0  0  0  0
 11 19  1  0  0  0  0
 12 35  1  0  0  0  0
 13 14  1  0  0  0  0
 14 15  1  1  0  0  0
 14 16  1  0  0  0  0
 16  2  1  6  0  0  0
 16 17  1  0  0  0  0
 17 18  1  1  0  0  0
 17 19  1  0  0  0  0
 19 20  1  6  0  0  0
 21 20  1  1  0  0  0
 21 22  1  0  0  0  0
 21 29  1  0  0  0  0
 22 23  1  1  0  0  0
 22 24  1  0  0  0  0
 24 25  1  6  0  0  0
 24 26  1  0  0  0  0
 26 27  1  1  0  0  0
 26 28  1  0  0  0  0
 28 29  1  0  0  0  0
 28 30  1  6  0  0  0
 30 31  1  0  0  0  0
 34 39  1  0  0  0  0
 35 36  2  0  0  0  0
 37 35  1  6  0  0  0
 37 38  1  0  0  0  0
 37 40  1  0  0  0  0
 38 39  1  0  0  0  0
M  END
>  <CHROM.1>
164.03612855,-66.69572959,-165.60089589,-178.65476063,179.72871986,-71.09396245
-64.42451241,72.83096113,-176.60015142,173.66895612,0.24060890,-9.79478660
17.47995255,-2.99735683,0.34124738,1.34991912

>  <Name>
2g5q_lig

>  <RI>
2.90231e+07

>  <Rbt.Current_Directory>
/home/itssahil/PROJECTS/Mol_Feturizer/New_Systems/rnas/2g5q

>  <Rbt.Executable>
rbdock ($Id: //depot/dev/client3/rdock/2013.1/src/exe/rbdock.cxx#4 $)

>  <Rbt.Library>
libRbt.so (2013.1, Build901 2013/11/27)

>  <Rbt.Parameter_File>
/export/apps/rDock/src/rDock_2013.1_src/data/scripts/dock_solv.prm

>  <Rbt.Receptor>
prm/pocket_docking_6.prm

>  <SCORE>
-22.9121

>  <SCORE.INTER>
-14.2592

>  <SCORE.INTER.CONST>
1

>  <SCORE.INTER.POLAR>
-2.01202

>  <SCORE.INTER.ROT>
10

>  <SCORE.INTER.SOLV>
13.739

>  <SCORE.INTER.VDW>
-17.6457

>  <SCORE.INTER.norm>
-0.35648

>  <SCORE.INTRA>
-8.65295

>  <SCORE.INTRA.DIHEDRAL>
-19.2058

>  <SCORE.INTRA.DIHEDRAL.0>
22.5778

>  <SCORE.INTRA.POLAR>
0

>  <SCORE.INTRA.POLAR.0>
0

>  <SCORE.INTRA.REPUL>
0

>  <SCORE.INTRA.REPUL.0>
0

>  <SCORE.INTRA.SOLV>
2.36224

>  <SCORE.INTRA.SOLV.lig_0>
-102.332

>  <SCORE.INTRA.VDW>
-0.23119

>  <SCORE.INTRA.VDW.0>
-5.08747

>  <SCORE.INTRA.norm>
-0.216324

>  <SCORE.RESTR>
0

>  <SCORE.RESTR.CAVITY>
0

>  <SCORE.RESTR.norm>
0

>  <SCORE.SYSTEM>
0

>  <SCORE.SYSTEM.CONST>
0

>  <SCORE.SYSTEM.DIHEDRAL>
0

>  <SCORE.SYSTEM.SOLV>
0

>  <SCORE.SYSTEM.norm>
0

>  <SCORE.heavy>
40

>  <SCORE.norm>
-0.572804

>  <RMSD>
8.282

$$$$
2g5q_lig
 OpenBabel11021811433D
libRbt.so/2013.1/901 2013/11/27
 40 42  0  0  0  0  0  0  0  0999 V2000
   -1.7279  -10.9239   18.7024 C   0  0  2  0  0  0  0  0  0  0  0  0
   -1.8411   -9.7140   17.9862 O   0  0  0  0  0  0  0  0  0  0  0  0
   -3.1333  -11.5888   18.7899 C   0  0  1  0  0  0  0  0  0  0  0  0
   -4.1198  -10.7517   19.6614 C   0  0  2  0  0  0  0  0  0  0  0  0
   -3.5106  -10.6292   21.0822 C   0  0  2  0  0  0  0  0  0  0  0  0
   -4.4034   -9.8820   21.9242 O   0  0  0  0  0  0  0  0  0  0  0  0
   -2.1064   -9.9099   20.9595 C   0  0  2  0  0  0  0  0  0  0  0  0
   -1.2033  -10.7007   20.0754 O   0  0  0  0  0  0  0  0  0  0  0  0
   -1.4067   -9.7482   22.3048 C   0  0  0  0  0  0  0  0  0  0  0  0
   -1.1395  -11.0671   22.9611 N   0  0  0  0  0  0  0  0  0  0  0  0
    2.0784   -9.3244   16.0986 C   0  0  2  0  0  0  0  0  0  0  0  0
    3.2167   -8.7586   15.3845 N   0  0  0  0  0  0  0  0  0  0  0  0
    0.7853   -9.2952   15.1805 C   0  0  0  0  0  0  0  0  0  0  0  0
   -0.4488   -9.9140   15.9478 C   0  0  2  0  0  0  0  0  0  0  0  0
   -1.6518   -9.8910   15.0724 N   0  0  0  0  0  0  0  0  0  0  0  0
   -0.6952   -9.1096   17.2858 C   0  0  2  0  0  0  0  0  0  0  0  0
    0.6135   -9.1575   18.1701 C   0  0  2  0  0  0  0  0  0  0  0  0
    0.3902   -8.4232   19.3780 O   0  0  0  0  0  0  0  0  0  0  0  0
    1.8281   -8.5216   17.3920 C   0  0  1  0  0  0  0  0  0  0  0  0
    3.0347   -8.5782   18.2039 O   0  0  0  0  0  0  0  0  0  0  0  0
    4.1996   -7.8351   17.9410 C   0  0  2  0  0  0  0  0  0  0  0  0
    5.3815   -8.5321   18.6962 C   0  0  2  0  0  0  0  0  0  0  0  0
    5.5218   -9.8378   18.2358 O   0  0  0  0  0  0  0  0  0  0  0  0
    5.1550   -8.5058   20.2553 C   0  0  1  0  0  0  0  0  0  0  0  0
    6.2845   -9.1673   20.9881 N   0  0  0  0  0  0  0  0  0  0  0  0
    4.9985   -7.0001   20.7087 C   0  0  2  0  0  0  0  0  0  0  0  0
    4.7970   -6.9111   22.1206 O   0  0  0  0  0  0  0  0  0  0  0  0
    3.8037   -6.3633   19.9215 C   0  0  2  0  0  0  0  0  0  0  0  0
    4.0244   -6.4586   18.4375 O   0  0  0  0  0  0  0  0  0  0  0  0
    3.6110   -4.9175   20.2767 C   0  0  0  0  0  0  0  0  0  0  0  0
    2.3419   -4.4305   19.8109 O   0  0  0  0  0  0  0  0  0  0  0  0
   -3.6489  -11.7603   17.4250 O   0  0  0  0  0  0  0  0  0  0  0  0
   -5.3389  -11.3907   19.7152 O   0  0  0  0  0  0  0  0  0  0  0  0
    6.1938   -6.2297   12.3082 N   0  0  0  0  0  0  0  0  0  0  0  0
    4.1571   -9.4879   14.6705 C   0  0  0  0  0  0  0  0  0  0  0  0
    4.1390  -10.7094   14.5654 O   0  0  0  0  0  0  0  0  0  0  0  0
    5.2426   -8.5890   14.0348 C   0  0  1  0  0  0  0  0  0  0  0  0
    4.9257   -8.3512   12.5445 C   0  0  0  0  0  0  0  0  0  0  0  0
    5.9794   -7.5654   11.7553 C   0  0  0  0  0  0  0  0  0  0  0  0
    5.3025   -7.3377   14.7559 O   0  0  0  0  0  0  0  0  0  0  0  0
  1  2  1  1  0  0  0
  1  3  1  0  0  0  0
  1  8  1  0  0  0  0
  3  4  1  0  0  0  0
  3 32  1  6  0  0  0
  4  5  1  0  0  0  0
  4 33  1  1  0  0  0
  5  6  1  1  0  0  0
  5  7  1  0  0  0  0
  7  8  1  0  0  0  0
  7  9  1  1  0  0  0
  9 10  1  0  0  0  0
 11 12  1  6  0  0  0
 11 13  1  0  0  0  0
 11 19  1  0  0  0  0
 12 35  1  0  0  0  0
 13 14  1  0  0  0  0
 14 15  1  6  0  0  0
 14 16  1  0  0  0  0
 16  2  1  1  0  0  0
 16 17  1  0  0  0  0
 17 18  1  1  0  0  0
 17 19  1  0  0  0  0
 19 20  1  1  0  0  0
 21 20  1  1  0  0  0
 21 22  1  0  0  0  0
 21 29  1  0  0  0  0
 22 23  1  6  0  0  0
 22 24  1  0  0  0  0
 24 25  1  1  0  0  0
 24 26  1  0  0  0  0
 26 27  1  1  0  0  0
 26 28  1  0  0  0  0
 28 29  1  0  0  0  0
 28 30  1  1  0  0  0
 30 31  1  0  0  0  0
 34 39  1  0  0  0  0
 35 36  2  0  0  0  0
 37 35  1  1  0  0  0
 37 38  1  0  0  0  0
 37 40  1  0  0  0  0
 38 39  1  0  0  0  0
M  END
>  <CHROM.1>
-156.03923278,60.47396113,-94.84309101,76.59205665,75.85833084,-160.40163702
-166.07725874,-99.68969415,-175.33520923,-59.95992724,1.51987140,-8.92316858
18.07095825,2.74241338,0.40890904,1.39149791

>  <Name>
2g5q_lig

>  <RI>
0

>  <Rbt.Current_Directory>
/home/itssahil/PROJECTS/Mol_Feturizer/New_Systems/rnas/2g5q

>  <Rbt.Executable>
rbdock ($Id: //depot/dev/client3/rdock/2013.1/src/exe/rbdock.cxx#4 $)

>  <Rbt.Library>
libRbt.so (2013.1, Build901 2013/11/27)

>  <Rbt.Parameter_File>
/export/apps/rDock/src/rDock_2013.1_src/data/scripts/dock_solv.prm

>  <Rbt.Receptor>
prm/pocket_docking_5.prm

>  <SCORE>
-19.7342

>  <SCORE.INTER>
-14.9767

>  <SCORE.INTER.CONST>
1

>  <SCORE.INTER.POLAR>
-2.0494

>  <SCORE.INTER.ROT>
10

>  <SCORE.INTER.SOLV>
16.2863

>  <SCORE.INTER.VDW>
-18.8485

>  <SCORE.INTER.norm>
-0.374417

>  <SCORE.INTRA>
-4.7575

>  <SCORE.INTRA.DIHEDRAL>
-12.3877

>  <SCORE.INTRA.DIHEDRAL.0>
22.5778

>  <SCORE.INTRA.POLAR>
0

>  <SCORE.INTRA.POLAR.0>
0

>  <SCORE.INTRA.REPUL>
0

>  <SCORE.INTRA.REPUL.0>
0

>  <SCORE.INTRA.SOLV>
3.10279

>  <SCORE.INTRA.SOLV.lig_0>
-102.332

>  <SCORE.INTRA.VDW>
-0.115059

>  <SCORE.INTRA.VDW.0>
-5.08747

>  <SCORE.INTRA.norm>
-0.118938

>  <SCORE.RESTR>
0

>  <SCORE.RESTR.CAVITY>
0

>  <SCORE.RESTR.norm>
0

>  <SCORE.SYSTEM>
0

>  <SCORE.SYSTEM.CONST>
0

>  <SCORE.SYSTEM.DIHEDRAL>
0

>  <SCORE.SYSTEM.SOLV>
0

>  <SCORE.SYSTEM.norm>
0

>  <SCORE.heavy>
40

>  <SCORE.norm>
-0.493354

>  <RMSD>
8.283

$$$$
2g5q_lig
 OpenBabel11021811433D
libRbt.so/2013.1/901 2013/11/27
 40 42  0  0  0  0  0  0  0  0999 V2000
   -4.9914   -8.1598   16.1596 C   0  0  2  0  0  0  0  0  0  0  0  0
   -4.6918   -8.2226   17.5365 O   0  0  0  0  0  0  0  0  0  0  0  0
   -6.2408   -7.2523   15.9587 C   0  0  1  0  0  0  0  0  0  0  0  0
   -7.5263   -7.8878   16.5728 C   0  0  2  0  0  0  0  0  0  0  0  0
   -7.7570   -9.2555   15.8790 C   0  0  2  0  0  0  0  0  0  0  0  0
   -8.9487   -9.8640   16.4025 O   0  0  0  0  0  0  0  0  0  0  0  0
   -6.4893  -10.1653   16.1421 C   0  0  2  0  0  0  0  0  0  0  0  0
   -5.2672   -9.5079   15.5969 O   0  0  0  0  0  0  0  0  0  0  0  0
   -6.6027  -11.5386   15.4888 C   0  0  0  0  0  0  0  0  0  0  0  0
   -7.6741  -12.3735   16.1186 N   0  0  0  0  0  0  0  0  0  0  0  0
   -0.5768   -9.6868   17.5496 C   0  0  2  0  0  0  0  0  0  0  0  0
    0.7061  -10.1954   18.0200 N   0  0  0  0  0  0  0  0  0  0  0  0
   -0.8862   -8.2801   18.2139 C   0  0  0  0  0  0  0  0  0  0  0  0
   -2.2719   -7.7220   17.7014 C   0  0  2  0  0  0  0  0  0  0  0  0
   -2.5449   -6.3979   18.3230 N   0  0  0  0  0  0  0  0  0  0  0  0
   -3.4150   -8.7612   18.0354 C   0  0  2  0  0  0  0  0  0  0  0  0
   -3.0701  -10.1483   17.3617 C   0  0  2  0  0  0  0  0  0  0  0  0
   -4.1031  -11.0892   17.6706 O   0  0  0  0  0  0  0  0  0  0  0  0
   -1.6920  -10.6941   17.8982 C   0  0  1  0  0  0  0  0  0  0  0  0
   -1.3709  -11.9656   17.2670 O   0  0  0  0  0  0  0  0  0  0  0  0
   -1.7058  -12.2967   15.9417 C   0  0  2  0  0  0  0  0  0  0  0  0
   -1.1118  -13.7159   15.6479 C   0  0  2  0  0  0  0  0  0  0  0  0
   -1.6565  -14.6404   16.5340 O   0  0  0  0  0  0  0  0  0  0  0  0
    0.4610  -13.7050   15.7413 C   0  0  1  0  0  0  0  0  0  0  0  0
    1.0400  -15.0593   15.4569 N   0  0  0  0  0  0  0  0  0  0  0  0
    1.0116  -12.6341   14.7179 C   0  0  2  0  0  0  0  0  0  0  0  0
    2.4393  -12.5834   14.7517 O   0  0  0  0  0  0  0  0  0  0  0  0
    0.3837  -11.2422   15.0658 C   0  0  2  0  0  0  0  0  0  0  0  0
   -1.1178  -11.3032   15.0256 O   0  0  0  0  0  0  0  0  0  0  0  0
    0.8369  -10.1738   14.1135 C   0  0  0  0  0  0  0  0  0  0  0  0
    0.2517   -8.9024   14.4389 O   0  0  0  0  0  0  0  0  0  0  0  0
   -5.9608   -5.9412   16.5593 O   0  0  0  0  0  0  0  0  0  0  0  0
   -8.5994   -7.0520   16.3552 O   0  0  0  0  0  0  0  0  0  0  0  0
    5.8260   -9.7430   17.8055 N   0  0  0  0  0  0  0  0  0  0  0  0
    1.0946  -10.2816   19.3496 C   0  0  0  0  0  0  0  0  0  0  0  0
    0.3938   -9.9268   20.2910 O   0  0  0  0  0  0  0  0  0  0  0  0
    2.5193  -10.8598   19.5118 C   0  0  1  0  0  0  0  0  0  0  0  0
    3.5257  -10.0219   18.6974 C   0  0  0  0  0  0  0  0  0  0  0  0
    4.9620  -10.5564   18.6588 C   0  0  0  0  0  0  0  0  0  0  0  0
    2.8698  -10.8679   20.9141 O   0  0  0  0  0  0  0  0  0  0  0  0
  1  2  1  1  0  0  0
  1  3  1  0  0  0  0
  1  8  1  0  0  0  0
  3  4  1  0  0  0  0
  3 32  1  1  0  0  0
  4  5  1  0  0  0  0
  4 33  1  6  0  0  0
  5  6  1  1  0  0  0
  5  7  1  0  0  0  0
  7  8  1  0  0  0  0
  7  9  1  6  0  0  0
  9 10  1  0  0  0  0
 11 12  1  1  0  0  0
 11 13  1  0  0  0  0
 11 19  1  0  0  0  0
 12 35  1  0  0  0  0
 13 14  1  0  0  0  0
 14 15  1  1  0  0  0
 14 16  1  0  0  0  0
 16  2  1  6  0  0  0
 16 17  1  0  0  0  0
 17 18  1  1  0  0  0
 17 19  1  0  0  0  0
 19 20  1  6  0  0  0
 21 20  1  1  0  0  0
 21 22  1  0  0  0  0
 21 29  1  0  0  0  0
 22 23  1  1  0  0  0
 22 24  1  0  0  0  0
 24 25  1  6  0  0  0
 24 26  1  0  0  0  0
 26 27  1  1  0  0  0
 26 28  1  0  0  0  0
 28 29  1  0  0  0  0
 28 30  1  6  0  0  0
 30 31  1  0  0  0  0
 34 39  1  0  0  0  0
 35 36  2  0  0  0  0
 37 35  1  1  0  0  0
 37 38  1  0  0  0  0
 37 40  1  0  0  0  0
 38 39  1  0  0  0  0
M  END
>  <CHROM.1>
-166.88582636,-67.43709720,50.13359524,71.94826179,-85.40911902,177.07341994
179.80871172,55.81921998,-174.52981691,176.78317837,-1.97598454,-10.26131990
16.88506732,-2.97655271,0.23366223,-2.63414691

>  <Name>
2g5q_lig

>  <RI>
9.52566e+06

>  <Rbt.Current_Directory>
/home/itssahil/PROJECTS/Mol_Feturizer/New_Systems/rnas/2g5q

>  <Rbt.Executable>
rbdock ($Id: //depot/dev/client3/rdock/2013.1/src/exe/rbdock.cxx#4 $)

>  <Rbt.Library>
libRbt.so (2013.1, Build901 2013/11/27)

>  <Rbt.Parameter_File>
/export/apps/rDock/src/rDock_2013.1_src/data/scripts/dock_solv.prm

>  <Rbt.Receptor>
prm/pocket_docking_4.prm

>  <SCORE>
-10.257

>  <SCORE.INTER>
-2.95337

>  <SCORE.INTER.CONST>
1

>  <SCORE.INTER.POLAR>
-0.897472

>  <SCORE.INTER.ROT>
10

>  <SCORE.INTER.SOLV>
14.9849

>  <SCORE.INTER.VDW>
-14.239

>  <SCORE.INTER.norm>
-0.0738342

>  <SCORE.INTRA>
-7.3036

>  <SCORE.INTRA.DIHEDRAL>
-17.0462

>  <SCORE.INTRA.DIHEDRAL.0>
22.5778

>  <SCORE.INTRA.POLAR>
0

>  <SCORE.INTRA.POLAR.0>
0

>  <SCORE.INTRA.REPUL>
0

>  <SCORE.INTRA.REPUL.0>
0

>  <SCORE.INTRA.SOLV>
1.58727

>  <SCORE.INTRA.SOLV.lig_0>
-102.332

>  <SCORE.INTRA.VDW>
0.42585

>  <SCORE.INTRA.VDW.0>
-5.08747

>  <SCORE.INTRA.norm>
-0.18259

>  <SCORE.RESTR>
0

>  <SCORE.RESTR.CAVITY>
0

>  <SCORE.RESTR.norm>
0

>  <SCORE.SYSTEM>
0

>  <SCORE.SYSTEM.CONST>
0

>  <SCORE.SYSTEM.DIHEDRAL>
0

>  <SCORE.SYSTEM.SOLV>
0

>  <SCORE.SYSTEM.norm>
0

>  <SCORE.heavy>
40

>  <SCORE.norm>
-0.256424

>  <RMSD>
8.290

$$$$
2g5q_lig
 OpenBabel11021811433D
libRbt.so/2013.1/901 2013/11/27
 40 42  0  0  0  0  0  0  0  0999 V2000
   -3.0278  -13.6939   17.8200 C   0  0  2  0  0  0  0  0  0  0  0  0
   -2.9680  -12.8276   16.7085 O   0  0  0  0  0  0  0  0  0  0  0  0
   -4.5058  -14.1350   18.0337 C   0  0  1  0  0  0  0  0  0  0  0  0
   -5.4127  -12.9413   18.4652 C   0  0  2  0  0  0  0  0  0  0  0  0
   -4.8426  -12.3667   19.7880 C   0  0  2  0  0  0  0  0  0  0  0  0
   -5.6664  -11.2764   20.2318 O   0  0  0  0  0  0  0  0  0  0  0  0
   -3.3580  -11.8881   19.5218 C   0  0  2  0  0  0  0  0  0  0  0  0
   -2.5277  -13.0353   19.0554 O   0  0  0  0  0  0  0  0  0  0  0  0
   -2.6907  -11.3142   20.7672 C   0  0  0  0  0  0  0  0  0  0  0  0
   -3.3875  -10.0846   21.2618 N   0  0  0  0  0  0  0  0  0  0  0  0
    0.4224  -11.4318   14.3348 C   0  0  2  0  0  0  0  0  0  0  0  0
    1.6269  -10.7124   13.9378 N   0  0  0  0  0  0  0  0  0  0  0  0
   -0.7404  -10.4084   14.6761 C   0  0  0  0  0  0  0  0  0  0  0  0
   -2.0495  -11.1838   15.0998 C   0  0  2  0  0  0  0  0  0  0  0  0
   -3.1351  -10.2134   15.4063 N   0  0  0  0  0  0  0  0  0  0  0  0
   -1.7360  -12.1081   16.3429 C   0  0  2  0  0  0  0  0  0  0  0  0
   -0.5723  -13.1088   15.9666 C   0  0  2  0  0  0  0  0  0  0  0  0
   -0.2859  -13.9404   17.0955 O   0  0  0  0  0  0  0  0  0  0  0  0
    0.7281  -12.3150   15.5622 C   0  0  1  0  0  0  0  0  0  0  0  0
    1.7943  -13.2388   15.2044 O   0  0  0  0  0  0  0  0  0  0  0  0
    3.1650  -12.9374   15.2965 C   0  0  2  0  0  0  0  0  0  0  0  0
    3.9550  -14.1666   14.7324 C   0  0  2  0  0  0  0  0  0  0  0  0
    3.5916  -14.3841   13.4069 O   0  0  0  0  0  0  0  0  0  0  0  0
    3.7022  -15.4544   15.6045 C   0  0  1  0  0  0  0  0  0  0  0  0
    4.4585  -16.6366   15.0746 N   0  0  0  0  0  0  0  0  0  0  0  0
    4.1288  -15.1375   17.0928 C   0  0  2  0  0  0  0  0  0  0  0  0
    3.9286  -16.2754   17.9337 O   0  0  0  0  0  0  0  0  0  0  0  0
    3.3047  -13.9048   17.5965 C   0  0  2  0  0  0  0  0  0  0  0  0
    3.5226  -12.7116   16.7084 O   0  0  0  0  0  0  0  0  0  0  0  0
    3.6781  -13.5217   18.9992 C   0  0  0  0  0  0  0  0  0  0  0  0
    2.8206  -12.4842   19.5025 O   0  0  0  0  0  0  0  0  0  0  0  0
   -4.9909  -14.7437   16.7878 O   0  0  0  0  0  0  0  0  0  0  0  0
   -6.7016  -13.3896   18.6525 O   0  0  0  0  0  0  0  0  0  0  0  0
    6.2484  -10.9927   10.0062 N   0  0  0  0  0  0  0  0  0  0  0  0
    2.4101  -11.0111   12.8317 C   0  0  0  0  0  0  0  0  0  0  0  0
    2.1766  -11.9326   12.0573 O   0  0  0  0  0  0  0  0  0  0  0  0
    3.6225  -10.0617   12.6934 C   0  0  1  0  0  0  0  0  0  0  0  0
    4.2736  -10.2345   11.3062 C   0  0  0  0  0  0  0  0  0  0  0  0
    5.5070  -11.1437   11.2566 C   0  0  0  0  0  0  0  0  0  0  0  0
    3.1815   -8.6993   12.8905 O   0  0  0  0  0  0  0  0  0  0  0  0
  1  2  1  6  0  0  0
  1  3  1  0  0  0  0
  1  8  1  0  0  0  0
  3  4  1  0  0  0  0
  3 32  1  6  0  0  0
  4  5  1  0  0  0  0
  4 33  1  1  0  0  0
  5  6  1  6  0  0  0
  5  7  1  0  0  0  0
  7  8  1  0  0  0  0
  7  9  1  1  0  0  0
  9 10  1  0  0  0  0
 11 12  1  1  0  0  0
 11 13  1  0  0  0  0
 11 19  1  0  0  0  0
 12 35  1  0  0  0  0
 13 14  1  0  0  0  0
 14 15  1  1  0  0  0
 14 16  1  0  0  0  0
 16  2  1  6  0  0  0
 16 17  1  0  0  0  0
 17 18  1  1  0  0  0
 17 19  1  0  0  0  0
 19 20  1  6  0  0  0
 21 20  1  1  0  0  0
 21 22  1  0  0  0  0
 21 29  1  0  0  0  0
 22 23  1  6  0  0  0
 22 24  1  0  0  0  0
 24 25  1  6  0  0  0
 24 26  1  0  0  0  0
 26 27  1  1  0  0  0
 26 28  1  0  0  0  0
 28 29  1  0  0  0  0
 28 30  1  1  0  0  0
 30 31  1  0  0  0  0
 34 39  1  0  0  0  0
 35 36  2  0  0  0  0
 37 35  1  6  0  0  0
 37 38  1  0  0  0  0
 37 40  1  0  0  0  0
 38 39  1  0  0  0  0
M  END
>  <CHROM.1>
172.51315225,-62.92779577,-133.19018277,-177.31197806,86.11770800,-176.51272026
-173.84702302,-167.74123290,-98.18751578,-165.77756982,0.32502915,-12.56615153
16.16676113,-2.67623772,0.36168526,-0.91974436

>  <Name>
2g5q_lig

>  <RI>
224

>  <Rbt.Current_Directory>
/home/itssahil/PROJECTS/Mol_Feturizer/New_Systems/rnas/2g5q

>  <Rbt.Executable>
rbdock ($Id: //depot/dev/client3/rdock/2013.1/src/exe/rbdock.cxx#4 $)

>  <Rbt.Library>
libRbt.so (2013.1, Build901 2013/11/27)

>  <Rbt.Parameter_File>
/export/apps/rDock/src/rDock_2013.1_src/data/scripts/dock_solv.prm

>  <Rbt.Receptor>
prm/pocket_docking_8.prm

>  <SCORE>
-12.0655

>  <SCORE.INTER>
-5.75649

>  <SCORE.INTER.CONST>
1

>  <SCORE.INTER.POLAR>
-1.88581

>  <SCORE.INTER.ROT>
10

>  <SCORE.INTER.SOLV>
14.8787

>  <SCORE.INTER.VDW>
-12.7779

>  <SCORE.INTER.norm>
-0.143912

>  <SCORE.INTRA>
-6.309

>  <SCORE.INTRA.DIHEDRAL>
-12.7568

>  <SCORE.INTRA.DIHEDRAL.0>
22.5778

>  <SCORE.INTRA.POLAR>
0

>  <SCORE.INTRA.POLAR.0>
0

>  <SCORE.INTRA.REPUL>
0

>  <SCORE.INTRA.REPUL.0>
0

>  <SCORE.INTRA.SOLV>
0.181386

>  <SCORE.INTRA.SOLV.lig_0>
-102.332

>  <SCORE.INTRA.VDW>
-0.0212962

>  <SCORE.INTRA.VDW.0>
-5.08747

>  <SCORE.INTRA.norm>
-0.157725

>  <SCORE.RESTR>
0

>  <SCORE.RESTR.CAVITY>
0

>  <SCORE.RESTR.norm>
0

>  <SCORE.SYSTEM>
0

>  <SCORE.SYSTEM.CONST>
0

>  <SCORE.SYSTEM.DIHEDRAL>
0

>  <SCORE.SYSTEM.SOLV>
0

>  <SCORE.SYSTEM.norm>
0

>  <SCORE.heavy>
40

>  <SCORE.norm>
-0.301637

>  <RMSD>
8.298

$$$$
2g5q_lig
 OpenBabel11021811433D
libRbt.so/2013.1/901 2013/11/27
 40 42  0  0  0  0  0  0  0  0999 V2000
   -3.8546  -11.2377   15.6779 C   0  0  2  0  0  0  0  0  0  0  0  0
   -3.3223  -10.1502   16.4014 O   0  0  0  0  0  0  0  0  0  0  0  0
   -5.4027  -11.0847   15.6081 C   0  0  1  0  0  0  0  0  0  0  0  0
   -6.0660  -11.2340   17.0121 C   0  0  2  0  0  0  0  0  0  0  0  0
   -5.7042  -12.6387   17.5605 C   0  0  2  0  0  0  0  0  0  0  0  0
   -6.3176  -12.8243   18.8465 O   0  0  0  0  0  0  0  0  0  0  0  0
   -4.1283  -12.7416   17.6602 C   0  0  2  0  0  0  0  0  0  0  0  0
   -3.5173  -12.5376   16.3156 O   0  0  0  0  0  0  0  0  0  0  0  0
   -3.6569  -14.0961   18.1786 C   0  0  0  0  0  0  0  0  0  0  0  0
   -3.8455  -15.1820   17.1653 N   0  0  0  0  0  0  0  0  0  0  0  0
    0.7838   -8.6614   16.4267 C   0  0  2  0  0  0  0  0  0  0  0  0
    2.2001   -8.5228   16.7439 N   0  0  0  0  0  0  0  0  0  0  0  0
   -0.0906   -8.5049   17.7408 C   0  0  0  0  0  0  0  0  0  0  0  0
   -1.6263   -8.6473   17.4005 C   0  0  2  0  0  0  0  0  0  0  0  0
   -2.4356   -8.4875   18.6389 N   0  0  0  0  0  0  0  0  0  0  0  0
   -1.8877  -10.0491   16.7190 C   0  0  2  0  0  0  0  0  0  0  0  0
   -0.9980  -10.1695   15.4187 C   0  0  2  0  0  0  0  0  0  0  0  0
   -1.2316  -11.4419   14.8069 O   0  0  0  0  0  0  0  0  0  0  0  0
    0.5304  -10.0402   15.7827 C   0  0  1  0  0  0  0  0  0  0  0  0
    1.3468  -10.1391   14.5819 O   0  0  0  0  0  0  0  0  0  0  0  0
    2.7056  -10.5022   14.5779 C   0  0  2  0  0  0  0  0  0  0  0  0
    3.2349  -10.3236   13.1147 C   0  0  2  0  0  0  0  0  0  0  0  0
    3.0837   -8.9965   12.7243 O   0  0  0  0  0  0  0  0  0  0  0  0
    2.4917  -11.2921   12.1184 C   0  0  1  0  0  0  0  0  0  0  0  0
    2.9952  -11.1317   10.7145 N   0  0  0  0  0  0  0  0  0  0  0  0
    2.6982  -12.7758   12.6217 C   0  0  2  0  0  0  0  0  0  0  0  0
    2.0501  -13.7046   11.7503 O   0  0  0  0  0  0  0  0  0  0  0  0
    2.1488  -12.8879   14.0840 C   0  0  2  0  0  0  0  0  0  0  0  0
    2.8371  -11.9097   14.9947 O   0  0  0  0  0  0  0  0  0  0  0  0
    2.3386  -14.2672   14.6453 C   0  0  0  0  0  0  0  0  0  0  0  0
    1.7247  -14.3933   15.9384 O   0  0  0  0  0  0  0  0  0  0  0  0
   -5.7112   -9.7769   15.0143 O   0  0  0  0  0  0  0  0  0  0  0  0
   -7.4318  -11.1036   16.8897 O   0  0  0  0  0  0  0  0  0  0  0  0
    5.0036   -8.9334   20.7235 N   0  0  0  0  0  0  0  0  0  0  0  0
    2.9140   -9.3505   17.5991 C   0  0  0  0  0  0  0  0  0  0  0  0
    2.4233  -10.3010   18.1984 O   0  0  0  0  0  0  0  0  0  0  0  0
    4.3964   -8.9300   17.7264 C   0  0  1  0  0  0  0  0  0  0  0  0
    5.1878  -10.0088   18.4931 C   0  0  0  0  0  0  0  0  0  0  0  0
    4.8266  -10.1754   19.9737 C   0  0  0  0  0  0  0  0  0  0  0  0
    4.9461   -8.7280   16.4048 O   0  0  0  0  0  0  0  0  0  0  0  0
  1  2  1  1  0  0  0
  1  3  1  0  0  0  0
  1  8  1  0  0  0  0
  3  4  1  0  0  0  0
  3 32  1  1  0  0  0
  4  5  1  0  0  0  0
  4 33  1  6  0  0  0
  5  6  1  1  0  0  0
  5  7  1  0  0  0  0
  7  8  1  0  0  0  0
  7  9  1  6  0  0  0
  9 10  1  0  0  0  0
 11 12  1  1  0  0  0
 11 13  1  0  0  0  0
 11 19  1  0  0  0  0
 12 35  1  0  0  0  0
 13 14  1  0  0  0  0
 14 15  1  1  0  0  0
 14 16  1  0  0  0  0
 16  2  1  6  0  0  0
 16 17  1  0  0  0  0
 17 18  1  1  0  0  0
 17 19  1  0  0  0  0
 19 20  1  6  0  0  0
 21 20  1  6  0  0  0
 21 22  1  0  0  0  0
 21 29  1  0  0  0  0
 22 23  1  6  0  0  0
 22 24  1  0  0  0  0
 24 25  1  6  0  0  0
 24 26  1  0  0  0  0
 26 27  1  6  0  0  0
 26 28  1  0  0  0  0
 28 29  1  0  0  0  0
 28 30  1  1  0  0  0
 30 31  1  0  0  0  0
 34 39  1  0  0  0  0
 35 36  2  0  0  0  0
 37 35  1  6  0  0  0
 37 38  1  0  0  0  0
 37 40  1  0  0  0  0
 38 39  1  0  0  0  0
M  END
>  <CHROM.1>
175.94710727,71.85340945,61.32428837,174.29400648,82.49961730,-173.55434039
-174.77966051,-170.65343787,-67.39029529,-58.16924152,-0.13078556,-10.96907738
16.06174547,3.08087741,0.21061586,1.08961657

>  <Name>
2g5q_lig

>  <RI>
2.90231e+07

>  <Rbt.Current_Directory>
/home/itssahil/PROJECTS/Mol_Feturizer/New_Systems/rnas/2g5q

>  <Rbt.Executable>
rbdock ($Id: //depot/dev/client3/rdock/2013.1/src/exe/rbdock.cxx#4 $)

>  <Rbt.Library>
libRbt.so (2013.1, Build901 2013/11/27)

>  <Rbt.Parameter_File>
/export/apps/rDock/src/rDock_2013.1_src/data/scripts/dock_solv.prm

>  <Rbt.Receptor>
prm/pocket_docking_6.prm

>  <SCORE>
-19.9804

>  <SCORE.INTER>
-12.5532

>  <SCORE.INTER.CONST>
1

>  <SCORE.INTER.POLAR>
-2.32228

>  <SCORE.INTER.ROT>
10

>  <SCORE.INTER.SOLV>
19.39

>  <SCORE.INTER.VDW>
-17.3578

>  <SCORE.INTER.norm>
-0.313829

>  <SCORE.INTRA>
-7.42722

>  <SCORE.INTRA.DIHEDRAL>
-18.1888

>  <SCORE.INTRA.DIHEDRAL.0>
22.5778

>  <SCORE.INTRA.POLAR>
0

>  <SCORE.INTRA.POLAR.0>
0

>  <SCORE.INTRA.REPUL>
0

>  <SCORE.INTRA.REPUL.0>
0

>  <SCORE.INTRA.SOLV>
1.96991

>  <SCORE.INTRA.SOLV.lig_0>
-102.332

>  <SCORE.INTRA.VDW>
0.682226

>  <SCORE.INTRA.VDW.0>
-5.08747

>  <SCORE.INTRA.norm>
-0.185681

>  <SCORE.RESTR>
0

>  <SCORE.RESTR.CAVITY>
0

>  <SCORE.RESTR.norm>
0

>  <SCORE.SYSTEM>
0

>  <SCORE.SYSTEM.CONST>
0

>  <SCORE.SYSTEM.DIHEDRAL>
0

>  <SCORE.SYSTEM.SOLV>
0

>  <SCORE.SYSTEM.norm>
0

>  <SCORE.heavy>
40

>  <SCORE.norm>
-0.49951

>  <RMSD>
8.303

$$$$
2g5q_lig
 OpenBabel11021811433D
libRbt.so/2013.1/901 2013/11/27
 40 42  0  0  0  0  0  0  0  0999 V2000
   -4.9477  -10.9270   16.9544 C   0  0  2  0  0  0  0  0  0  0  0  0
   -3.9375  -10.9121   15.9701 O   0  0  0  0  0  0  0  0  0  0  0  0
   -6.0494  -11.9414   16.5277 C   0  0  1  0  0  0  0  0  0  0  0  0
   -6.8080  -11.4723   15.2479 C   0  0  2  0  0  0  0  0  0  0  0  0
   -7.4554  -10.0976   15.5575 C   0  0  2  0  0  0  0  0  0  0  0  0
   -8.1851   -9.6409   14.4071 O   0  0  0  0  0  0  0  0  0  0  0  0
   -6.3042   -9.0825   15.9425 C   0  0  2  0  0  0  0  0  0  0  0  0
   -5.5588   -9.5835   17.1326 O   0  0  0  0  0  0  0  0  0  0  0  0
   -6.8320   -7.6927   16.2824 C   0  0  0  0  0  0  0  0  0  0  0  0
   -7.6476   -7.1136   15.1683 N   0  0  0  0  0  0  0  0  0  0  0  0
   -0.0903   -8.8451   15.9099 C   0  0  2  0  0  0  0  0  0  0  0  0
    1.2850   -8.4783   16.2260 N   0  0  0  0  0  0  0  0  0  0  0  0
   -1.0028   -8.7171   17.2009 C   0  0  0  0  0  0  0  0  0  0  0  0
   -2.4952   -9.1067   16.8611 C   0  0  2  0  0  0  0  0  0  0  0  0
   -3.3424   -8.9718   18.0769 N   0  0  0  0  0  0  0  0  0  0  0  0
   -2.5388  -10.5797   16.2898 C   0  0  2  0  0  0  0  0  0  0  0  0
   -1.6165  -10.6687   15.0099 C   0  0  2  0  0  0  0  0  0  0  0  0
   -1.6525  -12.0047   14.4981 O   0  0  0  0  0  0  0  0  0  0  0  0
   -0.1299  -10.2913   15.3743 C   0  0  1  0  0  0  0  0  0  0  0  0
    0.7148  -10.3622   14.1912 O   0  0  0  0  0  0  0  0  0  0  0  0
    0.8822  -11.5182   13.4078 C   0  0  2  0  0  0  0  0  0  0  0  0
    1.6180  -12.5817   14.2915 C   0  0  2  0  0  0  0  0  0  0  0  0
    0.8497  -12.8625   15.4173 O   0  0  0  0  0  0  0  0  0  0  0  0
    3.0562  -12.0848   14.7006 C   0  0  1  0  0  0  0  0  0  0  0  0
    3.7711  -13.0989   15.5438 N   0  0  0  0  0  0  0  0  0  0  0  0
    3.8699  -11.7797   13.3807 C   0  0  2  0  0  0  0  0  0  0  0  0
    5.1910  -11.3302   13.6887 O   0  0  0  0  0  0  0  0  0  0  0  0
    3.0851  -10.7121   12.5459 C   0  0  2  0  0  0  0  0  0  0  0  0
    1.6977  -11.1934   12.2240 O   0  0  0  0  0  0  0  0  0  0  0  0
    3.7830  -10.3915   11.2561 C   0  0  0  0  0  0  0  0  0  0  0  0
    3.2210   -9.2240   10.6350 O   0  0  0  0  0  0  0  0  0  0  0  0
   -5.4157  -13.2498   16.3166 O   0  0  0  0  0  0  0  0  0  0  0  0
   -7.7763  -12.3971   14.9245 O   0  0  0  0  0  0  0  0  0  0  0  0
    6.1164   -7.9894   14.5186 N   0  0  0  0  0  0  0  0  0  0  0  0
    2.0479   -9.0330   17.2441 C   0  0  0  0  0  0  0  0  0  0  0  0
    1.6411   -9.9017   18.0077 O   0  0  0  0  0  0  0  0  0  0  0  0
    3.4655   -8.4204   17.3199 C   0  0  1  0  0  0  0  0  0  0  0  0
    4.1740   -8.5573   15.9570 C   0  0  0  0  0  0  0  0  0  0  0  0
    5.5965   -7.9904   15.8845 C   0  0  0  0  0  0  0  0  0  0  0  0
    3.3611   -7.0327   17.7104 O   0  0  0  0  0  0  0  0  0  0  0  0
  1  2  1  6  0  0  0
  1  3  1  0  0  0  0
  1  8  1  0  0  0  0
  3  4  1  0  0  0  0
  3 32  1  6  0  0  0
  4  5  1  0  0  0  0
  4 33  1  1  0  0  0
  5  6  1  6  0  0  0
  5  7  1  0  0  0  0
  7  8  1  0  0  0  0
  7  9  1  1  0  0  0
  9 10  1  0  0  0  0
 11 12  1  1  0  0  0
 11 13  1  0  0  0  0
 11 19  1  0  0  0  0
 12 35  1  0  0  0  0
 13 14  1  0  0  0  0
 14 15  1  1  0  0  0
 14 16  1  0  0  0  0
 16  2  1  6  0  0  0
 16 17  1  0  0  0  0
 17 18  1  1  0  0  0
 17 19  1  0  0  0  0
 19 20  1  6  0  0  0
 21 20  1  1  0  0  0
 21 22  1  0  0  0  0
 21 29  1  0  0  0  0
 22 23  1  1  0  0  0
 22 24  1  0  0  0  0
 24 25  1  6  0  0  0
 24 26  1  0  0  0  0
 26 27  1  1  0  0  0
 26 28  1  0  0  0  0
 28 29  1  0  0  0  0
 28 30  1  6  0  0  0
 30 31  1  0  0  0  0
 34 39  1  0  0  0  0
 35 36  2  0  0  0  0
 37 35  1  6  0  0  0
 37 38  1  0  0  0  0
 37 40  1  0  0  0  0
 38 39  1  0  0  0  0
M  END
>  <CHROM.1>
-151.85127880,-56.28313466,54.21185659,-60.99119742,-177.64583005,-65.97725979
-167.76382459,-55.55884372,-179.97231096,-171.83939663,-0.77154065,-10.21269199
15.32346579,-3.06389941,-0.11476910,-2.36770293

>  <Name>
2g5q_lig

>  <RI>
9.52566e+06

>  <Rbt.Current_Directory>
/home/itssahil/PROJECTS/Mol_Feturizer/New_Systems/rnas/2g5q

>  <Rbt.Executable>
rbdock ($Id: //depot/dev/client3/rdock/2013.1/src/exe/rbdock.cxx#4 $)

>  <Rbt.Library>
libRbt.so (2013.1, Build901 2013/11/27)

>  <Rbt.Parameter_File>
/export/apps/rDock/src/rDock_2013.1_src/data/scripts/dock_solv.prm

>  <Rbt.Receptor>
prm/pocket_docking_4.prm

>  <SCORE>
-12.2648

>  <SCORE.INTER>
-7.21799

>  <SCORE.INTER.CONST>
1

>  <SCORE.INTER.POLAR>
-0.58931

>  <SCORE.INTER.ROT>
10

>  <SCORE.INTER.SOLV>
13.5325

>  <SCORE.INTER.VDW>
-17.6251

>  <SCORE.INTER.norm>
-0.18045

>  <SCORE.INTRA>
-5.09123

>  <SCORE.INTRA.DIHEDRAL>
-17.4193

>  <SCORE.INTRA.DIHEDRAL.0>
22.5778

>  <SCORE.INTRA.POLAR>
0

>  <SCORE.INTRA.POLAR.0>
0

>  <SCORE.INTRA.REPUL>
0

>  <SCORE.INTRA.REPUL.0>
0

>  <SCORE.INTRA.SOLV>
4.26384

>  <SCORE.INTRA.SOLV.lig_0>
-102.332

>  <SCORE.INTRA.VDW>
1.48649

>  <SCORE.INTRA.VDW.0>
-5.08747

>  <SCORE.INTRA.norm>
-0.127281

>  <SCORE.RESTR>
0.0444531

>  <SCORE.RESTR.CAVITY>
0.0444531

>  <SCORE.RESTR.norm>
0.00111133

>  <SCORE.SYSTEM>
0

>  <SCORE.SYSTEM.CONST>
0

>  <SCORE.SYSTEM.DIHEDRAL>
0

>  <SCORE.SYSTEM.SOLV>
0

>  <SCORE.SYSTEM.norm>
0

>  <SCORE.heavy>
40

>  <SCORE.norm>
-0.306619

>  <RMSD>
8.311

$$$$
2g5q_lig
 OpenBabel11021811433D
libRbt.so/2013.1/901 2013/11/27
 40 42  0  0  0  0  0  0  0  0999 V2000
    3.7563  -11.1401   13.6353 C   0  0  2  0  0  0  0  0  0  0  0  0
    4.5089  -10.7343   14.7571 O   0  0  0  0  0  0  0  0  0  0  0  0
    4.4282  -12.3970   13.0080 C   0  0  1  0  0  0  0  0  0  0  0  0
    5.8250  -12.0662   12.3972 C   0  0  2  0  0  0  0  0  0  0  0  0
    5.6210  -10.9834   11.3059 C   0  0  2  0  0  0  0  0  0  0  0  0
    6.8855  -10.6673   10.7015 O   0  0  0  0  0  0  0  0  0  0  0  0
    4.9795   -9.7073   11.9871 C   0  0  2  0  0  0  0  0  0  0  0  0
    3.6741  -10.0644   12.6125 O   0  0  0  0  0  0  0  0  0  0  0  0
    4.7207   -8.5769   10.9966 C   0  0  0  0  0  0  0  0  0  0  0  0
    3.5662   -8.8764   10.0916 N   0  0  0  0  0  0  0  0  0  0  0  0
    3.3183   -8.2815   18.1694 C   0  0  2  0  0  0  0  0  0  0  0  0
    2.9845   -7.1202   18.9852 N   0  0  0  0  0  0  0  0  0  0  0  0
    4.8048   -8.1634   17.6290 C   0  0  0  0  0  0  0  0  0  0  0  0
    5.1731   -9.4231   16.7504 C   0  0  2  0  0  0  0  0  0  0  0  0
    6.5727   -9.3054   16.2592 N   0  0  0  0  0  0  0  0  0  0  0  0
    4.1508   -9.5468   15.5513 C   0  0  2  0  0  0  0  0  0  0  0  0
    2.6838   -9.6579   16.1278 C   0  0  2  0  0  0  0  0  0  0  0  0
    1.7595   -9.7634   15.0404 O   0  0  0  0  0  0  0  0  0  0  0  0
    2.3316   -8.3846   16.9879 C   0  0  1  0  0  0  0  0  0  0  0  0
    0.9846   -8.4951   17.5277 O   0  0  0  0  0  0  0  0  0  0  0  0
   -0.1655   -8.7044   16.7455 C   0  0  2  0  0  0  0  0  0  0  0  0
   -1.4046   -8.3059   17.6167 C   0  0  2  0  0  0  0  0  0  0  0  0
   -1.3026   -6.9680   17.9855 O   0  0  0  0  0  0  0  0  0  0  0  0
   -1.5301   -9.2321   18.8852 C   0  0  1  0  0  0  0  0  0  0  0  0
   -2.7171   -8.8610   19.7239 N   0  0  0  0  0  0  0  0  0  0  0  0
   -1.6357  -10.7312   18.3966 C   0  0  2  0  0  0  0  0  0  0  0  0
   -1.7597  -11.6219   19.5073 O   0  0  0  0  0  0  0  0  0  0  0  0
   -0.3708  -11.0662   17.5362 C   0  0  2  0  0  0  0  0  0  0  0  0
   -0.2489  -10.1268   16.3689 O   0  0  0  0  0  0  0  0  0  0  0  0
   -0.4135  -12.4706   17.0076 C   0  0  0  0  0  0  0  0  0  0  0  0
    0.7733  -12.7831   16.2601 O   0  0  0  0  0  0  0  0  0  0  0  0
    4.5370  -13.4297   14.0471 O   0  0  0  0  0  0  0  0  0  0  0  0
    6.3659  -13.2071   11.8464 O   0  0  0  0  0  0  0  0  0  0  0  0
    3.1581   -2.7194   22.0279 N   0  0  0  0  0  0  0  0  0  0  0  0
    3.6019   -6.7764   20.1797 C   0  0  0  0  0  0  0  0  0  0  0  0
    4.5061   -7.4258   20.6936 O   0  0  0  0  0  0  0  0  0  0  0  0
    3.0102   -5.4903   20.8011 C   0  0  1  0  0  0  0  0  0  0  0  0
    3.6238   -4.2467   20.1265 C   0  0  0  0  0  0  0  0  0  0  0  0
    3.0605   -2.8950   20.5803 C   0  0  0  0  0  0  0  0  0  0  0  0
    1.5734   -5.5066   20.6441 O   0  0  0  0  0  0  0  0  0  0  0  0
  1  2  1  1  0  0  0
  1  3  1  0  0  0  0
  1  8  1  0  0  0  0
  3  4  1  0  0  0  0
  3 32  1  1  0  0  0
  4  5  1  0  0  0  0
  4 33  1  6  0  0  0
  5  6  1  1  0  0  0
  5  7  1  0  0  0  0
  7  8  1  0  0  0  0
  7  9  1  6  0  0  0
  9 10  1  0  0  0  0
 11 12  1  6  0  0  0
 11 13  1  0  0  0  0
 11 19  1  0  0  0  0
 12 35  1  0  0  0  0
 13 14  1  0  0  0  0
 14 15  1  6  0  0  0
 14 16  1  0  0  0  0
 16  2  1  1  0  0  0
 16 17  1  0  0  0  0
 17 18  1  6  0  0  0
 17 19  1  0  0  0  0
 19 20  1  1  0  0  0
 21 20  1  1  0  0  0
 21 22  1  0  0  0  0
 21 29  1  0  0  0  0
 22 23  1  1  0  0  0
 22 24  1  0  0  0  0
 24 25  1  6  0  0  0
 24 26  1  0  0  0  0
 26 27  1  1  0  0  0
 26 28  1  0  0  0  0
 28 29  1  0  0  0  0
 28 30  1  6  0  0  0
 30 31  1  0  0  0  0
 34 39  1  0  0  0  0
 35 36  2  0  0  0  0
 37 35  1  6  0  0  0
 37 38  1  0  0  0  0
 37 40  1  0  0  0  0
 38 39  1  0  0  0  0
M  END
>  <CHROM.1>
178.36127544,72.70860595,-63.51573774,178.05199754,-175.21347775,-162.05544879
-177.92454249,-81.35090698,176.14493632,55.49098122,2.62792506,-9.18247127
16.41690595,1.10875845,-0.48581986,-2.34108718

>  <Name>
2g5q_lig

>  <RI>
224

>  <Rbt.Current_Directory>
/home/itssahil/PROJECTS/Mol_Feturizer/New_Systems/rnas/2g5q

>  <Rbt.Executable>
rbdock ($Id: //depot/dev/client3/rdock/2013.1/src/exe/rbdock.cxx#4 $)

>  <Rbt.Library>
libRbt.so (2013.1, Build901 2013/11/27)

>  <Rbt.Parameter_File>
/export/apps/rDock/src/rDock_2013.1_src/data/scripts/dock_solv.prm

>  <Rbt.Receptor>
prm/pocket_docking_8.prm

>  <SCORE>
-11.3973

>  <SCORE.INTER>
-4.43113

>  <SCORE.INTER.CONST>
1

>  <SCORE.INTER.POLAR>
0

>  <SCORE.INTER.ROT>
10

>  <SCORE.INTER.SOLV>
17.0252

>  <SCORE.INTER.VDW>
-18.8958

>  <SCORE.INTER.norm>
-0.110778

>  <SCORE.INTRA>
-6.96613

>  <SCORE.INTRA.DIHEDRAL>
-18.9722

>  <SCORE.INTRA.DIHEDRAL.0>
22.5778

>  <SCORE.INTRA.POLAR>
0

>  <SCORE.INTRA.POLAR.0>
0

>  <SCORE.INTRA.REPUL>
0.0204894

>  <SCORE.INTRA.REPUL.0>
0

>  <SCORE.INTRA.SOLV>
1.15986

>  <SCORE.INTRA.SOLV.lig_0>
-102.332

>  <SCORE.INTRA.VDW>
1.83759

>  <SCORE.INTRA.VDW.0>
-5.08747

>  <SCORE.INTRA.norm>
-0.174153

>  <SCORE.RESTR>
0

>  <SCORE.RESTR.CAVITY>
0

>  <SCORE.RESTR.norm>
0

>  <SCORE.SYSTEM>
0

>  <SCORE.SYSTEM.CONST>
0

>  <SCORE.SYSTEM.DIHEDRAL>
0

>  <SCORE.SYSTEM.SOLV>
0

>  <SCORE.SYSTEM.norm>
0

>  <SCORE.heavy>
40

>  <SCORE.norm>
-0.284931

>  <RMSD>
8.321

$$$$
2g5q_lig
 OpenBabel11021811433D
libRbt.so/2013.1/901 2013/11/27
 40 42  0  0  0  0  0  0  0  0999 V2000
   -2.0331   -9.5117   17.9800 C   0  0  2  0  0  0  0  0  0  0  0  0
   -1.0834   -9.0861   17.0279 O   0  0  0  0  0  0  0  0  0  0  0  0
   -2.2588  -11.0435   17.8138 C   0  0  1  0  0  0  0  0  0  0  0  0
   -2.9415  -11.3868   16.4538 C   0  0  2  0  0  0  0  0  0  0  0  0
   -4.3052  -10.6499   16.4084 C   0  0  2  0  0  0  0  0  0  0  0  0
   -4.9774  -10.9601   15.1770 O   0  0  0  0  0  0  0  0  0  0  0  0
   -4.0339   -9.0960   16.5344 C   0  0  2  0  0  0  0  0  0  0  0  0
   -3.3295   -8.8030   17.8153 O   0  0  0  0  0  0  0  0  0  0  0  0
   -5.3155   -8.2697   16.5151 C   0  0  0  0  0  0  0  0  0  0  0  0
   -6.0169   -8.3516   15.1949 N   0  0  0  0  0  0  0  0  0  0  0  0
    3.2784   -8.9566   17.2163 C   0  0  2  0  0  0  0  0  0  0  0  0
    4.6710   -9.3843   17.2748 N   0  0  0  0  0  0  0  0  0  0  0  0
    2.4790   -9.5182   18.4659 C   0  0  0  0  0  0  0  0  0  0  0  0
    0.9713   -9.0512   18.4102 C   0  0  2  0  0  0  0  0  0  0  0  0
    0.2356   -9.5750   19.5928 N   0  0  0  0  0  0  0  0  0  0  0  0
    0.3157   -9.5451   17.0595 C   0  0  2  0  0  0  0  0  0  0  0  0
    1.1403   -8.9701   15.8404 C   0  0  2  0  0  0  0  0  0  0  0  0
    0.5488   -9.4237   14.6188 O   0  0  0  0  0  0  0  0  0  0  0  0
    2.6370   -9.4606   15.9069 C   0  0  1  0  0  0  0  0  0  0  0  0
    3.3971   -8.9196   14.7898 O   0  0  0  0  0  0  0  0  0  0  0  0
    4.6600   -9.3926   14.3906 C   0  0  2  0  0  0  0  0  0  0  0  0
    5.3391   -8.2620   13.5457 C   0  0  2  0  0  0  0  0  0  0  0  0
    5.4713   -7.1159   14.3238 O   0  0  0  0  0  0  0  0  0  0  0  0
    4.5193   -7.9612   12.2342 C   0  0  1  0  0  0  0  0  0  0  0  0
    5.1645   -6.8824   11.4155 N   0  0  0  0  0  0  0  0  0  0  0  0
    4.4024   -9.3006   11.4038 C   0  0  2  0  0  0  0  0  0  0  0  0
    3.6721   -9.0883   10.1939 O   0  0  0  0  0  0  0  0  0  0  0  0
    3.7161  -10.3857   12.3006 C   0  0  2  0  0  0  0  0  0  0  0  0
    4.4915  -10.6049   13.5697 O   0  0  0  0  0  0  0  0  0  0  0  0
    3.5971  -11.7019   11.5885 C   0  0  0  0  0  0  0  0  0  0  0  0
    2.8396  -12.6468   12.3618 O   0  0  0  0  0  0  0  0  0  0  0  0
   -0.9596  -11.7179   17.9380 O   0  0  0  0  0  0  0  0  0  0  0  0
   -3.1285  -12.7487   16.3660 O   0  0  0  0  0  0  0  0  0  0  0  0
    9.4659  -10.5058   17.9251 N   0  0  0  0  0  0  0  0  0  0  0  0
    5.1104  -10.6971   17.1769 C   0  0  0  0  0  0  0  0  0  0  0  0
    4.3637  -11.6593   17.0356 O   0  0  0  0  0  0  0  0  0  0  0  0
    6.6484  -10.8142   17.2834 C   0  0  1  0  0  0  0  0  0  0  0  0
    7.1099  -10.4373   18.7057 C   0  0  0  0  0  0  0  0  0  0  0  0
    8.5666  -10.7733   19.0456 C   0  0  0  0  0  0  0  0  0  0  0  0
    7.0442  -12.1646   16.9531 O   0  0  0  0  0  0  0  0  0  0  0  0
  1  2  1  6  0  0  0
  1  3  1  0  0  0  0
  1  8  1  0  0  0  0
  3  4  1  0  0  0  0
  3 32  1  6  0  0  0
  4  5  1  0  0  0  0
  4 33  1  1  0  0  0
  5  6  1  6  0  0  0
  5  7  1  0  0  0  0
  7  8  1  0  0  0  0
  7  9  1  1  0  0  0
  9 10  1  0  0  0  0
 11 12  1  1  0  0  0
 11 13  1  0  0  0  0
 11 19  1  0  0  0  0
 12 35  1  0  0  0  0
 13 14  1  0  0  0  0
 14 15  1  1  0  0  0
 14 16  1  0  0  0  0
 16  2  1  6  0  0  0
 16 17  1  0  0  0  0
 17 18  1  6  0  0  0
 17 19  1  0  0  0  0
 19 20  1  6  0  0  0
 21 20  1  6  0  0  0
 21 22  1  0  0  0  0
 21 29  1  0  0  0  0
 22 23  1  1  0  0  0
 22 24  1  0  0  0  0
 24 25  1  6  0  0  0
 24 26  1  0  0  0  0
 26 27  1  6  0  0  0
 26 28  1  0  0  0  0
 28 29  1  0  0  0  0
 28 30  1  6  0  0  0
 30 31  1  0  0  0  0
 34 39  1  0  0  0  0
 35 36  2  0  0  0  0
 37 35  1  1  0  0  0
 37 38  1  0  0  0  0
 37 40  1  0  0  0  0
 38 39  1  0  0  0  0
M  END
>  <CHROM.1>
-65.09316533,-65.87425938,65.36540167,-62.56124431,75.37533942,-159.73220085
-173.75238072,67.49762357,168.18787542,39.79787693,1.86823358,-9.89814158
15.76990194,-3.00183395,0.02320853,-1.39361714

>  <Name>
2g5q_lig

>  <RI>
2.90231e+07

>  <Rbt.Current_Directory>
/home/itssahil/PROJECTS/Mol_Feturizer/New_Systems/rnas/2g5q

>  <Rbt.Executable>
rbdock ($Id: //depot/dev/client3/rdock/2013.1/src/exe/rbdock.cxx#4 $)

>  <Rbt.Library>
libRbt.so (2013.1, Build901 2013/11/27)

>  <Rbt.Parameter_File>
/export/apps/rDock/src/rDock_2013.1_src/data/scripts/dock_solv.prm

>  <Rbt.Receptor>
prm/pocket_docking_6.prm

>  <SCORE>
-15.7988

>  <SCORE.INTER>
-11.5302

>  <SCORE.INTER.CONST>
1

>  <SCORE.INTER.POLAR>
-2.50334

>  <SCORE.INTER.ROT>
10

>  <SCORE.INTER.SOLV>
21.1618

>  <SCORE.INTER.VDW>
-16.6629

>  <SCORE.INTER.norm>
-0.288254

>  <SCORE.INTRA>
-4.26862

>  <SCORE.INTRA.DIHEDRAL>
-16.4162

>  <SCORE.INTRA.DIHEDRAL.0>
22.5778

>  <SCORE.INTRA.POLAR>
0

>  <SCORE.INTRA.POLAR.0>
0

>  <SCORE.INTRA.REPUL>
0

>  <SCORE.INTRA.REPUL.0>
0

>  <SCORE.INTRA.SOLV>
4.62908

>  <SCORE.INTRA.SOLV.lig_0>
-102.332

>  <SCORE.INTRA.VDW>
1.62493

>  <SCORE.INTRA.VDW.0>
-5.08747

>  <SCORE.INTRA.norm>
-0.106715

>  <SCORE.RESTR>
0

>  <SCORE.RESTR.CAVITY>
0

>  <SCORE.RESTR.norm>
0

>  <SCORE.SYSTEM>
0

>  <SCORE.SYSTEM.CONST>
0

>  <SCORE.SYSTEM.DIHEDRAL>
0

>  <SCORE.SYSTEM.SOLV>
0

>  <SCORE.SYSTEM.norm>
0

>  <SCORE.heavy>
40

>  <SCORE.norm>
-0.39497

>  <RMSD>
8.345

$$$$
2g5q_lig
 OpenBabel11021811433D
libRbt.so/2013.1/901 2013/11/27
 40 42  0  0  0  0  0  0  0  0999 V2000
   -3.9808  -11.2197   15.7229 C   0  0  2  0  0  0  0  0  0  0  0  0
   -3.3687  -10.1500   16.4090 O   0  0  0  0  0  0  0  0  0  0  0  0
   -5.5154  -10.9633   15.6600 C   0  0  1  0  0  0  0  0  0  0  0  0
   -6.1740  -11.0249   17.0728 C   0  0  2  0  0  0  0  0  0  0  0  0
   -5.9035  -12.4341   17.6610 C   0  0  2  0  0  0  0  0  0  0  0  0
   -6.5159  -12.5389   18.9565 O   0  0  0  0  0  0  0  0  0  0  0  0
   -4.3373  -12.6415   17.7520 C   0  0  2  0  0  0  0  0  0  0  0  0
   -3.7267  -12.5200   16.3973 O   0  0  0  0  0  0  0  0  0  0  0  0
   -3.9544  -14.0090   18.3078 C   0  0  0  0  0  0  0  0  0  0  0  0
   -4.1631  -15.1013   17.3053 N   0  0  0  0  0  0  0  0  0  0  0  0
    0.8039   -8.8737   16.6013 C   0  0  2  0  0  0  0  0  0  0  0  0
    2.2226   -8.8375   16.9360 N   0  0  0  0  0  0  0  0  0  0  0  0
   -0.0729   -8.8103   17.9215 C   0  0  0  0  0  0  0  0  0  0  0  0
   -1.6108   -8.8419   17.5632 C   0  0  2  0  0  0  0  0  0  0  0  0
   -2.4219   -8.7706   18.8086 N   0  0  0  0  0  0  0  0  0  0  0  0
   -1.9337  -10.1521   16.7402 C   0  0  2  0  0  0  0  0  0  0  0  0
   -1.0398  -10.1817   15.4376 C   0  0  2  0  0  0  0  0  0  0  0  0
   -1.3292  -11.3719   14.6974 O   0  0  0  0  0  0  0  0  0  0  0  0
    0.4899  -10.1652   15.8182 C   0  0  1  0  0  0  0  0  0  0  0  0
    1.3107  -10.1801   14.6164 O   0  0  0  0  0  0  0  0  0  0  0  0
    2.6692  -10.5434   14.5918 C   0  0  2  0  0  0  0  0  0  0  0  0
    3.1774  -10.3610   13.1215 C   0  0  2  0  0  0  0  0  0  0  0  0
    3.0209   -9.0329   12.7370 O   0  0  0  0  0  0  0  0  0  0  0  0
    2.4197  -11.3267   12.1336 C   0  0  1  0  0  0  0  0  0  0  0  0
    2.9029  -11.1627   10.7229 N   0  0  0  0  0  0  0  0  0  0  0  0
    2.6331  -12.8118   12.6299 C   0  0  2  0  0  0  0  0  0  0  0  0
    1.9723  -13.7381   11.7654 O   0  0  0  0  0  0  0  0  0  0  0  0
    2.1049  -12.9277   14.0996 C   0  0  2  0  0  0  0  0  0  0  0  0
    2.8065  -11.9521   15.0028 O   0  0  0  0  0  0  0  0  0  0  0  0
    2.3025  -14.3086   14.6544 C   0  0  0  0  0  0  0  0  0  0  0  0
    1.7276  -14.4312   15.9657 O   0  0  0  0  0  0  0  0  0  0  0  0
   -5.7397   -9.6557   15.0291 O   0  0  0  0  0  0  0  0  0  0  0  0
   -7.5288  -10.8051   16.9567 O   0  0  0  0  0  0  0  0  0  0  0  0
    6.1552  -10.7225   20.0345 N   0  0  0  0  0  0  0  0  0  0  0  0
    2.8556   -7.8170   17.6317 C   0  0  0  0  0  0  0  0  0  0  0  0
    2.2844   -6.8128   18.0422 O   0  0  0  0  0  0  0  0  0  0  0  0
    4.3680   -8.0791   17.8172 C   0  0  1  0  0  0  0  0  0  0  0  0
    4.5852   -9.2478   18.7995 C   0  0  0  0  0  0  0  0  0  0  0  0
    6.0457   -9.5964   19.1094 C   0  0  0  0  0  0  0  0  0  0  0  0
    4.9593   -8.3693   16.5306 O   0  0  0  0  0  0  0  0  0  0  0  0
  1  2  1  1  0  0  0
  1  3  1  0  0  0  0
  1  8  1  0  0  0  0
  3  4  1  0  0  0  0
  3 32  1  1  0  0  0
  4  5  1  0  0  0  0
  4 33  1  6  0  0  0
  5  6  1  1  0  0  0
  5  7  1  0  0  0  0
  7  8  1  0  0  0  0
  7  9  1  6  0  0  0
  9 10  1  0  0  0  0
 11 12  1  1  0  0  0
 11 13  1  0  0  0  0
 11 19  1  0  0  0  0
 12 35  1  0  0  0  0
 13 14  1  0  0  0  0
 14 15  1  1  0  0  0
 14 16  1  0  0  0  0
 16  2  1  6  0  0  0
 16 17  1  0  0  0  0
 17 18  1  1  0  0  0
 17 19  1  0  0  0  0
 19 20  1  6  0  0  0
 21 20  1  6  0  0  0
 21 22  1  0  0  0  0
 21 29  1  0  0  0  0
 22 23  1  6  0  0  0
 22 24  1  0  0  0  0
 24 25  1  6  0  0  0
 24 26  1  0  0  0  0
 26 27  1  6  0  0  0
 26 28  1  0  0  0  0
 28 29  1  0  0  0  0
 28 30  1  1  0  0  0
 30 31  1  0  0  0  0
 34 39  1  0  0  0  0
 35 36  2  0  0  0  0
 37 35  1  6  0  0  0
 37 38  1  0  0  0  0
 37 40  1  0  0  0  0
 38 39  1  0  0  0  0
M  END
>  <CHROM.1>
174.49498827,74.66489395,-59.05458164,-177.28431548,79.19430695,-177.57399452
-175.78735815,-69.46612089,-178.41418383,-179.35086056,-0.16015741,-10.82710097
16.07976623,3.13015356,0.22321321,0.95432093

>  <Name>
2g5q_lig

>  <RI>
2.90231e+07

>  <Rbt.Current_Directory>
/home/itssahil/PROJECTS/Mol_Feturizer/New_Systems/rnas/2g5q

>  <Rbt.Executable>
rbdock ($Id: //depot/dev/client3/rdock/2013.1/src/exe/rbdock.cxx#4 $)

>  <Rbt.Library>
libRbt.so (2013.1, Build901 2013/11/27)

>  <Rbt.Parameter_File>
/export/apps/rDock/src/rDock_2013.1_src/data/scripts/dock_solv.prm

>  <Rbt.Receptor>
prm/pocket_docking_6.prm

>  <SCORE>
-23.4345

>  <SCORE.INTER>
-14.2554

>  <SCORE.INTER.CONST>
1

>  <SCORE.INTER.POLAR>
-2.43323

>  <SCORE.INTER.ROT>
10

>  <SCORE.INTER.SOLV>
20.417

>  <SCORE.INTER.VDW>
-18.4651

>  <SCORE.INTER.norm>
-0.356384

>  <SCORE.INTRA>
-9.17917

>  <SCORE.INTRA.DIHEDRAL>
-18.9625

>  <SCORE.INTRA.DIHEDRAL.0>
22.5778

>  <SCORE.INTRA.POLAR>
0

>  <SCORE.INTRA.POLAR.0>
0

>  <SCORE.INTRA.REPUL>
0

>  <SCORE.INTRA.REPUL.0>
0

>  <SCORE.INTRA.SOLV>
-0.687097

>  <SCORE.INTRA.SOLV.lig_0>
-102.332

>  <SCORE.INTRA.VDW>
0.645644

>  <SCORE.INTRA.VDW.0>
-5.08747

>  <SCORE.INTRA.norm>
-0.229479

>  <SCORE.RESTR>
0

>  <SCORE.RESTR.CAVITY>
0

>  <SCORE.RESTR.norm>
0

>  <SCORE.SYSTEM>
0

>  <SCORE.SYSTEM.CONST>
0

>  <SCORE.SYSTEM.DIHEDRAL>
0

>  <SCORE.SYSTEM.SOLV>
0

>  <SCORE.SYSTEM.norm>
0

>  <SCORE.heavy>
40

>  <SCORE.norm>
-0.585864

>  <RMSD>
8.373

$$$$
2g5q_lig
 OpenBabel11021811433D
libRbt.so/2013.1/901 2013/11/27
 40 42  0  0  0  0  0  0  0  0999 V2000
   -5.6506   -9.1845   16.7021 C   0  0  2  0  0  0  0  0  0  0  0  0
   -4.4399   -9.1161   15.9816 O   0  0  0  0  0  0  0  0  0  0  0  0
   -6.1355  -10.6640   16.7297 C   0  0  1  0  0  0  0  0  0  0  0  0
   -6.5384  -11.1708   15.3103 C   0  0  2  0  0  0  0  0  0  0  0  0
   -7.6769  -10.2576   14.7862 C   0  0  2  0  0  0  0  0  0  0  0  0
   -8.0929  -10.7074   13.4866 O   0  0  0  0  0  0  0  0  0  0  0  0
   -7.1347   -8.7720   14.7290 C   0  0  2  0  0  0  0  0  0  0  0  0
   -6.7030   -8.3335   16.0869 O   0  0  0  0  0  0  0  0  0  0  0  0
   -8.1831   -7.7797   14.2372 C   0  0  0  0  0  0  0  0  0  0  0  0
   -9.3762   -7.7293   15.1404 N   0  0  0  0  0  0  0  0  0  0  0  0
   -0.1615   -9.6752   16.6597 C   0  0  2  0  0  0  0  0  0  0  0  0
    1.0973  -10.1885   17.1867 N   0  0  0  0  0  0  0  0  0  0  0  0
   -1.0472   -9.0825   17.8345 C   0  0  0  0  0  0  0  0  0  0  0  0
   -2.4090   -8.5187   17.2668 C   0  0  2  0  0  0  0  0  0  0  0  0
   -3.2250   -7.9560   18.3765 N   0  0  0  0  0  0  0  0  0  0  0  0
   -3.1824   -9.6711   16.5106 C   0  0  2  0  0  0  0  0  0  0  0  0
   -2.2687  -10.2382   15.3529 C   0  0  2  0  0  0  0  0  0  0  0  0
   -2.9685  -11.2856   14.6738 O   0  0  0  0  0  0  0  0  0  0  0  0
   -0.9229  -10.8093   15.9425 C   0  0  1  0  0  0  0  0  0  0  0  0
   -0.0780  -11.3197   14.8729 O   0  0  0  0  0  0  0  0  0  0  0  0
   -0.4795  -12.3011   13.9489 C   0  0  2  0  0  0  0  0  0  0  0  0
   -0.5614  -13.6636   14.7171 C   0  0  2  0  0  0  0  0  0  0  0  0
   -1.4871  -13.5595   15.7509 O   0  0  0  0  0  0  0  0  0  0  0  0
    0.8514  -14.0927   15.2670 C   0  0  1  0  0  0  0  0  0  0  0  0
    0.7842  -15.3994   16.0007 N   0  0  0  0  0  0  0  0  0  0  0  0
    1.8515  -14.1860   14.0469 C   0  0  2  0  0  0  0  0  0  0  0  0
    3.1537  -14.5802   14.4841 O   0  0  0  0  0  0  0  0  0  0  0  0
    1.8892  -12.7967   13.3251 C   0  0  2  0  0  0  0  0  0  0  0  0
    0.5165  -12.3905   12.8662 O   0  0  0  0  0  0  0  0  0  0  0  0
    2.7984  -12.8149   12.1307 C   0  0  0  0  0  0  0  0  0  0  0  0
    4.1751  -12.9348   12.5247 O   0  0  0  0  0  0  0  0  0  0  0  0
   -5.0642  -11.4906   17.3015 O   0  0  0  0  0  0  0  0  0  0  0  0
   -6.9704  -12.4760   15.3955 O   0  0  0  0  0  0  0  0  0  0  0  0
    5.5119  -10.4221   15.6359 N   0  0  0  0  0  0  0  0  0  0  0  0
    2.2547   -9.4434   17.3636 C   0  0  0  0  0  0  0  0  0  0  0  0
    2.3509   -8.2533   17.0848 O   0  0  0  0  0  0  0  0  0  0  0  0
    3.4174  -10.2862   17.9365 C   0  0  1  0  0  0  0  0  0  0  0  0
    3.7222  -11.4723   16.9992 C   0  0  0  0  0  0  0  0  0  0  0  0
    4.2197  -11.1038   15.5967 C   0  0  0  0  0  0  0  0  0  0  0  0
    4.5799   -9.4421   18.0958 O   0  0  0  0  0  0  0  0  0  0  0  0
  1  2  1  6  0  0  0
  1  3  1  0  0  0  0
  1  8  1  0  0  0  0
  3  4  1  0  0  0  0
  3 32  1  6  0  0  0
  4  5  1  0  0  0  0
  4 33  1  1  0  0  0
  5  6  1  6  0  0  0
  5  7  1  0  0  0  0
  7  8  1  0  0  0  0
  7  9  1  1  0  0  0
  9 10  1  0  0  0  0
 11 12  1  1  0  0  0
 11 13  1  0  0  0  0
 11 19  1  0  0  0  0
 12 35  1  0  0  0  0
 13 14  1  0  0  0  0
 14 15  1  1  0  0  0
 14 16  1  0  0  0  0
 16  2  1  6  0  0  0
 16 17  1  0  0  0  0
 17 18  1  1  0  0  0
 17 19  1  0  0  0  0
 19 20  1  6  0  0  0
 21 20  1  1  0  0  0
 21 22  1  0  0  0  0
 21 29  1  0  0  0  0
 22 23  1  1  0  0  0
 22 24  1  0  0  0  0
 24 25  1  6  0  0  0
 24 26  1  0  0  0  0
 26 27  1  1  0  0  0
 26 28  1  0  0  0  0
 28 29  1  0  0  0  0
 28 30  1  6  0  0  0
 30 31  1  0  0  0  0
 34 39  1  0  0  0  0
 35 36  2  0  0  0  0
 37 35  1  6  0  0  0
 37 38  1  0  0  0  0
 37 40  1  0  0  0  0
 38 39  1  0  0  0  0
M  END
>  <CHROM.1>
-70.35035534,61.45612333,-87.83369723,-93.11594360,-175.59738844,-71.21746747
-68.87519685,58.29093079,63.67126226,64.20118760,-1.43936743,-10.90581984
15.58803949,-2.95017297,0.13093471,-2.49571956

>  <Name>
2g5q_lig

>  <RI>
2.90231e+07

>  <Rbt.Current_Directory>
/home/itssahil/PROJECTS/Mol_Feturizer/New_Systems/rnas/2g5q

>  <Rbt.Executable>
rbdock ($Id: //depot/dev/client3/rdock/2013.1/src/exe/rbdock.cxx#4 $)

>  <Rbt.Library>
libRbt.so (2013.1, Build901 2013/11/27)

>  <Rbt.Parameter_File>
/export/apps/rDock/src/rDock_2013.1_src/data/scripts/dock_solv.prm

>  <Rbt.Receptor>
prm/pocket_docking_6.prm

>  <SCORE>
-14.5505

>  <SCORE.INTER>
-9.56217

>  <SCORE.INTER.CONST>
1

>  <SCORE.INTER.POLAR>
-0.916515

>  <SCORE.INTER.ROT>
10

>  <SCORE.INTER.SOLV>
11.4169

>  <SCORE.INTER.VDW>
-17.392

>  <SCORE.INTER.norm>
-0.239054

>  <SCORE.INTRA>
-4.98831

>  <SCORE.INTRA.DIHEDRAL>
-15.4345

>  <SCORE.INTRA.DIHEDRAL.0>
22.5778

>  <SCORE.INTRA.POLAR>
0

>  <SCORE.INTRA.POLAR.0>
0

>  <SCORE.INTRA.REPUL>
0

>  <SCORE.INTRA.REPUL.0>
0

>  <SCORE.INTRA.SOLV>
4.80374

>  <SCORE.INTRA.SOLV.lig_0>
-102.332

>  <SCORE.INTRA.VDW>
0.327087

>  <SCORE.INTRA.VDW.0>
-5.08747

>  <SCORE.INTRA.norm>
-0.124708

>  <SCORE.RESTR>
0

>  <SCORE.RESTR.CAVITY>
0

>  <SCORE.RESTR.norm>
0

>  <SCORE.SYSTEM>
0

>  <SCORE.SYSTEM.CONST>
0

>  <SCORE.SYSTEM.DIHEDRAL>
0

>  <SCORE.SYSTEM.SOLV>
0

>  <SCORE.SYSTEM.norm>
0

>  <SCORE.heavy>
40

>  <SCORE.norm>
-0.363762

>  <RMSD>
8.387

$$$$
2g5q_lig
 OpenBabel11021811433D
libRbt.so/2013.1/901 2013/11/27
 40 42  0  0  0  0  0  0  0  0999 V2000
    5.3562   -1.3604   24.3147 C   0  0  2  0  0  0  0  0  0  0  0  0
    5.2405   -2.1459   23.1488 O   0  0  0  0  0  0  0  0  0  0  0  0
    3.9304   -1.0792   24.8740 C   0  0  1  0  0  0  0  0  0  0  0  0
    3.0982   -0.1718   23.9161 C   0  0  2  0  0  0  0  0  0  0  0  0
    3.8649    1.1652   23.7442 C   0  0  2  0  0  0  0  0  0  0  0  0
    3.1170    2.0400   22.8842 O   0  0  0  0  0  0  0  0  0  0  0  0
    5.2891    0.8452   23.1329 C   0  0  2  0  0  0  0  0  0  0  0  0
    6.0400   -0.0693   24.0398 O   0  0  0  0  0  0  0  0  0  0  0  0
    6.1398    2.0950   22.9332 C   0  0  0  0  0  0  0  0  0  0  0  0
    5.4609    3.1028   22.0584 N   0  0  0  0  0  0  0  0  0  0  0  0
    4.8404   -6.4661   22.6461 C   0  0  2  0  0  0  0  0  0  0  0  0
    4.2863   -7.8143   22.6787 N   0  0  0  0  0  0  0  0  0  0  0  0
    4.9359   -5.8765   24.1155 C   0  0  0  0  0  0  0  0  0  0  0  0
    5.5424   -4.4186   24.0855 C   0  0  2  0  0  0  0  0  0  0  0  0
    5.6370   -3.8816   25.4699 N   0  0  0  0  0  0  0  0  0  0  0  0
    4.6465   -3.4934   23.1693 C   0  0  2  0  0  0  0  0  0  0  0  0
    4.5718   -4.1142   21.7181 C   0  0  2  0  0  0  0  0  0  0  0  0
    3.7550   -3.2783   20.8922 O   0  0  0  0  0  0  0  0  0  0  0  0
    3.9498   -5.5618   21.7692 C   0  0  1  0  0  0  0  0  0  0  0  0
    3.8935   -6.1359   20.4330 O   0  0  0  0  0  0  0  0  0  0  0  0
    3.0216   -5.6970   19.4204 C   0  0  2  0  0  0  0  0  0  0  0  0
    1.5810   -6.1813   19.7988 C   0  0  2  0  0  0  0  0  0  0  0  0
    1.2154   -5.6377   21.0266 O   0  0  0  0  0  0  0  0  0  0  0  0
    1.5000   -7.7545   19.8326 C   0  0  1  0  0  0  0  0  0  0  0  0
    0.1223   -8.2284   20.1898 N   0  0  0  0  0  0  0  0  0  0  0  0
    1.9317   -8.3042   18.4153 C   0  0  2  0  0  0  0  0  0  0  0  0
    1.8709   -9.7316   18.3820 O   0  0  0  0  0  0  0  0  0  0  0  0
    3.3759   -7.7879   18.0984 C   0  0  2  0  0  0  0  0  0  0  0  0
    3.4309   -6.2861   18.1329 O   0  0  0  0  0  0  0  0  0  0  0  0
    3.8462   -8.2451   16.7480 C   0  0  0  0  0  0  0  0  0  0  0  0
    5.1850   -7.7959   16.4823 O   0  0  0  0  0  0  0  0  0  0  0  0
    3.2596   -2.3669   25.0975 O   0  0  0  0  0  0  0  0  0  0  0  0
    1.8551    0.0548   24.4647 O   0  0  0  0  0  0  0  0  0  0  0  0
    6.5985  -12.7599   21.3542 N   0  0  0  0  0  0  0  0  0  0  0  0
    4.5888   -8.8265   21.7785 C   0  0  0  0  0  0  0  0  0  0  0  0
    5.3623   -8.6949   20.8363 O   0  0  0  0  0  0  0  0  0  0  0  0
    3.8274  -10.1365   22.0859 C   0  0  1  0  0  0  0  0  0  0  0  0
    4.5668  -11.3367   21.4606 C   0  0  0  0  0  0  0  0  0  0  0  0
    5.9922  -11.5810   21.9694 C   0  0  0  0  0  0  0  0  0  0  0  0
    3.7109  -10.2912   23.5183 O   0  0  0  0  0  0  0  0  0  0  0  0
  1  2  1  6  0  0  0
  1  3  1  0  0  0  0
  1  8  1  0  0  0  0
  3  4  1  0  0  0  0
  3 32  1  6  0  0  0
  4  5  1  0  0  0  0
  4 33  1  1  0  0  0
  5  6  1  6  0  0  0
  5  7  1  0  0  0  0
  7  8  1  0  0  0  0
  7  9  1  1  0  0  0
  9 10  1  0  0  0  0
 11 12  1  1  0  0  0
 11 13  1  0  0  0  0
 11 19  1  0  0  0  0
 12 35  1  0  0  0  0
 13 14  1  0  0  0  0
 14 15  1  1  0  0  0
 14 16  1  0  0  0  0
 16  2  1  6  0  0  0
 16 17  1  0  0  0  0
 17 18  1  6  0  0  0
 17 19  1  0  0  0  0
 19 20  1  6  0  0  0
 21 20  1  1  0  0  0
 21 22  1  0  0  0  0
 21 29  1  0  0  0  0
 22 23  1  1  0  0  0
 22 24  1  0  0  0  0
 24 25  1  6  0  0  0
 24 26  1  0  0  0  0
 26 27  1  1  0  0  0
 26 28  1  0  0  0  0
 28 29  1  0  0  0  0
 28 30  1  6  0  0  0
 30 31  1  0  0  0  0
 34 39  1  0  0  0  0
 35 36  2  0  0  0  0
 37 35  1  1  0  0  0
 37 38  1  0  0  0  0
 37 40  1  0  0  0  0
 38 39  1  0  0  0  0
M  END
>  <CHROM.1>
-61.70000573,-57.14744078,-149.34524531,-62.85109738,170.19811519,-72.85469368
-178.46761965,-157.84867375,61.30663344,178.20877070,4.00105410,-5.09072522
21.76013535,-1.42923837,1.12212115,-2.91959495

>  <Name>
2g5q_lig

>  <RI>
224

>  <Rbt.Current_Directory>
/home/itssahil/PROJECTS/Mol_Feturizer/New_Systems/rnas/2g5q

>  <Rbt.Executable>
rbdock ($Id: //depot/dev/client3/rdock/2013.1/src/exe/rbdock.cxx#4 $)

>  <Rbt.Library>
libRbt.so (2013.1, Build901 2013/11/27)

>  <Rbt.Parameter_File>
/export/apps/rDock/src/rDock_2013.1_src/data/scripts/dock_solv.prm

>  <Rbt.Receptor>
prm/pocket_docking_8.prm

>  <SCORE>
-20.0226

>  <SCORE.INTER>
-13.9641

>  <SCORE.INTER.CONST>
1

>  <SCORE.INTER.POLAR>
-0.865691

>  <SCORE.INTER.ROT>
10

>  <SCORE.INTER.SOLV>
20.6682

>  <SCORE.INTER.VDW>
-23.5798

>  <SCORE.INTER.norm>
-0.349102

>  <SCORE.INTRA>
-6.06128

>  <SCORE.INTRA.DIHEDRAL>
-19.2654

>  <SCORE.INTRA.DIHEDRAL.0>
22.5778

>  <SCORE.INTRA.POLAR>
0

>  <SCORE.INTRA.POLAR.0>
0

>  <SCORE.INTRA.REPUL>
0

>  <SCORE.INTRA.REPUL.0>
0

>  <SCORE.INTRA.SOLV>
3.85938

>  <SCORE.INTRA.SOLV.lig_0>
-102.332

>  <SCORE.INTRA.VDW>
1.64172

>  <SCORE.INTRA.VDW.0>
-5.08747

>  <SCORE.INTRA.norm>
-0.151532

>  <SCORE.RESTR>
0.00279103

>  <SCORE.RESTR.CAVITY>
0.00279103

>  <SCORE.RESTR.norm>
6.97758e-05

>  <SCORE.SYSTEM>
0

>  <SCORE.SYSTEM.CONST>
0

>  <SCORE.SYSTEM.DIHEDRAL>
0

>  <SCORE.SYSTEM.SOLV>
0

>  <SCORE.SYSTEM.norm>
0

>  <SCORE.heavy>
40

>  <SCORE.norm>
-0.500564

>  <RMSD>
8.395

$$$$
2g5q_lig
 OpenBabel11021811433D
libRbt.so/2013.1/901 2013/11/27
 40 42  0  0  0  0  0  0  0  0999 V2000
   -2.1096  -11.2713   16.7726 C   0  0  2  0  0  0  0  0  0  0  0  0
   -1.9439   -9.9200   17.1416 O   0  0  0  0  0  0  0  0  0  0  0  0
   -3.0003  -11.3377   15.4970 C   0  0  1  0  0  0  0  0  0  0  0  0
   -4.4599  -10.8662   15.7813 C   0  0  2  0  0  0  0  0  0  0  0  0
   -5.0506  -11.7881   16.8795 C   0  0  2  0  0  0  0  0  0  0  0  0
   -6.4063  -11.3994   17.1540 O   0  0  0  0  0  0  0  0  0  0  0  0
   -4.1477  -11.6606   18.1728 C   0  0  2  0  0  0  0  0  0  0  0  0
   -2.7465  -12.0617   17.8587 O   0  0  0  0  0  0  0  0  0  0  0  0
   -4.6318  -12.5415   19.3197 C   0  0  0  0  0  0  0  0  0  0  0  0
   -4.5138  -13.9988   18.9971 N   0  0  0  0  0  0  0  0  0  0  0  0
    1.2840   -7.6463   19.0093 C   0  0  2  0  0  0  0  0  0  0  0  0
    2.2667   -7.1912   19.9855 N   0  0  0  0  0  0  0  0  0  0  0  0
   -0.1807   -7.5177   19.6043 C   0  0  0  0  0  0  0  0  0  0  0  0
   -1.2491   -8.0029   18.5471 C   0  0  2  0  0  0  0  0  0  0  0  0
   -2.6185   -7.8668   19.1130 N   0  0  0  0  0  0  0  0  0  0  0  0
   -0.9424   -9.4978   18.1355 C   0  0  2  0  0  0  0  0  0  0  0  0
    0.5236   -9.5865   17.5526 C   0  0  2  0  0  0  0  0  0  0  0  0
    0.8012  -10.9419   17.1865 O   0  0  0  0  0  0  0  0  0  0  0  0
    1.5741   -9.1128   18.6281 C   0  0  1  0  0  0  0  0  0  0  0  0
    2.9223   -9.1839   18.0844 O   0  0  0  0  0  0  0  0  0  0  0  0
    3.5036  -10.3539   17.5635 C   0  0  2  0  0  0  0  0  0  0  0  0
    4.7292  -10.7130   18.4703 C   0  0  2  0  0  0  0  0  0  0  0  0
    4.2958  -10.9234   19.7758 O   0  0  0  0  0  0  0  0  0  0  0  0
    5.8273   -9.5843   18.4161 C   0  0  1  0  0  0  0  0  0  0  0  0
    7.0078   -9.9213   19.2782 N   0  0  0  0  0  0  0  0  0  0  0  0
    6.2689   -9.3933   16.9109 C   0  0  2  0  0  0  0  0  0  0  0  0
    7.2733   -8.3830   16.7985 O   0  0  0  0  0  0  0  0  0  0  0  0
    5.0033   -9.0355   16.0608 C   0  0  2  0  0  0  0  0  0  0  0  0
    3.9529  -10.1040   16.1823 O   0  0  0  0  0  0  0  0  0  0  0  0
    5.3385   -8.8683   14.6071 C   0  0  0  0  0  0  0  0  0  0  0  0
    4.1742   -8.5217   13.8396 O   0  0  0  0  0  0  0  0  0  0  0  0
   -2.3736  -10.5161   14.4527 O   0  0  0  0  0  0  0  0  0  0  0  0
   -5.2042  -10.9579   14.6259 O   0  0  0  0  0  0  0  0  0  0  0  0
    4.6070   -8.4331   22.6448 N   0  0  0  0  0  0  0  0  0  0  0  0
    2.6608   -5.8734   20.1706 C   0  0  0  0  0  0  0  0  0  0  0  0
    2.2249   -4.9314   19.5180 O   0  0  0  0  0  0  0  0  0  0  0  0
    3.7258   -5.7265   21.2817 C   0  0  1  0  0  0  0  0  0  0  0  0
    4.9390   -6.6273   20.9734 C   0  0  0  0  0  0  0  0  0  0  0  0
    5.5192   -7.3965   22.1659 C   0  0  0  0  0  0  0  0  0  0  0  0
    4.1231   -4.3399   21.3760 O   0  0  0  0  0  0  0  0  0  0  0  0
  1  2  1  1  0  0  0
  1  3  1  0  0  0  0
  1  8  1  0  0  0  0
  3  4  1  0  0  0  0
  3 32  1  6  0  0  0
  4  5  1  0  0  0  0
  4 33  1  6  0  0  0
  5  6  1  1  0  0  0
  5  7  1  0  0  0  0
  7  8  1  0  0  0  0
  7  9  1  1  0  0  0
  9 10  1  0  0  0  0
 11 12  1  1  0  0  0
 11 13  1  0  0  0  0
 11 19  1  0  0  0  0
 12 35  1  0  0  0  0
 13 14  1  0  0  0  0
 14 15  1  1  0  0  0
 14 16  1  0  0  0  0
 16  2  1  6  0  0  0
 16 17  1  0  0  0  0
 17 18  1  1  0  0  0
 17 19  1  0  0  0  0
 19 20  1  6  0  0  0
 21 20  1  1  0  0  0
 21 22  1  0  0  0  0
 21 29  1  0  0  0  0
 22 23  1  1  0  0  0
 22 24  1  0  0  0  0
 24 25  1  1  0  0  0
 24 26  1  0  0  0  0
 26 27  1  1  0  0  0
 26 28  1  0  0  0  0
 28 29  1  0  0  0  0
 28 30  1  6  0  0  0
 30 31  1  0  0  0  0
 34 39  1  0  0  0  0
 35 36  2  0  0  0  0
 37 35  1  6  0  0  0
 37 38  1  0  0  0  0
 37 40  1  0  0  0  0
 38 39  1  0  0  0  0
M  END
>  <CHROM.1>
-167.39954195,65.48102193,-85.18087162,-167.17969066,-176.42465090,-116.43897458
-179.17901852,55.75226768,-137.42695535,68.55039294,1.06866747,-9.35383217
18.07672109,-2.76566297,0.18050019,0.97802203

>  <Name>
2g5q_lig

>  <RI>
0

>  <Rbt.Current_Directory>
/home/itssahil/PROJECTS/Mol_Feturizer/New_Systems/rnas/2g5q

>  <Rbt.Executable>
rbdock ($Id: //depot/dev/client3/rdock/2013.1/src/exe/rbdock.cxx#4 $)

>  <Rbt.Library>
libRbt.so (2013.1, Build901 2013/11/27)

>  <Rbt.Parameter_File>
/export/apps/rDock/src/rDock_2013.1_src/data/scripts/dock_solv.prm

>  <Rbt.Receptor>
prm/pocket_docking_5.prm

>  <SCORE>
-12.1399

>  <SCORE.INTER>
-9.41375

>  <SCORE.INTER.CONST>
1

>  <SCORE.INTER.POLAR>
-1.07815

>  <SCORE.INTER.ROT>
10

>  <SCORE.INTER.SOLV>
17.8936

>  <SCORE.INTER.VDW>
-18.9132

>  <SCORE.INTER.norm>
-0.235344

>  <SCORE.INTRA>
-2.72613

>  <SCORE.INTRA.DIHEDRAL>
-8.03721

>  <SCORE.INTRA.DIHEDRAL.0>
22.5778

>  <SCORE.INTRA.POLAR>
0

>  <SCORE.INTRA.POLAR.0>
0

>  <SCORE.INTRA.REPUL>
0

>  <SCORE.INTRA.REPUL.0>
0

>  <SCORE.INTRA.SOLV>
1.86477

>  <SCORE.INTRA.SOLV.lig_0>
-102.332

>  <SCORE.INTRA.VDW>
0.36009

>  <SCORE.INTRA.VDW.0>
-5.08747

>  <SCORE.INTRA.norm>
-0.0681533

>  <SCORE.RESTR>
0

>  <SCORE.RESTR.CAVITY>
0

>  <SCORE.RESTR.norm>
0

>  <SCORE.SYSTEM>
0

>  <SCORE.SYSTEM.CONST>
0

>  <SCORE.SYSTEM.DIHEDRAL>
0

>  <SCORE.SYSTEM.SOLV>
0

>  <SCORE.SYSTEM.norm>
0

>  <SCORE.heavy>
40

>  <SCORE.norm>
-0.303497

>  <RMSD>
8.410

$$$$
2g5q_lig
 OpenBabel11021811433D
libRbt.so/2013.1/901 2013/11/27
 40 42  0  0  0  0  0  0  0  0999 V2000
    1.4093  -13.0733   15.4050 C   0  0  2  0  0  0  0  0  0  0  0  0
    0.4270  -12.9793   16.4129 O   0  0  0  0  0  0  0  0  0  0  0  0
    1.1066  -14.3209   14.5237 C   0  0  1  0  0  0  0  0  0  0  0  0
    1.2852  -15.6515   15.3181 C   0  0  2  0  0  0  0  0  0  0  0  0
    2.7509  -15.7104   15.8211 C   0  0  2  0  0  0  0  0  0  0  0  0
    2.9625  -16.9362   16.5402 O   0  0  0  0  0  0  0  0  0  0  0  0
    3.0083  -14.4538   16.7478 C   0  0  2  0  0  0  0  0  0  0  0  0
    2.7745  -13.1972   15.9803 O   0  0  0  0  0  0  0  0  0  0  0  0
    4.4326  -14.4026   17.2905 C   0  0  0  0  0  0  0  0  0  0  0  0
    5.4478  -14.2985   16.1949 N   0  0  0  0  0  0  0  0  0  0  0  0
   -3.5694  -11.2190   16.3290 C   0  0  2  0  0  0  0  0  0  0  0  0
   -4.9764  -11.0028   16.0136 N   0  0  0  0  0  0  0  0  0  0  0  0
   -2.7002  -11.1973   15.0024 C   0  0  0  0  0  0  0  0  0  0  0  0
   -1.1741  -11.4240   15.3402 C   0  0  2  0  0  0  0  0  0  0  0  0
   -0.3689  -11.3903   14.0894 N   0  0  0  0  0  0  0  0  0  0  0  0
   -1.0007  -12.7993   16.0994 C   0  0  2  0  0  0  0  0  0  0  0  0
   -1.8830  -12.7847   17.4103 C   0  0  2  0  0  0  0  0  0  0  0  0
   -1.7293  -14.0332   18.0927 O   0  0  0  0  0  0  0  0  0  0  0  0
   -3.4028  -12.5730   17.0495 C   0  0  1  0  0  0  0  0  0  0  0  0
   -4.2115  -12.5476   18.2593 O   0  0  0  0  0  0  0  0  0  0  0  0
   -4.5162  -13.6840   19.0300 C   0  0  2  0  0  0  0  0  0  0  0  0
   -5.6551  -14.4625   18.2885 C   0  0  2  0  0  0  0  0  0  0  0  0
   -5.2149  -14.8359   17.0223 O   0  0  0  0  0  0  0  0  0  0  0  0
   -6.9688  -13.5975   18.1959 C   0  0  1  0  0  0  0  0  0  0  0  0
   -8.0675  -14.3366   17.4911 N   0  0  0  0  0  0  0  0  0  0  0  0
   -7.4087  -13.2044   19.6620 C   0  0  2  0  0  0  0  0  0  0  0  0
   -8.6041  -12.4217   19.6430 O   0  0  0  0  0  0  0  0  0  0  0  0
   -6.2315  -12.4302   20.3457 C   0  0  2  0  0  0  0  0  0  0  0  0
   -4.9788  -13.2609   20.3639 O   0  0  0  0  0  0  0  0  0  0  0  0
   -6.5635  -12.0483   21.7591 C   0  0  0  0  0  0  0  0  0  0  0  0
   -7.6504  -11.1094   21.8042 O   0  0  0  0  0  0  0  0  0  0  0  0
   -0.2609  -14.1967   14.0015 O   0  0  0  0  0  0  0  0  0  0  0  0
    1.0186  -16.7191   14.4894 O   0  0  0  0  0  0  0  0  0  0  0  0
   -9.2716  -11.6494   14.0134 N   0  0  0  0  0  0  0  0  0  0  0  0
   -5.5985   -9.7647   15.9354 C   0  0  0  0  0  0  0  0  0  0  0  0
   -5.0265   -8.6984   16.1333 O   0  0  0  0  0  0  0  0  0  0  0  0
   -7.1005   -9.8799   15.5871 C   0  0  1  0  0  0  0  0  0  0  0  0
   -7.2731  -10.1777   14.0838 C   0  0  0  0  0  0  0  0  0  0  0  0
   -8.7166  -10.3617   13.6014 C   0  0  0  0  0  0  0  0  0  0  0  0
   -7.6941  -10.9238   16.3916 O   0  0  0  0  0  0  0  0  0  0  0  0
  1  2  1  1  0  0  0
  1  3  1  0  0  0  0
  1  8  1  0  0  0  0
  3  4  1  0  0  0  0
  3 32  1  1  0  0  0
  4  5  1  0  0  0  0
  4 33  1  6  0  0  0
  5  6  1  1  0  0  0
  5  7  1  0  0  0  0
  7  8  1  0  0  0  0
  7  9  1  6  0  0  0
  9 10  1  0  0  0  0
 11 12  1  6  0  0  0
 11 13  1  0  0  0  0
 11 19  1  0  0  0  0
 12 35  1  0  0  0  0
 13 14  1  0  0  0  0
 14 15  1  6  0  0  0
 14 16  1  0  0  0  0
 16  2  1  1  0  0  0
 16 17  1  0  0  0  0
 17 18  1  6  0  0  0
 17 19  1  0  0  0  0
 19 20  1  1  0  0  0
 21 20  1  6  0  0  0
 21 22  1  0  0  0  0
 21 29  1  0  0  0  0
 22 23  1  6  0  0  0
 22 24  1  0  0  0  0
 24 25  1  1  0  0  0
 24 26  1  0  0  0  0
 26 27  1  6  0  0  0
 26 28  1  0  0  0  0
 28 29  1  0  0  0  0
 28 30  1  1  0  0  0
 30 31  1  0  0  0  0
 34 39  1  0  0  0  0
 35 36  2  0  0  0  0
 37 35  1  6  0  0  0
 37 38  1  0  0  0  0
 37 40  1  0  0  0  0
 38 39  1  0  0  0  0
M  END
>  <CHROM.1>
-61.54117433,61.47503527,-89.00335919,-62.10650020,167.06908835,-77.81670470
-64.96170220,-76.82461284,178.18622445,-74.34774365,-3.03269696,-12.86166003
16.81664297,0.04281754,0.33729919,-1.11542688

>  <Name>
2g5q_lig

>  <RI>
2.90231e+07

>  <Rbt.Current_Directory>
/home/itssahil/PROJECTS/Mol_Feturizer/New_Systems/rnas/2g5q

>  <Rbt.Executable>
rbdock ($Id: //depot/dev/client3/rdock/2013.1/src/exe/rbdock.cxx#4 $)

>  <Rbt.Library>
libRbt.so (2013.1, Build901 2013/11/27)

>  <Rbt.Parameter_File>
/export/apps/rDock/src/rDock_2013.1_src/data/scripts/dock_solv.prm

>  <Rbt.Receptor>
prm/pocket_docking_6.prm

>  <SCORE>
-12.0036

>  <SCORE.INTER>
-7.41952

>  <SCORE.INTER.CONST>
1

>  <SCORE.INTER.POLAR>
-1.35336

>  <SCORE.INTER.ROT>
10

>  <SCORE.INTER.SOLV>
14.3974

>  <SCORE.INTER.VDW>
-15.501

>  <SCORE.INTER.norm>
-0.185488

>  <SCORE.INTRA>
-4.58412

>  <SCORE.INTRA.DIHEDRAL>
-17.7783

>  <SCORE.INTRA.DIHEDRAL.0>
22.5778

>  <SCORE.INTRA.POLAR>
0

>  <SCORE.INTRA.POLAR.0>
0

>  <SCORE.INTRA.REPUL>
0

>  <SCORE.INTRA.REPUL.0>
0

>  <SCORE.INTRA.SOLV>
5.49492

>  <SCORE.INTRA.SOLV.lig_0>
-102.332

>  <SCORE.INTRA.VDW>
1.55759

>  <SCORE.INTRA.VDW.0>
-5.08747

>  <SCORE.INTRA.norm>
-0.114603

>  <SCORE.RESTR>
0

>  <SCORE.RESTR.CAVITY>
0

>  <SCORE.RESTR.norm>
0

>  <SCORE.SYSTEM>
0

>  <SCORE.SYSTEM.CONST>
0

>  <SCORE.SYSTEM.DIHEDRAL>
0

>  <SCORE.SYSTEM.SOLV>
0

>  <SCORE.SYSTEM.norm>
0

>  <SCORE.heavy>
40

>  <SCORE.norm>
-0.300091

>  <RMSD>
8.410

$$$$
2g5q_lig
 OpenBabel11021811433D
libRbt.so/2013.1/901 2013/11/27
 40 42  0  0  0  0  0  0  0  0999 V2000
   -5.8553  -11.3334   16.5966 C   0  0  2  0  0  0  0  0  0  0  0  0
   -4.6739  -11.3378   15.8261 O   0  0  0  0  0  0  0  0  0  0  0  0
   -7.0030  -11.9712   15.7595 C   0  0  1  0  0  0  0  0  0  0  0  0
   -7.3806  -11.0937   14.5263 C   0  0  2  0  0  0  0  0  0  0  0  0
   -7.8271   -9.7046   15.0516 C   0  0  2  0  0  0  0  0  0  0  0  0
   -8.2063   -8.8720   13.9437 O   0  0  0  0  0  0  0  0  0  0  0  0
   -6.6228   -9.0684   15.8572 C   0  0  2  0  0  0  0  0  0  0  0  0
   -6.2447   -9.9549   16.9947 O   0  0  0  0  0  0  0  0  0  0  0  0
   -6.9581   -7.6974   16.4348 C   0  0  0  0  0  0  0  0  0  0  0  0
   -5.7782   -7.0674   17.1076 N   0  0  0  0  0  0  0  0  0  0  0  0
   -0.6105  -10.3998   17.1247 C   0  0  2  0  0  0  0  0  0  0  0  0
    0.7045  -10.5228   17.7422 N   0  0  0  0  0  0  0  0  0  0  0  0
   -1.7471  -10.5391   18.2222 C   0  0  0  0  0  0  0  0  0  0  0  0
   -3.1735  -10.3992   17.5586 C   0  0  2  0  0  0  0  0  0  0  0  0
   -4.2297  -10.5204   18.5996 N   0  0  0  0  0  0  0  0  0  0  0  0
   -3.3430  -11.4987   16.4359 C   0  0  2  0  0  0  0  0  0  0  0  0
   -2.1927  -11.3309   15.3656 C   0  0  2  0  0  0  0  0  0  0  0  0
   -2.3444  -12.3313   14.3536 O   0  0  0  0  0  0  0  0  0  0  0  0
   -0.7794  -11.4894   16.0457 C   0  0  1  0  0  0  0  0  0  0  0  0
    0.2783  -11.3221   15.0600 O   0  0  0  0  0  0  0  0  0  0  0  0
    0.2736  -11.9197   13.7868 C   0  0  2  0  0  0  0  0  0  0  0  0
    0.7131  -13.4122   13.9671 C   0  0  2  0  0  0  0  0  0  0  0  0
   -0.1808  -14.0610   14.8136 O   0  0  0  0  0  0  0  0  0  0  0  0
    2.1850  -13.5091   14.5209 C   0  0  1  0  0  0  0  0  0  0  0  0
    2.6170  -14.9353   14.6928 N   0  0  0  0  0  0  0  0  0  0  0  0
    3.1431  -12.7502   13.5192 C   0  0  2  0  0  0  0  0  0  0  0  0
    4.4991  -12.8103   13.9664 O   0  0  0  0  0  0  0  0  0  0  0  0
    2.6527  -11.2690   13.3847 C   0  0  2  0  0  0  0  0  0  0  0  0
    1.2268  -11.2144   12.9117 O   0  0  0  0  0  0  0  0  0  0  0  0
    3.4985  -10.4884   12.4210 C   0  0  0  0  0  0  0  0  0  0  0  0
    3.3108   -9.0737   12.5896 O   0  0  0  0  0  0  0  0  0  0  0  0
   -6.5788  -13.3144   15.3423 O   0  0  0  0  0  0  0  0  0  0  0  0
   -8.4060  -11.6967   13.8317 O   0  0  0  0  0  0  0  0  0  0  0  0
    4.7712   -6.8383   18.1693 N   0  0  0  0  0  0  0  0  0  0  0  0
    1.2972   -9.5715   18.5607 C   0  0  0  0  0  0  0  0  0  0  0  0
    0.7754   -8.5014   18.8540 O   0  0  0  0  0  0  0  0  0  0  0  0
    2.6990  -10.0040   19.0489 C   0  0  1  0  0  0  0  0  0  0  0  0
    3.6067   -8.7679   19.2111 C   0  0  0  0  0  0  0  0  0  0  0  0
    3.9914   -8.0476   17.9136 C   0  0  0  0  0  0  0  0  0  0  0  0
    2.5657  -10.7144   20.3006 O   0  0  0  0  0  0  0  0  0  0  0  0
  1  2  1  6  0  0  0
  1  3  1  0  0  0  0
  1  8  1  0  0  0  0
  3  4  1  0  0  0  0
  3 32  1  6  0  0  0
  4  5  1  0  0  0  0
  4 33  1  1  0  0  0
  5  6  1  6  0  0  0
  5  7  1  0  0  0  0
  7  8  1  0  0  0  0
  7  9  1  1  0  0  0
  9 10  1  0  0  0  0
 11 12  1  1  0  0  0
 11 13  1  0  0  0  0
 11 19  1  0  0  0  0
 12 35  1  0  0  0  0
 13 14  1  0  0  0  0
 14 15  1  1  0  0  0
 14 16  1  0  0  0  0
 16  2  1  6  0  0  0
 16 17  1  0  0  0  0
 17 18  1  6  0  0  0
 17 19  1  0  0  0  0
 19 20  1  6  0  0  0
 21 20  1  1  0  0  0
 21 22  1  0  0  0  0
 21 29  1  0  0  0  0
 22 23  1  1  0  0  0
 22 24  1  0  0  0  0
 24 25  1  6  0  0  0
 24 26  1  0  0  0  0
 26 27  1  1  0  0  0
 26 28  1  0  0  0  0
 28 29  1  0  0  0  0
 28 30  1  6  0  0  0
 30 31  1  0  0  0  0
 34 39  1  0  0  0  0
 35 36  2  0  0  0  0
 37 35  1  1  0  0  0
 37 38  1  0  0  0  0
 37 40  1  0  0  0  0
 38 39  1  0  0  0  0
M  END
>  <CHROM.1>
-146.99572973,-175.84681677,-71.63494237,-54.43843194,-164.67584218,-78.90209346
-162.95257207,147.45886033,-67.74332401,175.95274113,-1.39418534,-10.79042263
15.88341183,-3.14061203,0.04572102,-2.24474923

>  <Name>
2g5q_lig

>  <RI>
0

>  <Rbt.Current_Directory>
/home/itssahil/PROJECTS/Mol_Feturizer/New_Systems/rnas/2g5q

>  <Rbt.Executable>
rbdock ($Id: //depot/dev/client3/rdock/2013.1/src/exe/rbdock.cxx#4 $)

>  <Rbt.Library>
libRbt.so (2013.1, Build901 2013/11/27)

>  <Rbt.Parameter_File>
/export/apps/rDock/src/rDock_2013.1_src/data/scripts/dock_solv.prm

>  <Rbt.Receptor>
prm/pocket_docking_3.prm

>  <SCORE>
-9.26933

>  <SCORE.INTER>
-6.90324

>  <SCORE.INTER.CONST>
1

>  <SCORE.INTER.POLAR>
-1.99885

>  <SCORE.INTER.ROT>
10

>  <SCORE.INTER.SOLV>
18.2066

>  <SCORE.INTER.VDW>
-14.2749

>  <SCORE.INTER.norm>
-0.172581

>  <SCORE.INTRA>
-2.61857

>  <SCORE.INTRA.DIHEDRAL>
-12.3821

>  <SCORE.INTRA.DIHEDRAL.0>
22.5778

>  <SCORE.INTRA.POLAR>
0

>  <SCORE.INTRA.POLAR.0>
0

>  <SCORE.INTRA.REPUL>
0

>  <SCORE.INTRA.REPUL.0>
0

>  <SCORE.INTRA.SOLV>
1.65947

>  <SCORE.INTRA.SOLV.lig_0>
-102.332

>  <SCORE.INTRA.VDW>
2.74276

>  <SCORE.INTRA.VDW.0>
-5.08747

>  <SCORE.INTRA.norm>
-0.0654642

>  <SCORE.RESTR>
0.252478

>  <SCORE.RESTR.CAVITY>
0.252478

>  <SCORE.RESTR.norm>
0.00631196

>  <SCORE.SYSTEM>
0

>  <SCORE.SYSTEM.CONST>
0

>  <SCORE.SYSTEM.DIHEDRAL>
0

>  <SCORE.SYSTEM.SOLV>
0

>  <SCORE.SYSTEM.norm>
0

>  <SCORE.heavy>
40

>  <SCORE.norm>
-0.231733

>  <RMSD>
8.411

$$$$
2g5q_lig
 OpenBabel11021811433D
libRbt.so/2013.1/901 2013/11/27
 40 42  0  0  0  0  0  0  0  0999 V2000
   -4.0192  -11.2302   15.7268 C   0  0  2  0  0  0  0  0  0  0  0  0
   -3.3933  -10.1662   16.4092 O   0  0  0  0  0  0  0  0  0  0  0  0
   -5.5510  -10.9565   15.6674 C   0  0  1  0  0  0  0  0  0  0  0  0
   -6.2065  -11.0082   17.0821 C   0  0  2  0  0  0  0  0  0  0  0  0
   -5.9504  -12.4192   17.6722 C   0  0  2  0  0  0  0  0  0  0  0  0
   -6.5605  -12.5147   18.9695 O   0  0  0  0  0  0  0  0  0  0  0  0
   -4.3864  -12.6441   17.7595 C   0  0  2  0  0  0  0  0  0  0  0  0
   -3.7781  -12.5320   16.4029 O   0  0  0  0  0  0  0  0  0  0  0  0
   -4.0175  -14.0148   18.3168 C   0  0  0  0  0  0  0  0  0  0  0  0
   -4.1708  -15.0971   17.2936 N   0  0  0  0  0  0  0  0  0  0  0  0
    0.8061   -8.9726   16.5429 C   0  0  2  0  0  0  0  0  0  0  0  0
    2.2258   -8.9528   16.8742 N   0  0  0  0  0  0  0  0  0  0  0  0
   -0.0667   -8.8344   17.8601 C   0  0  0  0  0  0  0  0  0  0  0  0
   -1.6056   -8.8482   17.5049 C   0  0  2  0  0  0  0  0  0  0  0  0
   -2.4125   -8.7067   18.7470 N   0  0  0  0  0  0  0  0  0  0  0  0
   -1.9580  -10.1850   16.7388 C   0  0  2  0  0  0  0  0  0  0  0  0
   -1.0675  -10.2891   15.4377 C   0  0  2  0  0  0  0  0  0  0  0  0
   -1.3837  -11.5032   14.7491 O   0  0  0  0  0  0  0  0  0  0  0  0
    0.4629  -10.2892   15.8157 C   0  0  1  0  0  0  0  0  0  0  0  0
    1.2809  -10.3728   14.6148 O   0  0  0  0  0  0  0  0  0  0  0  0
    2.6460  -10.7114   14.6105 C   0  0  2  0  0  0  0  0  0  0  0  0
    3.1925  -10.4402   13.1679 C   0  0  2  0  0  0  0  0  0  0  0  0
    3.0226   -9.0958   12.8515 O   0  0  0  0  0  0  0  0  0  0  0  0
    2.4811  -11.3629   12.1071 C   0  0  1  0  0  0  0  0  0  0  0  0
    3.0012  -11.1139   10.7223 N   0  0  0  0  0  0  0  0  0  0  0  0
    2.7076  -12.8692   12.5282 C   0  0  2  0  0  0  0  0  0  0  0  0
    2.0889  -13.7578   11.5957 O   0  0  0  0  0  0  0  0  0  0  0  0
    2.1400  -13.0743   13.9733 C   0  0  2  0  0  0  0  0  0  0  0  0
    2.7974  -12.1379   14.9484 O   0  0  0  0  0  0  0  0  0  0  0  0
    2.3470  -14.4799   14.4580 C   0  0  0  0  0  0  0  0  0  0  0  0
    3.7451  -14.7926   14.5700 O   0  0  0  0  0  0  0  0  0  0  0  0
   -5.7622   -9.6476   15.0347 O   0  0  0  0  0  0  0  0  0  0  0  0
   -7.5591  -10.7732   16.9692 O   0  0  0  0  0  0  0  0  0  0  0  0
    6.7643  -10.1520   17.2830 N   0  0  0  0  0  0  0  0  0  0  0  0
    2.8896   -7.9015   17.4909 C   0  0  0  0  0  0  0  0  0  0  0  0
    2.3487   -6.8528   17.8241 O   0  0  0  0  0  0  0  0  0  0  0  0
    4.3941   -8.1928   17.6962 C   0  0  1  0  0  0  0  0  0  0  0  0
    5.0352   -8.6265   16.3624 C   0  0  0  0  0  0  0  0  0  0  0  0
    6.5223   -8.9939   16.4251 C   0  0  0  0  0  0  0  0  0  0  0  0
    5.0385   -7.0087   18.2177 O   0  0  0  0  0  0  0  0  0  0  0  0
  1  2  1  1  0  0  0
  1  3  1  0  0  0  0
  1  8  1  0  0  0  0
  3  4  1  0  0  0  0
  3 32  1  1  0  0  0
  4  5  1  0  0  0  0
  4 33  1  6  0  0  0
  5  6  1  1  0  0  0
  5  7  1  0  0  0  0
  7  8  1  0  0  0  0
  7  9  1  6  0  0  0
  9 10  1  0  0  0  0
 11 12  1  1  0  0  0
 11 13  1  0  0  0  0
 11 19  1  0  0  0  0
 12 35  1  0  0  0  0
 13 14  1  0  0  0  0
 14 15  1  1  0  0  0
 14 16  1  0  0  0  0
 16  2  1  6  0  0  0
 16 17  1  0  0  0  0
 17 18  1  1  0  0  0
 17 19  1  0  0  0  0
 19 20  1  6  0  0  0
 21 20  1  6  0  0  0
 21 22  1  0  0  0  0
 21 29  1  0  0  0  0
 22 23  1  6  0  0  0
 22 24  1  0  0  0  0
 24 25  1  6  0  0  0
 24 26  1  0  0  0  0
 26 27  1  6  0  0  0
 26 28  1  0  0  0  0
 28 29  1  0  0  0  0
 28 30  1  1  0  0  0
 30 31  1  0  0  0  0
 34 39  1  0  0  0  0
 35 36  2  0  0  0  0
 37 35  1  6  0  0  0
 37 38  1  0  0  0  0
 37 40  1  0  0  0  0
 38 39  1  0  0  0  0
M  END
>  <CHROM.1>
174.38309994,77.74962033,-61.00677137,-179.62640158,76.39442465,-170.20250136
63.45364399,52.43837533,-178.06168176,62.99416621,-0.06464230,-10.79987873
15.86561102,3.13095024,0.26004477,0.72853260

>  <Name>
2g5q_lig

>  <RI>
2.47104e+07

>  <Rbt.Current_Directory>
/home/itssahil/PROJECTS/Mol_Feturizer/New_Systems/rnas/2g5q

>  <Rbt.Executable>
rbdock ($Id: //depot/dev/client3/rdock/2013.1/src/exe/rbdock.cxx#4 $)

>  <Rbt.Library>
libRbt.so (2013.1, Build901 2013/11/27)

>  <Rbt.Parameter_File>
/export/apps/rDock/src/rDock_2013.1_src/data/scripts/dock_solv.prm

>  <Rbt.Receptor>
prm/pocket_docking_7.prm

>  <SCORE>
-24.6399

>  <SCORE.INTER>
-16.5004

>  <SCORE.INTER.CONST>
1

>  <SCORE.INTER.POLAR>
-2.80811

>  <SCORE.INTER.ROT>
10

>  <SCORE.INTER.SOLV>
20.8859

>  <SCORE.INTER.VDW>
-18.8686

>  <SCORE.INTER.norm>
-0.412511

>  <SCORE.INTRA>
-8.13943

>  <SCORE.INTRA.DIHEDRAL>
-18.6792

>  <SCORE.INTRA.DIHEDRAL.0>
22.5778

>  <SCORE.INTRA.POLAR>
0

>  <SCORE.INTRA.POLAR.0>
0

>  <SCORE.INTRA.REPUL>
0

>  <SCORE.INTRA.REPUL.0>
0

>  <SCORE.INTRA.SOLV>
0.699485

>  <SCORE.INTRA.SOLV.lig_0>
-102.332

>  <SCORE.INTRA.VDW>
0.850448

>  <SCORE.INTRA.VDW.0>
-5.08747

>  <SCORE.INTRA.norm>
-0.203486

>  <SCORE.RESTR>
0

>  <SCORE.RESTR.CAVITY>
0

>  <SCORE.RESTR.norm>
0

>  <SCORE.SYSTEM>
0

>  <SCORE.SYSTEM.CONST>
0

>  <SCORE.SYSTEM.DIHEDRAL>
0

>  <SCORE.SYSTEM.SOLV>
0

>  <SCORE.SYSTEM.norm>
0

>  <SCORE.heavy>
40

>  <SCORE.norm>
-0.615997

>  <RMSD>
8.412

$$$$
2g5q_lig
 OpenBabel11021811433D
libRbt.so/2013.1/901 2013/11/27
 40 42  0  0  0  0  0  0  0  0999 V2000
   -4.3388  -11.4794   15.6807 C   0  0  2  0  0  0  0  0  0  0  0  0
   -3.9487  -10.3079   16.3625 O   0  0  0  0  0  0  0  0  0  0  0  0
   -5.8573  -11.3852   15.3492 C   0  0  1  0  0  0  0  0  0  0  0  0
   -6.7370  -11.4149   16.6372 C   0  0  2  0  0  0  0  0  0  0  0  0
   -6.4459  -12.7449   17.3797 C   0  0  2  0  0  0  0  0  0  0  0  0
   -7.2566  -12.8208   18.5635 O   0  0  0  0  0  0  0  0  0  0  0  0
   -4.9055  -12.7852   17.7397 C   0  0  2  0  0  0  0  0  0  0  0  0
   -4.0881  -12.6970   16.4960 O   0  0  0  0  0  0  0  0  0  0  0  0
   -4.5023  -14.0647   18.4650 C   0  0  0  0  0  0  0  0  0  0  0  0
   -3.0686  -14.0383   18.8957 N   0  0  0  0  0  0  0  0  0  0  0  0
    0.0209   -8.4946   16.5405 C   0  0  2  0  0  0  0  0  0  0  0  0
    1.3953   -8.2172   16.9404 N   0  0  0  0  0  0  0  0  0  0  0  0
   -0.9581   -8.3057   17.7741 C   0  0  0  0  0  0  0  0  0  0  0  0
   -2.4492   -8.5983   17.3436 C   0  0  2  0  0  0  0  0  0  0  0  0
   -3.3581   -8.4069   18.5060 N   0  0  0  0  0  0  0  0  0  0  0  0
   -2.5533  -10.0663   16.7672 C   0  0  2  0  0  0  0  0  0  0  0  0
   -1.5628  -10.2169   15.5453 C   0  0  2  0  0  0  0  0  0  0  0  0
   -1.6541  -11.5485   15.0292 O   0  0  0  0  0  0  0  0  0  0  0  0
   -0.0798   -9.9360   16.0001 C   0  0  1  0  0  0  0  0  0  0  0  0
    0.8288  -10.0633   14.8702 O   0  0  0  0  0  0  0  0  0  0  0  0
    2.1780  -10.4452   14.9804 C   0  0  2  0  0  0  0  0  0  0  0  0
    2.7945  -10.4112   13.5409 C   0  0  2  0  0  0  0  0  0  0  0  0
    2.6929   -9.1240   13.0220 O   0  0  0  0  0  0  0  0  0  0  0  0
    2.0908  -11.4570   12.5956 C   0  0  1  0  0  0  0  0  0  0  0  0
    2.6777  -11.4353   11.2152 N   0  0  0  0  0  0  0  0  0  0  0  0
    2.2379  -12.8904   13.2445 C   0  0  2  0  0  0  0  0  0  0  0  0
    1.6227  -13.8866   12.4252 O   0  0  0  0  0  0  0  0  0  0  0  0
    1.6028  -12.8580   14.6756 C   0  0  2  0  0  0  0  0  0  0  0  0
    2.2569  -11.8097   15.5318 O   0  0  0  0  0  0  0  0  0  0  0  0
    1.7321  -14.1818   15.3716 C   0  0  0  0  0  0  0  0  0  0  0  0
    0.9415  -15.1915   14.7233 O   0  0  0  0  0  0  0  0  0  0  0  0
   -6.0869  -10.1543   14.5808 O   0  0  0  0  0  0  0  0  0  0  0  0
   -8.0668  -11.3424   16.2855 O   0  0  0  0  0  0  0  0  0  0  0  0
    4.3479   -5.6722   19.1905 N   0  0  0  0  0  0  0  0  0  0  0  0
    2.1568   -9.0066   17.7907 C   0  0  0  0  0  0  0  0  0  0  0  0
    1.7493  -10.0376   18.3144 O   0  0  0  0  0  0  0  0  0  0  0  0
    3.5738   -8.4316   18.0187 C   0  0  1  0  0  0  0  0  0  0  0  0
    3.7624   -8.0646   19.5046 C   0  0  0  0  0  0  0  0  0  0  0  0
    4.7619   -6.9382   19.7921 C   0  0  0  0  0  0  0  0  0  0  0  0
    4.5538   -9.4079   17.5996 O   0  0  0  0  0  0  0  0  0  0  0  0
  1  2  1  1  0  0  0
  1  3  1  0  0  0  0
  1  8  1  0  0  0  0
  3  4  1  0  0  0  0
  3 32  1  1  0  0  0
  4  5  1  0  0  0  0
  4 33  1  6  0  0  0
  5  6  1  1  0  0  0
  5  7  1  0  0  0  0
  7  8  1  0  0  0  0
  7  9  1  6  0  0  0
  9 10  1  0  0  0  0
 11 12  1  1  0  0  0
 11 13  1  0  0  0  0
 11 19  1  0  0  0  0
 12 35  1  0  0  0  0
 13 14  1  0  0  0  0
 14 15  1  1  0  0  0
 14 16  1  0  0  0  0
 16  2  1  6  0  0  0
 16 17  1  0  0  0  0
 17 18  1  1  0  0  0
 17 19  1  0  0  0  0
 19 20  1  6  0  0  0
 21 20  1  6  0  0  0
 21 22  1  0  0  0  0
 21 29  1  0  0  0  0
 22 23  1  6  0  0  0
 22 24  1  0  0  0  0
 24 25  1  6  0  0  0
 24 26  1  0  0  0  0
 26 27  1  6  0  0  0
 26 28  1  0  0  0  0
 28 29  1  0  0  0  0
 28 30  1  1  0  0  0
 30 31  1  0  0  0  0
 34 39  1  0  0  0  0
 35 36  2  0  0  0  0
 37 35  1  1  0  0  0
 37 38  1  0  0  0  0
 37 40  1  0  0  0  0
 38 39  1  0  0  0  0
M  END
>  <CHROM.1>
-177.44585535,-175.37745074,69.39473282,173.27540162,89.11431482,-178.24172439
-66.99202064,116.78451931,-152.35418703,62.28776816,-0.71797895,-10.79185930
16.21514207,-3.00649151,0.24094475,0.81387371

>  <Name>
2g5q_lig

>  <RI>
0

>  <Rbt.Current_Directory>
/home/itssahil/PROJECTS/Mol_Feturizer/New_Systems/rnas/2g5q

>  <Rbt.Executable>
rbdock ($Id: //depot/dev/client3/rdock/2013.1/src/exe/rbdock.cxx#4 $)

>  <Rbt.Library>
libRbt.so (2013.1, Build901 2013/11/27)

>  <Rbt.Parameter_File>
/export/apps/rDock/src/rDock_2013.1_src/data/scripts/dock_solv.prm

>  <Rbt.Receptor>
prm/pocket_docking_5.prm

>  <SCORE>
-21.5918

>  <SCORE.INTER>
-14.9215

>  <SCORE.INTER.CONST>
1

>  <SCORE.INTER.POLAR>
-2.39706

>  <SCORE.INTER.ROT>
10

>  <SCORE.INTER.SOLV>
19.1675

>  <SCORE.INTER.VDW>
-18.6133

>  <SCORE.INTER.norm>
-0.373039

>  <SCORE.INTRA>
-6.67024

>  <SCORE.INTRA.DIHEDRAL>
-13.8274

>  <SCORE.INTRA.DIHEDRAL.0>
22.5778

>  <SCORE.INTRA.POLAR>
0

>  <SCORE.INTRA.POLAR.0>
0

>  <SCORE.INTRA.REPUL>
0

>  <SCORE.INTRA.REPUL.0>
0

>  <SCORE.INTRA.SOLV>
0.394102

>  <SCORE.INTRA.SOLV.lig_0>
-102.332

>  <SCORE.INTRA.VDW>
0.0464041

>  <SCORE.INTRA.VDW.0>
-5.08747

>  <SCORE.INTRA.norm>
-0.166756

>  <SCORE.RESTR>
0

>  <SCORE.RESTR.CAVITY>
0

>  <SCORE.RESTR.norm>
0

>  <SCORE.SYSTEM>
0

>  <SCORE.SYSTEM.CONST>
0

>  <SCORE.SYSTEM.DIHEDRAL>
0

>  <SCORE.SYSTEM.SOLV>
0

>  <SCORE.SYSTEM.norm>
0

>  <SCORE.heavy>
40

>  <SCORE.norm>
-0.539795

>  <RMSD>
8.422

$$$$
2g5q_lig
 OpenBabel11021811433D
libRbt.so/2013.1/901 2013/11/27
 40 42  0  0  0  0  0  0  0  0999 V2000
   -4.0356  -11.2124   15.7330 C   0  0  2  0  0  0  0  0  0  0  0  0
   -3.4182  -10.1651   16.4482 O   0  0  0  0  0  0  0  0  0  0  0  0
   -5.5601  -10.9145   15.6228 C   0  0  1  0  0  0  0  0  0  0  0  0
   -6.2658  -10.9701   17.0129 C   0  0  2  0  0  0  0  0  0  0  0  0
   -6.0520  -12.3908   17.5967 C   0  0  2  0  0  0  0  0  0  0  0  0
   -6.7089  -12.4898   18.8707 O   0  0  0  0  0  0  0  0  0  0  0  0
   -4.4957  -12.6407   17.7365 C   0  0  2  0  0  0  0  0  0  0  0  0
   -3.8382  -12.5245   16.4035 O   0  0  0  0  0  0  0  0  0  0  0  0
   -4.1674  -14.0224   18.2920 C   0  0  0  0  0  0  0  0  0  0  0  0
   -4.2698  -15.0877   17.2449 N   0  0  0  0  0  0  0  0  0  0  0  0
    0.7731   -8.9479   16.6169 C   0  0  2  0  0  0  0  0  0  0  0  0
    2.1925   -8.9274   16.9498 N   0  0  0  0  0  0  0  0  0  0  0  0
   -0.1014   -8.8503   17.9365 C   0  0  0  0  0  0  0  0  0  0  0  0
   -1.6399   -8.8648   17.5799 C   0  0  2  0  0  0  0  0  0  0  0  0
   -2.4486   -8.7615   18.8246 N   0  0  0  0  0  0  0  0  0  0  0  0
   -1.9830  -10.1831   16.7784 C   0  0  2  0  0  0  0  0  0  0  0  0
   -1.0910  -10.2470   15.4757 C   0  0  2  0  0  0  0  0  0  0  0  0
   -1.3988  -11.4444   14.7550 O   0  0  0  0  0  0  0  0  0  0  0  0
    0.4391  -10.2470   15.8548 C   0  0  1  0  0  0  0  0  0  0  0  0
    1.2585  -10.2934   14.6528 O   0  0  0  0  0  0  0  0  0  0  0  0
    2.6134  -10.6701   14.6341 C   0  0  2  0  0  0  0  0  0  0  0  0
    3.1313  -10.4876   13.1673 C   0  0  2  0  0  0  0  0  0  0  0  0
    2.9900   -9.1566   12.7866 O   0  0  0  0  0  0  0  0  0  0  0  0
    2.3694  -11.4422   12.1718 C   0  0  1  0  0  0  0  0  0  0  0  0
    2.8617  -11.2780   10.7643 N   0  0  0  0  0  0  0  0  0  0  0  0
    2.5654  -12.9311   12.6639 C   0  0  2  0  0  0  0  0  0  0  0  0
    1.9001  -13.8478   11.7926 O   0  0  0  0  0  0  0  0  0  0  0  0
    2.0282  -13.0469   14.1304 C   0  0  2  0  0  0  0  0  0  0  0  0
    2.7346  -12.0815   15.0409 O   0  0  0  0  0  0  0  0  0  0  0  0
    2.2092  -14.4316   14.6813 C   0  0  0  0  0  0  0  0  0  0  0  0
    1.3681  -15.3777   14.0014 O   0  0  0  0  0  0  0  0  0  0  0  0
   -5.7290   -9.5963   14.9968 O   0  0  0  0  0  0  0  0  0  0  0  0
   -7.6098  -10.7132   16.8550 O   0  0  0  0  0  0  0  0  0  0  0  0
    6.6534  -10.2574   17.4710 N   0  0  0  0  0  0  0  0  0  0  0  0
    2.8498   -7.8866   17.5908 C   0  0  0  0  0  0  0  0  0  0  0  0
    2.3027   -6.8489   17.9472 O   0  0  0  0  0  0  0  0  0  0  0  0
    4.3558   -8.1740   17.7907 C   0  0  1  0  0  0  0  0  0  0  0  0
    4.9664   -8.7248   16.4861 C   0  0  0  0  0  0  0  0  0  0  0  0
    6.4421   -9.1337   16.5606 C   0  0  0  0  0  0  0  0  0  0  0  0
    5.0199   -6.9563   18.1976 O   0  0  0  0  0  0  0  0  0  0  0  0
  1  2  1  1  0  0  0
  1  3  1  0  0  0  0
  1  8  1  0  0  0  0
  3  4  1  0  0  0  0
  3 32  1  1  0  0  0
  4  5  1  0  0  0  0
  4 33  1  6  0  0  0
  5  6  1  1  0  0  0
  5  7  1  0  0  0  0
  7  8  1  0  0  0  0
  7  9  1  6  0  0  0
  9 10  1  0  0  0  0
 11 12  1  1  0  0  0
 11 13  1  0  0  0  0
 11 19  1  0  0  0  0
 12 35  1  0  0  0  0
 13 14  1  0  0  0  0
 14 15  1  1  0  0  0
 14 16  1  0  0  0  0
 16  2  1  6  0  0  0
 16 17  1  0  0  0  0
 17 18  1  1  0  0  0
 17 19  1  0  0  0  0
 19 20  1  6  0  0  0
 21 20  1  6  0  0  0
 21 22  1  0  0  0  0
 21 29  1  0  0  0  0
 22 23  1  6  0  0  0
 22 24  1  0  0  0  0
 24 25  1  6  0  0  0
 24 26  1  0  0  0  0
 26 27  1  6  0  0  0
 26 28  1  0  0  0  0
 28 29  1  0  0  0  0
 28 30  1  1  0  0  0
 30 31  1  0  0  0  0
 34 39  1  0  0  0  0
 35 36  2  0  0  0  0
 37 35  1  6  0  0  0
 37 38  1  0  0  0  0
 37 40  1  0  0  0  0
 38 39  1  0  0  0  0
M  END
>  <CHROM.1>
177.01955311,79.08187594,-61.22804977,-179.86646667,78.82633606,-176.19326076
-67.71737233,46.12763865,-176.54086374,64.59749982,-0.19363018,-10.81871105
15.88988612,-3.12107794,0.25935004,0.73721116

>  <Name>
2g5q_lig

>  <RI>
0

>  <Rbt.Current_Directory>
/home/itssahil/PROJECTS/Mol_Feturizer/New_Systems/rnas/2g5q

>  <Rbt.Executable>
rbdock ($Id: //depot/dev/client3/rdock/2013.1/src/exe/rbdock.cxx#4 $)

>  <Rbt.Library>
libRbt.so (2013.1, Build901 2013/11/27)

>  <Rbt.Parameter_File>
/export/apps/rDock/src/rDock_2013.1_src/data/scripts/dock_solv.prm

>  <Rbt.Receptor>
prm/pocket_docking_5.prm

>  <SCORE>
-24.6708

>  <SCORE.INTER>
-16.8557

>  <SCORE.INTER.CONST>
1

>  <SCORE.INTER.POLAR>
-2.89623

>  <SCORE.INTER.ROT>
10

>  <SCORE.INTER.SOLV>
21.4053

>  <SCORE.INTER.VDW>
-18.9848

>  <SCORE.INTER.norm>
-0.421393

>  <SCORE.INTRA>
-7.81514

>  <SCORE.INTRA.DIHEDRAL>
-18.293

>  <SCORE.INTRA.DIHEDRAL.0>
22.5778

>  <SCORE.INTRA.POLAR>
0

>  <SCORE.INTRA.POLAR.0>
0

>  <SCORE.INTRA.REPUL>
0

>  <SCORE.INTRA.REPUL.0>
0

>  <SCORE.INTRA.SOLV>
0.560944

>  <SCORE.INTRA.SOLV.lig_0>
-102.332

>  <SCORE.INTRA.VDW>
1.05088

>  <SCORE.INTRA.VDW.0>
-5.08747

>  <SCORE.INTRA.norm>
-0.195378

>  <SCORE.RESTR>
0

>  <SCORE.RESTR.CAVITY>
0

>  <SCORE.RESTR.norm>
0

>  <SCORE.SYSTEM>
0

>  <SCORE.SYSTEM.CONST>
0

>  <SCORE.SYSTEM.DIHEDRAL>
0

>  <SCORE.SYSTEM.SOLV>
0

>  <SCORE.SYSTEM.norm>
0

>  <SCORE.heavy>
40

>  <SCORE.norm>
-0.616771

>  <RMSD>
8.429

$$$$
2g5q_lig
 OpenBabel11021811433D
libRbt.so/2013.1/901 2013/11/27
 40 42  0  0  0  0  0  0  0  0999 V2000
   -1.4657  -10.2518   15.7033 C   0  0  2  0  0  0  0  0  0  0  0  0
   -1.5927  -10.6047   17.0630 O   0  0  0  0  0  0  0  0  0  0  0  0
   -1.8995  -11.4640   14.8274 C   0  0  1  0  0  0  0  0  0  0  0  0
   -0.9190  -12.6684   14.9742 C   0  0  2  0  0  0  0  0  0  0  0  0
    0.4903  -12.1881   14.5403 C   0  0  2  0  0  0  0  0  0  0  0  0
    1.4204  -13.2787   14.6397 O   0  0  0  0  0  0  0  0  0  0  0  0
    0.9163  -10.9879   15.4794 C   0  0  2  0  0  0  0  0  0  0  0  0
   -0.0685   -9.8745   15.3633 O   0  0  0  0  0  0  0  0  0  0  0  0
    2.2899  -10.4246   15.1308 C   0  0  0  0  0  0  0  0  0  0  0  0
    2.2817   -9.6915   13.8254 N   0  0  0  0  0  0  0  0  0  0  0  0
    0.5422   -7.3861   19.1025 C   0  0  2  0  0  0  0  0  0  0  0  0
    1.0120   -6.4889   20.1514 N   0  0  0  0  0  0  0  0  0  0  0  0
   -1.0336   -7.2804   18.9553 C   0  0  0  0  0  0  0  0  0  0  0  0
   -1.5461   -8.2456   17.8150 C   0  0  2  0  0  0  0  0  0  0  0  0
   -3.0232   -8.1287   17.6796 N   0  0  0  0  0  0  0  0  0  0  0  0
   -1.1141   -9.7293   18.1464 C   0  0  2  0  0  0  0  0  0  0  0  0
    0.4583   -9.7937   18.2895 C   0  0  2  0  0  0  0  0  0  0  0  0
    0.8466  -11.1366   18.5957 O   0  0  0  0  0  0  0  0  0  0  0  0
    0.9466   -8.8356   19.4421 C   0  0  1  0  0  0  0  0  0  0  0  0
    2.3960   -8.8875   19.5635 O   0  0  0  0  0  0  0  0  0  0  0  0
    3.2540   -7.8182   19.2496 C   0  0  2  0  0  0  0  0  0  0  0  0
    4.3402   -8.3626   18.2611 C   0  0  2  0  0  0  0  0  0  0  0  0
    3.7223   -8.8456   17.1116 O   0  0  0  0  0  0  0  0  0  0  0  0
    5.2190   -9.4801   18.9404 C   0  0  1  0  0  0  0  0  0  0  0  0
    6.2657  -10.0048   18.0026 N   0  0  0  0  0  0  0  0  0  0  0  0
    5.8841   -8.8687   20.2370 C   0  0  2  0  0  0  0  0  0  0  0  0
    6.7030   -9.8375   20.8951 O   0  0  0  0  0  0  0  0  0  0  0  0
    4.7492   -8.3463   21.1812 C   0  0  2  0  0  0  0  0  0  0  0  0
    3.8941   -7.3262   20.4826 O   0  0  0  0  0  0  0  0  0  0  0  0
    5.3061   -7.7200   22.4267 C   0  0  0  0  0  0  0  0  0  0  0  0
    4.2672   -7.1230   23.2199 O   0  0  0  0  0  0  0  0  0  0  0  0
   -3.2657  -11.8451   15.2102 O   0  0  0  0  0  0  0  0  0  0  0  0
   -1.3419  -13.7040   14.1704 O   0  0  0  0  0  0  0  0  0  0  0  0
    3.2584   -2.5465   23.1883 N   0  0  0  0  0  0  0  0  0  0  0  0
    1.8595   -5.4068   19.9594 C   0  0  0  0  0  0  0  0  0  0  0  0
    2.3207   -5.0844   18.8700 O   0  0  0  0  0  0  0  0  0  0  0  0
    2.1724   -4.6611   21.2772 C   0  0  1  0  0  0  0  0  0  0  0  0
    3.5552   -3.9846   21.1862 C   0  0  0  0  0  0  0  0  0  0  0  0
    4.1453   -3.4911   22.5123 C   0  0  0  0  0  0  0  0  0  0  0  0
    1.1357   -3.6852   21.5263 O   0  0  0  0  0  0  0  0  0  0  0  0
  1  2  1  1  0  0  0
  1  3  1  0  0  0  0
  1  8  1  0  0  0  0
  3  4  1  0  0  0  0
  3 32  1  1  0  0  0
  4  5  1  0  0  0  0
  4 33  1  6  0  0  0
  5  6  1  1  0  0  0
  5  7  1  0  0  0  0
  7  8  1  0  0  0  0
  7  9  1  6  0  0  0
  9 10  1  0  0  0  0
 11 12  1  1  0  0  0
 11 13  1  0  0  0  0
 11 19  1  0  0  0  0
 12 35  1  0  0  0  0
 13 14  1  0  0  0  0
 14 15  1  1  0  0  0
 14 16  1  0  0  0  0
 16  2  1  6  0  0  0
 16 17  1  0  0  0  0
 17 18  1  1  0  0  0
 17 19  1  0  0  0  0
 19 20  1  6  0  0  0
 21 20  1  1  0  0  0
 21 22  1  0  0  0  0
 21 29  1  0  0  0  0
 22 23  1  6  0  0  0
 22 24  1  0  0  0  0
 24 25  1  6  0  0  0
 24 26  1  0  0  0  0
 26 27  1  1  0  0  0
 26 28  1  0  0  0  0
 28 29  1  0  0  0  0
 28 30  1  1  0  0  0
 30 31  1  0  0  0  0
 34 39  1  0  0  0  0
 35 36  2  0  0  0  0
 37 35  1  6  0  0  0
 37 38  1  0  0  0  0
 37 40  1  0  0  0  0
 38 39  1  0  0  0  0
M  END
>  <CHROM.1>
172.82511073,69.97436577,-116.53067628,43.87663009,-7.29394503,-127.63928365
174.08037328,152.04345561,-166.16354713,-57.29569384,1.71221868,-8.66064232
18.42760801,2.08022078,0.27378336,-2.47428063

>  <Name>
2g5q_lig

>  <RI>
0

>  <Rbt.Current_Directory>
/home/itssahil/PROJECTS/Mol_Feturizer/New_Systems/rnas/2g5q

>  <Rbt.Executable>
rbdock ($Id: //depot/dev/client3/rdock/2013.1/src/exe/rbdock.cxx#4 $)

>  <Rbt.Library>
libRbt.so (2013.1, Build901 2013/11/27)

>  <Rbt.Parameter_File>
/export/apps/rDock/src/rDock_2013.1_src/data/scripts/dock_solv.prm

>  <Rbt.Receptor>
prm/pocket_docking_3.prm

>  <SCORE>
-10.5124

>  <SCORE.INTER>
-12.6378

>  <SCORE.INTER.CONST>
1

>  <SCORE.INTER.POLAR>
-0.776306

>  <SCORE.INTER.ROT>
10

>  <SCORE.INTER.SOLV>
17.9023

>  <SCORE.INTER.VDW>
-22.0716

>  <SCORE.INTER.norm>
-0.315945

>  <SCORE.INTRA>
1.95636

>  <SCORE.INTRA.DIHEDRAL>
-3.39242

>  <SCORE.INTRA.DIHEDRAL.0>
22.5778

>  <SCORE.INTRA.POLAR>
0

>  <SCORE.INTRA.POLAR.0>
0

>  <SCORE.INTRA.REPUL>
0

>  <SCORE.INTRA.REPUL.0>
0

>  <SCORE.INTRA.SOLV>
4.71482

>  <SCORE.INTRA.SOLV.lig_0>
-102.332

>  <SCORE.INTRA.VDW>
1.29516

>  <SCORE.INTRA.VDW.0>
-5.08747

>  <SCORE.INTRA.norm>
0.0489091

>  <SCORE.RESTR>
0.16902

>  <SCORE.RESTR.CAVITY>
0.16902

>  <SCORE.RESTR.norm>
0.0042255

>  <SCORE.SYSTEM>
0

>  <SCORE.SYSTEM.CONST>
0

>  <SCORE.SYSTEM.DIHEDRAL>
0

>  <SCORE.SYSTEM.SOLV>
0

>  <SCORE.SYSTEM.norm>
0

>  <SCORE.heavy>
40

>  <SCORE.norm>
-0.26281

>  <RMSD>
8.439

$$$$
2g5q_lig
 OpenBabel11021811433D
libRbt.so/2013.1/901 2013/11/27
 40 42  0  0  0  0  0  0  0  0999 V2000
   -1.4135  -12.8342   16.7268 C   0  0  2  0  0  0  0  0  0  0  0  0
   -1.4356  -12.8986   15.3180 O   0  0  0  0  0  0  0  0  0  0  0  0
   -2.8083  -12.3579   17.2295 C   0  0  1  0  0  0  0  0  0  0  0  0
   -3.1052  -10.8845   16.8118 C   0  0  2  0  0  0  0  0  0  0  0  0
   -1.9964   -9.9867   17.4194 C   0  0  2  0  0  0  0  0  0  0  0  0
   -2.2480   -8.6146   17.0753 O   0  0  0  0  0  0  0  0  0  0  0  0
   -0.6004  -10.4701   16.8524 C   0  0  2  0  0  0  0  0  0  0  0  0
   -0.3682  -11.8972   17.2161 O   0  0  0  0  0  0  0  0  0  0  0  0
    0.5708   -9.6602   17.3983 C   0  0  0  0  0  0  0  0  0  0  0  0
    0.4960   -8.2209   16.9926 N   0  0  0  0  0  0  0  0  0  0  0  0
    2.7546  -13.6005   14.3048 C   0  0  2  0  0  0  0  0  0  0  0  0
    3.9513  -13.9695   13.5582 N   0  0  0  0  0  0  0  0  0  0  0  0
    1.7845  -14.8483   14.4379 C   0  0  0  0  0  0  0  0  0  0  0  0
    0.4898  -14.4548   15.2525 C   0  0  2  0  0  0  0  0  0  0  0  0
   -0.4060  -15.6360   15.3797 N   0  0  0  0  0  0  0  0  0  0  0  0
   -0.2413  -13.2528   14.5323 C   0  0  2  0  0  0  0  0  0  0  0  0
    0.7559  -12.0328   14.4146 C   0  0  2  0  0  0  0  0  0  0  0  0
    0.0938  -10.9480   13.7566 O   0  0  0  0  0  0  0  0  0  0  0  0
    2.0326  -12.4423   13.5856 C   0  0  1  0  0  0  0  0  0  0  0  0
    2.9549  -11.3206   13.4892 O   0  0  0  0  0  0  0  0  0  0  0  0
    2.7189  -10.1675   12.7191 C   0  0  2  0  0  0  0  0  0  0  0  0
    3.4184  -10.3772   11.3335 C   0  0  2  0  0  0  0  0  0  0  0  0
    2.8837  -11.4993   10.7078 O   0  0  0  0  0  0  0  0  0  0  0  0
    4.9793  -10.5146   11.4989 C   0  0  1  0  0  0  0  0  0  0  0  0
    5.6591  -10.7113   10.1762 N   0  0  0  0  0  0  0  0  0  0  0  0
    5.5185   -9.2149   12.2183 C   0  0  2  0  0  0  0  0  0  0  0  0
    6.9357   -9.2782   12.3903 O   0  0  0  0  0  0  0  0  0  0  0  0
    4.7839   -9.0642   13.5931 C   0  0  2  0  0  0  0  0  0  0  0  0
    3.2942   -8.9958   13.4034 O   0  0  0  0  0  0  0  0  0  0  0  0
    5.2221   -7.8292   14.3255 C   0  0  0  0  0  0  0  0  0  0  0  0
    4.6262   -7.7578   15.6311 O   0  0  0  0  0  0  0  0  0  0  0  0
   -3.8276  -13.2732   16.6992 O   0  0  0  0  0  0  0  0  0  0  0  0
   -4.3414  -10.5124   17.2923 O   0  0  0  0  0  0  0  0  0  0  0  0
    6.7533  -17.8794   14.0714 N   0  0  0  0  0  0  0  0  0  0  0  0
    5.2535  -13.6699   13.9333 C   0  0  0  0  0  0  0  0  0  0  0  0
    5.5465  -13.0451   14.9467 O   0  0  0  0  0  0  0  0  0  0  0  0
    6.2957  -14.1976   12.9204 C   0  0  1  0  0  0  0  0  0  0  0  0
    6.2826  -15.7395   12.9036 C   0  0  0  0  0  0  0  0  0  0  0  0
    6.7122  -16.4248   14.2060 C   0  0  0  0  0  0  0  0  0  0  0  0
    5.9949  -13.6644   11.6109 O   0  0  0  0  0  0  0  0  0  0  0  0
  1  2  1  6  0  0  0
  1  3  1  0  0  0  0
  1  8  1  0  0  0  0
  3  4  1  0  0  0  0
  3 32  1  6  0  0  0
  4  5  1  0  0  0  0
  4 33  1  1  0  0  0
  5  6  1  6  0  0  0
  5  7  1  0  0  0  0
  7  8  1  0  0  0  0
  7  9  1  1  0  0  0
  9 10  1  0  0  0  0
 11 12  1  6  0  0  0
 11 13  1  0  0  0  0
 11 19  1  0  0  0  0
 12 35  1  0  0  0  0
 13 14  1  0  0  0  0
 14 15  1  6  0  0  0
 14 16  1  0  0  0  0
 16  2  1  1  0  0  0
 16 17  1  0  0  0  0
 17 18  1  6  0  0  0
 17 19  1  0  0  0  0
 19 20  1  1  0  0  0
 21 20  1  1  0  0  0
 21 22  1  0  0  0  0
 21 29  1  0  0  0  0
 22 23  1  1  0  0  0
 22 24  1  0  0  0  0
 24 25  1  6  0  0  0
 24 26  1  0  0  0  0
 26 27  1  1  0  0  0
 26 28  1  0  0  0  0
 28 29  1  0  0  0  0
 28 30  1  6  0  0  0
 30 31  1  0  0  0  0
 34 39  1  0  0  0  0
 35 36  2  0  0  0  0
 37 35  1  1  0  0  0
 37 38  1  0  0  0  0
 37 40  1  0  0  0  0
 38 39  1  0  0  0  0
M  END
>  <CHROM.1>
176.87140194,-63.16699960,-132.87998407,42.28442556,169.85216934,-95.08936462
-175.22949327,-65.68466959,-64.48465674,-176.27284801,2.13004680,-11.81766565
14.46558927,3.00816164,0.48362155,-0.03082459

>  <Name>
2g5q_lig

>  <RI>
224

>  <Rbt.Current_Directory>
/home/itssahil/PROJECTS/Mol_Feturizer/New_Systems/rnas/2g5q

>  <Rbt.Executable>
rbdock ($Id: //depot/dev/client3/rdock/2013.1/src/exe/rbdock.cxx#4 $)

>  <Rbt.Library>
libRbt.so (2013.1, Build901 2013/11/27)

>  <Rbt.Parameter_File>
/export/apps/rDock/src/rDock_2013.1_src/data/scripts/dock_solv.prm

>  <Rbt.Receptor>
prm/pocket_docking_8.prm

>  <SCORE>
-14.193

>  <SCORE.INTER>
-7.47277

>  <SCORE.INTER.CONST>
1

>  <SCORE.INTER.POLAR>
-1.59576

>  <SCORE.INTER.ROT>
10

>  <SCORE.INTER.SOLV>
17.6249

>  <SCORE.INTER.VDW>
-15.8043

>  <SCORE.INTER.norm>
-0.186819

>  <SCORE.INTRA>
-6.72025

>  <SCORE.INTRA.DIHEDRAL>
-13.8892

>  <SCORE.INTRA.DIHEDRAL.0>
22.5778

>  <SCORE.INTRA.POLAR>
0

>  <SCORE.INTRA.POLAR.0>
0

>  <SCORE.INTRA.REPUL>
0

>  <SCORE.INTRA.REPUL.0>
0

>  <SCORE.INTRA.SOLV>
2.02516

>  <SCORE.INTRA.SOLV.lig_0>
-102.332

>  <SCORE.INTRA.VDW>
-0.788212

>  <SCORE.INTRA.VDW.0>
-5.08747

>  <SCORE.INTRA.norm>
-0.168006

>  <SCORE.RESTR>
0

>  <SCORE.RESTR.CAVITY>
0

>  <SCORE.RESTR.norm>
0

>  <SCORE.SYSTEM>
0

>  <SCORE.SYSTEM.CONST>
0

>  <SCORE.SYSTEM.DIHEDRAL>
0

>  <SCORE.SYSTEM.SOLV>
0

>  <SCORE.SYSTEM.norm>
0

>  <SCORE.heavy>
40

>  <SCORE.norm>
-0.354825

>  <RMSD>
8.440

$$$$
2g5q_lig
 OpenBabel11021811433D
libRbt.so/2013.1/901 2013/11/27
 40 42  0  0  0  0  0  0  0  0999 V2000
   -5.5160  -10.0645   16.4650 C   0  0  2  0  0  0  0  0  0  0  0  0
   -4.3162  -10.0385   15.7238 O   0  0  0  0  0  0  0  0  0  0  0  0
   -6.6147  -10.7708   15.6172 C   0  0  1  0  0  0  0  0  0  0  0  0
   -6.9969   -9.9410   14.3527 C   0  0  2  0  0  0  0  0  0  0  0  0
   -7.5137   -8.5592   14.8307 C   0  0  2  0  0  0  0  0  0  0  0  0
   -7.8988   -7.7712   13.6927 O   0  0  0  0  0  0  0  0  0  0  0  0
   -6.3576   -7.8530   15.6485 C   0  0  2  0  0  0  0  0  0  0  0  0
   -5.9720   -8.6942   16.8175 O   0  0  0  0  0  0  0  0  0  0  0  0
   -6.7639   -6.4833   16.1819 C   0  0  0  0  0  0  0  0  0  0  0  0
   -6.8538   -5.4603   15.0924 N   0  0  0  0  0  0  0  0  0  0  0  0
   -0.2529   -8.7923   16.7303 C   0  0  2  0  0  0  0  0  0  0  0  0
    1.0529   -8.7329   17.3762 N   0  0  0  0  0  0  0  0  0  0  0  0
   -1.4040   -8.5690   17.7985 C   0  0  0  0  0  0  0  0  0  0  0  0
   -2.8202   -8.6254   17.1016 C   0  0  2  0  0  0  0  0  0  0  0  0
   -3.8900   -8.4035   18.1118 N   0  0  0  0  0  0  0  0  0  0  0  0
   -2.9951  -10.0177   16.3744 C   0  0  2  0  0  0  0  0  0  0  0  0
   -1.8302  -10.2056   15.3235 C   0  0  2  0  0  0  0  0  0  0  0  0
   -1.9870  -11.4696   14.6709 O   0  0  0  0  0  0  0  0  0  0  0  0
   -0.4276  -10.1616   16.0415 C   0  0  1  0  0  0  0  0  0  0  0  0
    0.6439  -10.3226   15.0697 O   0  0  0  0  0  0  0  0  0  0  0  0
    1.9106  -10.8543   15.3710 C   0  0  2  0  0  0  0  0  0  0  0  0
    2.8446  -10.5640   14.1477 C   0  0  2  0  0  0  0  0  0  0  0  0
    2.9286   -9.1902   13.9426 O   0  0  0  0  0  0  0  0  0  0  0  0
    2.3291  -11.2967   12.8515 C   0  0  1  0  0  0  0  0  0  0  0  0
    3.2200  -11.0284   11.6748 N   0  0  0  0  0  0  0  0  0  0  0  0
    2.2521  -12.8458   13.1545 C   0  0  2  0  0  0  0  0  0  0  0  0
    1.7958  -13.5673   12.0085 O   0  0  0  0  0  0  0  0  0  0  0  0
    1.3052  -13.0679   14.3819 C   0  0  2  0  0  0  0  0  0  0  0  0
    1.7934  -12.3079   15.5835 O   0  0  0  0  0  0  0  0  0  0  0  0
    1.2053  -14.5194   14.7518 C   0  0  0  0  0  0  0  0  0  0  0  0
    2.4782  -15.0407   15.1676 O   0  0  0  0  0  0  0  0  0  0  0  0
   -6.1248  -12.1050   15.2455 O   0  0  0  0  0  0  0  0  0  0  0  0
   -7.9786  -10.6037   13.6494 O   0  0  0  0  0  0  0  0  0  0  0  0
    5.5079   -9.7572   20.5514 N   0  0  0  0  0  0  0  0  0  0  0  0
    1.4459   -9.5050   18.4605 C   0  0  0  0  0  0  0  0  0  0  0  0
    0.7245  -10.3308   19.0091 O   0  0  0  0  0  0  0  0  0  0  0  0
    2.8919   -9.1957   18.9121 C   0  0  1  0  0  0  0  0  0  0  0  0
    3.0448   -9.4726   20.4214 C   0  0  0  0  0  0  0  0  0  0  0  0
    4.3602   -9.0058   21.0556 C   0  0  0  0  0  0  0  0  0  0  0  0
    3.8109  -10.0041   18.1432 O   0  0  0  0  0  0  0  0  0  0  0  0
  1  2  1  6  0  0  0
  1  3  1  0  0  0  0
  1  8  1  0  0  0  0
  3  4  1  0  0  0  0
  3 32  1  6  0  0  0
  4  5  1  0  0  0  0
  4 33  1  1  0  0  0
  5  6  1  6  0  0  0
  5  7  1  0  0  0  0
  7  8  1  0  0  0  0
  7  9  1  1  0  0  0
  9 10  1  0  0  0  0
 11 12  1  1  0  0  0
 11 13  1  0  0  0  0
 11 19  1  0  0  0  0
 12 35  1  0  0  0  0
 13 14  1  0  0  0  0
 14 15  1  1  0  0  0
 14 16  1  0  0  0  0
 16  2  1  6  0  0  0
 16 17  1  0  0  0  0
 17 18  1  1  0  0  0
 17 19  1  0  0  0  0
 19 20  1  6  0  0  0
 21 20  1  6  0  0  0
 21 22  1  0  0  0  0
 21 29  1  0  0  0  0
 22 23  1  6  0  0  0
 22 24  1  0  0  0  0
 24 25  1  6  0  0  0
 24 26  1  0  0  0  0
 26 27  1  6  0  0  0
 26 28  1  0  0  0  0
 28 29  1  0  0  0  0
 28 30  1  1  0  0  0
 30 31  1  0  0  0  0
 34 39  1  0  0  0  0
 35 36  2  0  0  0  0
 37 35  1  6  0  0  0
 37 38  1  0  0  0  0
 37 40  1  0  0  0  0
 38 39  1  0  0  0  0
M  END
>  <CHROM.1>
-152.06918850,-72.27543146,54.78778381,-68.19526898,87.23144548,-167.87254337
63.07306322,151.31809768,-170.84704147,-66.67980319,-1.18449662,-10.16499182
15.91282822,-3.11999490,0.25547650,-2.19019696

>  <Name>
2g5q_lig

>  <RI>
0

>  <Rbt.Current_Directory>
/home/itssahil/PROJECTS/Mol_Feturizer/New_Systems/rnas/2g5q

>  <Rbt.Executable>
rbdock ($Id: //depot/dev/client3/rdock/2013.1/src/exe/rbdock.cxx#4 $)

>  <Rbt.Library>
libRbt.so (2013.1, Build901 2013/11/27)

>  <Rbt.Parameter_File>
/export/apps/rDock/src/rDock_2013.1_src/data/scripts/dock_solv.prm

>  <Rbt.Receptor>
prm/pocket_docking_5.prm

>  <SCORE>
-15.0329

>  <SCORE.INTER>
-11.8577

>  <SCORE.INTER.CONST>
1

>  <SCORE.INTER.POLAR>
-1.49133

>  <SCORE.INTER.ROT>
10

>  <SCORE.INTER.SOLV>
20.5101

>  <SCORE.INTER.VDW>
-20.0374

>  <SCORE.INTER.norm>
-0.296442

>  <SCORE.INTRA>
-3.18741

>  <SCORE.INTRA.DIHEDRAL>
-12.6592

>  <SCORE.INTRA.DIHEDRAL.0>
22.5778

>  <SCORE.INTRA.POLAR>
0

>  <SCORE.INTRA.POLAR.0>
0

>  <SCORE.INTRA.REPUL>
0

>  <SCORE.INTRA.REPUL.0>
0

>  <SCORE.INTRA.SOLV>
4.72655

>  <SCORE.INTRA.SOLV.lig_0>
-102.332

>  <SCORE.INTRA.VDW>
0.778897

>  <SCORE.INTRA.VDW.0>
-5.08747

>  <SCORE.INTRA.norm>
-0.0796854

>  <SCORE.RESTR>
0.0121874

>  <SCORE.RESTR.CAVITY>
0.0121874

>  <SCORE.RESTR.norm>
0.000304685

>  <SCORE.SYSTEM>
0

>  <SCORE.SYSTEM.CONST>
0

>  <SCORE.SYSTEM.DIHEDRAL>
0

>  <SCORE.SYSTEM.SOLV>
0

>  <SCORE.SYSTEM.norm>
0

>  <SCORE.heavy>
40

>  <SCORE.norm>
-0.375823

>  <RMSD>
8.447

$$$$
2g5q_lig
 OpenBabel11021811433D
libRbt.so/2013.1/901 2013/11/27
 40 42  0  0  0  0  0  0  0  0999 V2000
   -5.1098   -7.4274   18.5889 C   0  0  2  0  0  0  0  0  0  0  0  0
   -4.4908   -8.6469   18.2434 O   0  0  0  0  0  0  0  0  0  0  0  0
   -6.3637   -7.7303   19.4611 C   0  0  1  0  0  0  0  0  0  0  0  0
   -7.4706   -8.4729   18.6507 C   0  0  2  0  0  0  0  0  0  0  0  0
   -7.8712   -7.5684   17.4564 C   0  0  2  0  0  0  0  0  0  0  0  0
   -8.9085   -8.2091   16.6961 O   0  0  0  0  0  0  0  0  0  0  0  0
   -6.5847   -7.3194   16.5693 C   0  0  2  0  0  0  0  0  0  0  0  0
   -5.5228   -6.6618   17.3833 O   0  0  0  0  0  0  0  0  0  0  0  0
   -6.8618   -6.4244   15.3660 C   0  0  0  0  0  0  0  0  0  0  0  0
   -7.7079   -7.1104   14.3387 N   0  0  0  0  0  0  0  0  0  0  0  0
   -0.6021   -9.7955   16.6198 C   0  0  2  0  0  0  0  0  0  0  0  0
    0.5476   -9.8928   15.7285 N   0  0  0  0  0  0  0  0  0  0  0  0
   -1.9133  -10.2952   15.8802 C   0  0  0  0  0  0  0  0  0  0  0  0
   -3.1603  -10.1983   16.8446 C   0  0  2  0  0  0  0  0  0  0  0  0
   -4.3809  -10.6801   16.1431 N   0  0  0  0  0  0  0  0  0  0  0  0
   -3.3310   -8.7063   17.3376 C   0  0  2  0  0  0  0  0  0  0  0  0
   -2.0061   -8.2437   18.0639 C   0  0  2  0  0  0  0  0  0  0  0  0
   -2.1606   -6.8906   18.5037 O   0  0  0  0  0  0  0  0  0  0  0  0
   -0.7779   -8.3335   17.0798 C   0  0  1  0  0  0  0  0  0  0  0  0
    0.4430   -7.9185   17.7549 O   0  0  0  0  0  0  0  0  0  0  0  0
    0.9847   -8.5686   18.8783 C   0  0  2  0  0  0  0  0  0  0  0  0
    1.5524   -7.4632   19.8318 C   0  0  2  0  0  0  0  0  0  0  0  0
    0.5250   -6.6056   20.2130 O   0  0  0  0  0  0  0  0  0  0  0  0
    2.7255   -6.6667   19.1448 C   0  0  1  0  0  0  0  0  0  0  0  0
    3.2793   -5.6083   20.0522 N   0  0  0  0  0  0  0  0  0  0  0  0
    3.8509   -7.6971   18.7335 C   0  0  2  0  0  0  0  0  0  0  0  0
    4.9496   -7.0298   18.1093 O   0  0  0  0  0  0  0  0  0  0  0  0
    3.2216   -8.7704   17.7825 C   0  0  2  0  0  0  0  0  0  0  0  0
    2.0685   -9.4694   18.4471 O   0  0  0  0  0  0  0  0  0  0  0  0
    4.2266   -9.8071   17.3715 C   0  0  0  0  0  0  0  0  0  0  0  0
    5.2525   -9.2389   16.5412 O   0  0  0  0  0  0  0  0  0  0  0  0
   -5.9379   -8.5227   20.6226 O   0  0  0  0  0  0  0  0  0  0  0  0
   -8.5579   -8.7029   19.4646 O   0  0  0  0  0  0  0  0  0  0  0  0
    4.3448  -12.0652   12.3660 N   0  0  0  0  0  0  0  0  0  0  0  0
    0.8995  -11.0172   14.9950 C   0  0  0  0  0  0  0  0  0  0  0  0
    0.2767  -12.0730   15.0212 O   0  0  0  0  0  0  0  0  0  0  0  0
    2.1768  -10.7961   14.1523 C   0  0  1  0  0  0  0  0  0  0  0  0
    1.9864  -11.3849   12.7397 C   0  0  0  0  0  0  0  0  0  0  0  0
    3.2112  -11.3219   11.8198 C   0  0  0  0  0  0  0  0  0  0  0  0
    2.4618   -9.3805   14.0874 O   0  0  0  0  0  0  0  0  0  0  0  0
  1  2  1  6  0  0  0
  1  3  1  0  0  0  0
  1  8  1  0  0  0  0
  3  4  1  0  0  0  0
  3 32  1  1  0  0  0
  4  5  1  0  0  0  0
  4 33  1  1  0  0  0
  5  6  1  6  0  0  0
  5  7  1  0  0  0  0
  7  8  1  0  0  0  0
  7  9  1  6  0  0  0
  9 10  1  0  0  0  0
 11 12  1  6  0  0  0
 11 13  1  0  0  0  0
 11 19  1  0  0  0  0
 12 35  1  0  0  0  0
 13 14  1  0  0  0  0
 14 15  1  6  0  0  0
 14 16  1  0  0  0  0
 16  2  1  1  0  0  0
 16 17  1  0  0  0  0
 17 18  1  6  0  0  0
 17 19  1  0  0  0  0
 19 20  1  1  0  0  0
 21 20  1  6  0  0  0
 21 22  1  0  0  0  0
 21 29  1  0  0  0  0
 22 23  1  6  0  0  0
 22 24  1  0  0  0  0
 24 25  1  1  0  0  0
 24 26  1  0  0  0  0
 26 27  1  6  0  0  0
 26 28  1  0  0  0  0
 28 29  1  0  0  0  0
 28 30  1  1  0  0  0
 30 31  1  0  0  0  0
 34 39  1  0  0  0  0
 35 36  2  0  0  0  0
 37 35  1  1  0  0  0
 37 38  1  0  0  0  0
 37 40  1  0  0  0  0
 38 39  1  0  0  0  0
M  END
>  <CHROM.1>
175.44403077,-70.01853199,-50.08476062,-163.88712083,-57.73392519,-141.68000410
-66.74975411,-136.64193176,-176.04429226,60.82497646,-1.27194039,-8.70599056
17.09503492,-2.94053313,0.04295133,-2.13472409

>  <Name>
2g5q_lig

>  <RI>
0

>  <Rbt.Current_Directory>
/home/itssahil/PROJECTS/Mol_Feturizer/New_Systems/rnas/2g5q

>  <Rbt.Executable>
rbdock ($Id: //depot/dev/client3/rdock/2013.1/src/exe/rbdock.cxx#4 $)

>  <Rbt.Library>
libRbt.so (2013.1, Build901 2013/11/27)

>  <Rbt.Parameter_File>
/export/apps/rDock/src/rDock_2013.1_src/data/scripts/dock_solv.prm

>  <Rbt.Receptor>
prm/pocket_docking_5.prm

>  <SCORE>
-19.8648

>  <SCORE.INTER>
-14.9002

>  <SCORE.INTER.CONST>
1

>  <SCORE.INTER.POLAR>
-1.54735

>  <SCORE.INTER.ROT>
10

>  <SCORE.INTER.SOLV>
15.464

>  <SCORE.INTER.VDW>
-20.197

>  <SCORE.INTER.norm>
-0.372504

>  <SCORE.INTRA>
-4.96464

>  <SCORE.INTRA.DIHEDRAL>
-13.2944

>  <SCORE.INTRA.DIHEDRAL.0>
22.5778

>  <SCORE.INTRA.POLAR>
0

>  <SCORE.INTRA.POLAR.0>
0

>  <SCORE.INTRA.REPUL>
0

>  <SCORE.INTRA.REPUL.0>
0

>  <SCORE.INTRA.SOLV>
2.05421

>  <SCORE.INTRA.SOLV.lig_0>
-102.332

>  <SCORE.INTRA.VDW>
0.655457

>  <SCORE.INTRA.VDW.0>
-5.08747

>  <SCORE.INTRA.norm>
-0.124116

>  <SCORE.RESTR>
0

>  <SCORE.RESTR.CAVITY>
0

>  <SCORE.RESTR.norm>
0

>  <SCORE.SYSTEM>
0

>  <SCORE.SYSTEM.CONST>
0

>  <SCORE.SYSTEM.DIHEDRAL>
0

>  <SCORE.SYSTEM.SOLV>
0

>  <SCORE.SYSTEM.norm>
0

>  <SCORE.heavy>
40

>  <SCORE.norm>
-0.49662

>  <RMSD>
8.459

$$$$
2g5q_lig
 OpenBabel11021811433D
libRbt.so/2013.1/901 2013/11/27
 40 42  0  0  0  0  0  0  0  0999 V2000
   -4.8628   -9.6373   16.6395 C   0  0  2  0  0  0  0  0  0  0  0  0
   -3.7291   -9.7216   15.8047 O   0  0  0  0  0  0  0  0  0  0  0  0
   -5.0719  -11.0110   17.3424 C   0  0  1  0  0  0  0  0  0  0  0  0
   -5.4609  -12.1304   16.3280 C   0  0  2  0  0  0  0  0  0  0  0  0
   -6.7739  -11.6980   15.6251 C   0  0  2  0  0  0  0  0  0  0  0  0
   -7.1790  -12.7169   14.6965 O   0  0  0  0  0  0  0  0  0  0  0  0
   -6.5115  -10.3239   14.8855 C   0  0  2  0  0  0  0  0  0  0  0  0
   -6.0855   -9.2879   15.8694 O   0  0  0  0  0  0  0  0  0  0  0  0
   -7.7482   -9.7947   14.1672 C   0  0  0  0  0  0  0  0  0  0  0  0
   -8.8734   -9.5183   15.1155 N   0  0  0  0  0  0  0  0  0  0  0  0
    0.4721   -8.8449   16.6163 C   0  0  2  0  0  0  0  0  0  0  0  0
    1.8219   -8.9381   17.1596 N   0  0  0  0  0  0  0  0  0  0  0  0
   -0.5812   -8.6755   17.7901 C   0  0  0  0  0  0  0  0  0  0  0  0
   -2.0444   -8.5669   17.2054 C   0  0  2  0  0  0  0  0  0  0  0  0
   -3.0211   -8.3972   18.3150 N   0  0  0  0  0  0  0  0  0  0  0  0
   -2.3663   -9.8545   16.3472 C   0  0  2  0  0  0  0  0  0  0  0  0
   -1.2956   -9.9916   15.1933 C   0  0  2  0  0  0  0  0  0  0  0  0
   -1.5853  -11.1615   14.4216 O   0  0  0  0  0  0  0  0  0  0  0  0
    0.1547  -10.1141   15.7987 C   0  0  1  0  0  0  0  0  0  0  0  0
    1.1400  -10.2279   14.7335 O   0  0  0  0  0  0  0  0  0  0  0  0
    2.4268  -10.7699   14.9020 C   0  0  2  0  0  0  0  0  0  0  0  0
    3.2435  -10.4527   13.6037 C   0  0  2  0  0  0  0  0  0  0  0  0
    3.3145   -9.0745   13.4243 O   0  0  0  0  0  0  0  0  0  0  0  0
    2.6053  -11.1526   12.3446 C   0  0  1  0  0  0  0  0  0  0  0  0
    3.3833  -10.8584   11.0963 N   0  0  0  0  0  0  0  0  0  0  0  0
    2.5496  -12.7083   12.6166 C   0  0  2  0  0  0  0  0  0  0  0  0
    1.9844  -13.4009   11.5017 O   0  0  0  0  0  0  0  0  0  0  0  0
    1.7207  -12.9575   13.9218 C   0  0  2  0  0  0  0  0  0  0  0  0
    2.3230  -12.2279   15.0901 O   0  0  0  0  0  0  0  0  0  0  0  0
    1.6489  -14.4172   14.2650 C   0  0  0  0  0  0  0  0  0  0  0  0
    0.8026  -14.6444   15.4038 O   0  0  0  0  0  0  0  0  0  0  0  0
   -3.8376  -11.3548   18.0610 O   0  0  0  0  0  0  0  0  0  0  0  0
   -5.6460  -13.3166   17.0034 O   0  0  0  0  0  0  0  0  0  0  0  0
    6.2817  -10.9919   16.7346 N   0  0  0  0  0  0  0  0  0  0  0  0
    2.4767   -7.9311   17.8548 C   0  0  0  0  0  0  0  0  0  0  0  0
    1.9877   -6.8308   18.0865 O   0  0  0  0  0  0  0  0  0  0  0  0
    3.9011   -8.3450   18.2910 C   0  0  1  0  0  0  0  0  0  0  0  0
    4.4498   -9.4302   17.3425 C   0  0  0  0  0  0  0  0  0  0  0  0
    5.8188  -10.0113   17.7144 C   0  0  0  0  0  0  0  0  0  0  0  0
    4.7544   -7.1783   18.2890 O   0  0  0  0  0  0  0  0  0  0  0  0
  1  2  1  6  0  0  0
  1  3  1  0  0  0  0
  1  8  1  0  0  0  0
  3  4  1  0  0  0  0
  3 32  1  6  0  0  0
  4  5  1  0  0  0  0
  4 33  1  1  0  0  0
  5  6  1  6  0  0  0
  5  7  1  0  0  0  0
  7  8  1  0  0  0  0
  7  9  1  1  0  0  0
  9 10  1  0  0  0  0
 11 12  1  1  0  0  0
 11 13  1  0  0  0  0
 11 19  1  0  0  0  0
 12 35  1  0  0  0  0
 13 14  1  0  0  0  0
 14 15  1  1  0  0  0
 14 16  1  0  0  0  0
 16  2  1  6  0  0  0
 16 17  1  0  0  0  0
 17 18  1  1  0  0  0
 17 19  1  0  0  0  0
 19 20  1  6  0  0  0
 21 20  1  6  0  0  0
 21 22  1  0  0  0  0
 21 29  1  0  0  0  0
 22 23  1  6  0  0  0
 22 24  1  0  0  0  0
 24 25  1  6  0  0  0
 24 26  1  0  0  0  0
 26 27  1  6  0  0  0
 26 28  1  0  0  0  0
 28 29  1  0  0  0  0
 28 30  1  1  0  0  0
 30 31  1  0  0  0  0
 34 39  1  0  0  0  0
 35 36  2  0  0  0  0
 37 35  1  6  0  0  0
 37 38  1  0  0  0  0
 37 40  1  0  0  0  0
 38 39  1  0  0  0  0
M  END
>  <CHROM.1>
-68.58588221,61.67511425,-64.12239990,-62.31333971,81.91469578,-169.26281277
-175.56811725,25.82498789,-175.75086695,-177.77581464,-0.59654631,-10.49147833
15.68286372,3.11865007,-0.06220996,-2.34186261

>  <Name>
2g5q_lig

>  <RI>
0

>  <Rbt.Current_Directory>
/home/itssahil/PROJECTS/Mol_Feturizer/New_Systems/rnas/2g5q

>  <Rbt.Executable>
rbdock ($Id: //depot/dev/client3/rdock/2013.1/src/exe/rbdock.cxx#4 $)

>  <Rbt.Library>
libRbt.so (2013.1, Build901 2013/11/27)

>  <Rbt.Parameter_File>
/export/apps/rDock/src/rDock_2013.1_src/data/scripts/dock_solv.prm

>  <Rbt.Receptor>
prm/pocket_docking_5.prm

>  <SCORE>
-20.7693

>  <SCORE.INTER>
-15.2426

>  <SCORE.INTER.CONST>
1

>  <SCORE.INTER.POLAR>
-2.31296

>  <SCORE.INTER.ROT>
10

>  <SCORE.INTER.SOLV>
15.0197

>  <SCORE.INTER.VDW>
-17.7251

>  <SCORE.INTER.norm>
-0.381064

>  <SCORE.INTRA>
-5.52671

>  <SCORE.INTRA.DIHEDRAL>
-17.5364

>  <SCORE.INTRA.DIHEDRAL.0>
22.5778

>  <SCORE.INTRA.POLAR>
0

>  <SCORE.INTRA.POLAR.0>
0

>  <SCORE.INTRA.REPUL>
0

>  <SCORE.INTRA.REPUL.0>
0

>  <SCORE.INTRA.SOLV>
2.5337

>  <SCORE.INTRA.SOLV.lig_0>
-102.332

>  <SCORE.INTRA.VDW>
1.97462

>  <SCORE.INTRA.VDW.0>
-5.08747

>  <SCORE.INTRA.norm>
-0.138168

>  <SCORE.RESTR>
0

>  <SCORE.RESTR.CAVITY>
0

>  <SCORE.RESTR.norm>
0

>  <SCORE.SYSTEM>
0

>  <SCORE.SYSTEM.CONST>
0

>  <SCORE.SYSTEM.DIHEDRAL>
0

>  <SCORE.SYSTEM.SOLV>
0

>  <SCORE.SYSTEM.norm>
0

>  <SCORE.heavy>
40

>  <SCORE.norm>
-0.519232

>  <RMSD>
8.467

$$$$
2g5q_lig
 OpenBabel11021811433D
libRbt.so/2013.1/901 2013/11/27
 40 42  0  0  0  0  0  0  0  0999 V2000
   -2.1188   -8.9604   20.0262 C   0  0  2  0  0  0  0  0  0  0  0  0
   -1.5654   -9.6869   18.9513 O   0  0  0  0  0  0  0  0  0  0  0  0
   -3.0562   -9.9018   20.8386 C   0  0  1  0  0  0  0  0  0  0  0  0
   -4.3107  -10.3264   20.0143 C   0  0  2  0  0  0  0  0  0  0  0  0
   -5.0782   -9.0375   19.6210 C   0  0  2  0  0  0  0  0  0  0  0  0
   -6.2566   -9.3887   18.8778 O   0  0  0  0  0  0  0  0  0  0  0  0
   -4.1112   -8.1274   18.7603 C   0  0  2  0  0  0  0  0  0  0  0  0
   -2.8946   -7.7846   19.5510 O   0  0  0  0  0  0  0  0  0  0  0  0
   -4.7625   -6.8180   18.3280 C   0  0  0  0  0  0  0  0  0  0  0  0
   -5.9183   -7.0439   17.4035 N   0  0  0  0  0  0  0  0  0  0  0  0
    1.9874   -9.4301   16.4238 C   0  0  2  0  0  0  0  0  0  0  0  0
    3.0135   -8.8992   15.5343 N   0  0  0  0  0  0  0  0  0  0  0  0
    0.5593   -9.3172   15.7429 C   0  0  0  0  0  0  0  0  0  0  0  0
   -0.5546   -9.8979   16.7003 C   0  0  2  0  0  0  0  0  0  0  0  0
   -1.8870   -9.7965   16.0458 N   0  0  0  0  0  0  0  0  0  0  0  0
   -0.5276   -9.1181   18.0748 C   0  0  2  0  0  0  0  0  0  0  0  0
    0.9091   -9.2496   18.7193 C   0  0  2  0  0  0  0  0  0  0  0  0
    0.9331   -8.5375   19.9604 O   0  0  0  0  0  0  0  0  0  0  0  0
    2.0029   -8.6506   17.7550 C   0  0  1  0  0  0  0  0  0  0  0  0
    3.3263   -8.7841   18.3456 O   0  0  0  0  0  0  0  0  0  0  0  0
    4.3795   -7.8752   18.1384 C   0  0  2  0  0  0  0  0  0  0  0  0
    5.5530   -8.2920   19.0883 C   0  0  2  0  0  0  0  0  0  0  0  0
    5.9599   -9.5874   18.7838 O   0  0  0  0  0  0  0  0  0  0  0  0
    5.1292   -8.1755   20.6014 C   0  0  1  0  0  0  0  0  0  0  0  0
    6.2485   -8.5684   21.5196 N   0  0  0  0  0  0  0  0  0  0  0  0
    4.6749   -6.6871   20.8764 C   0  0  2  0  0  0  0  0  0  0  0  0
    4.2841   -6.5172   22.2404 O   0  0  0  0  0  0  0  0  0  0  0  0
    3.5026   -6.3344   19.8997 C   0  0  2  0  0  0  0  0  0  0  0  0
    3.9224   -6.5133   18.4674 O   0  0  0  0  0  0  0  0  0  0  0  0
    3.0352   -4.9193   20.0799 C   0  0  0  0  0  0  0  0  0  0  0  0
    4.1034   -3.9845   19.8564 O   0  0  0  0  0  0  0  0  0  0  0  0
   -2.2795  -11.0750   21.2608 O   0  0  0  0  0  0  0  0  0  0  0  0
   -5.1087  -11.1445   20.7832 O   0  0  0  0  0  0  0  0  0  0  0  0
    7.5671   -7.5456   13.2367 N   0  0  0  0  0  0  0  0  0  0  0  0
    3.7697   -9.6504   14.6455 C   0  0  0  0  0  0  0  0  0  0  0  0
    3.6624  -10.8645   14.5127 O   0  0  0  0  0  0  0  0  0  0  0  0
    4.7771   -8.7871   13.8515 C   0  0  1  0  0  0  0  0  0  0  0  0
    5.7253   -8.0544   14.8222 C   0  0  0  0  0  0  0  0  0  0  0  0
    6.6210   -6.9793   14.1959 C   0  0  0  0  0  0  0  0  0  0  0  0
    5.5191   -9.6367   12.9477 O   0  0  0  0  0  0  0  0  0  0  0  0
  1  2  1  6  0  0  0
  1  3  1  0  0  0  0
  1  8  1  0  0  0  0
  3  4  1  0  0  0  0
  3 32  1  6  0  0  0
  4  5  1  0  0  0  0
  4 33  1  1  0  0  0
  5  6  1  6  0  0  0
  5  7  1  0  0  0  0
  7  8  1  0  0  0  0
  7  9  1  1  0  0  0
  9 10  1  0  0  0  0
 11 12  1  6  0  0  0
 11 13  1  0  0  0  0
 11 19  1  0  0  0  0
 12 35  1  0  0  0  0
 13 14  1  0  0  0  0
 14 15  1  6  0  0  0
 14 16  1  0  0  0  0
 16  2  1  1  0  0  0
 16 17  1  0  0  0  0
 17 18  1  1  0  0  0
 17 19  1  0  0  0  0
 19 20  1  1  0  0  0
 21 20  1  1  0  0  0
 21 22  1  0  0  0  0
 21 29  1  0  0  0  0
 22 23  1  6  0  0  0
 22 24  1  0  0  0  0
 24 25  1  1  0  0  0
 24 26  1  0  0  0  0
 26 27  1  1  0  0  0
 26 28  1  0  0  0  0
 28 29  1  0  0  0  0
 28 30  1  6  0  0  0
 30 31  1  0  0  0  0
 34 39  1  0  0  0  0
 35 36  2  0  0  0  0
 37 35  1  1  0  0  0
 37 38  1  0  0  0  0
 37 40  1  0  0  0  0
 38 39  1  0  0  0  0
M  END
>  <CHROM.1>
-173.54598951,-64.51320383,-94.08745847,-157.48272193,92.26501281,173.07402978
58.86397516,58.32029659,-169.96262156,-64.28751200,1.26207864,-8.50003836
18.16376681,-2.92340824,-0.20273782,-1.87827167

>  <Name>
2g5q_lig

>  <RI>
0

>  <Rbt.Current_Directory>
/home/itssahil/PROJECTS/Mol_Feturizer/New_Systems/rnas/2g5q

>  <Rbt.Executable>
rbdock ($Id: //depot/dev/client3/rdock/2013.1/src/exe/rbdock.cxx#4 $)

>  <Rbt.Library>
libRbt.so (2013.1, Build901 2013/11/27)

>  <Rbt.Parameter_File>
/export/apps/rDock/src/rDock_2013.1_src/data/scripts/dock_solv.prm

>  <Rbt.Receptor>
prm/pocket_docking_5.prm

>  <SCORE>
-18.8365

>  <SCORE.INTER>
-12.4767

>  <SCORE.INTER.CONST>
1

>  <SCORE.INTER.POLAR>
-1.11274

>  <SCORE.INTER.ROT>
10

>  <SCORE.INTER.SOLV>
18.5474

>  <SCORE.INTER.VDW>
-21.0578

>  <SCORE.INTER.norm>
-0.311918

>  <SCORE.INTRA>
-6.38073

>  <SCORE.INTRA.DIHEDRAL>
-13.8519

>  <SCORE.INTRA.DIHEDRAL.0>
22.5778

>  <SCORE.INTRA.POLAR>
0

>  <SCORE.INTRA.POLAR.0>
0

>  <SCORE.INTRA.REPUL>
0

>  <SCORE.INTRA.REPUL.0>
0

>  <SCORE.INTRA.SOLV>
1.79657

>  <SCORE.INTRA.SOLV.lig_0>
-102.332

>  <SCORE.INTRA.VDW>
-0.353051

>  <SCORE.INTRA.VDW.0>
-5.08747

>  <SCORE.INTRA.norm>
-0.159518

>  <SCORE.RESTR>
0.0209678

>  <SCORE.RESTR.CAVITY>
0.0209678

>  <SCORE.RESTR.norm>
0.000524196

>  <SCORE.SYSTEM>
0

>  <SCORE.SYSTEM.CONST>
0

>  <SCORE.SYSTEM.DIHEDRAL>
0

>  <SCORE.SYSTEM.SOLV>
0

>  <SCORE.SYSTEM.norm>
0

>  <SCORE.heavy>
40

>  <SCORE.norm>
-0.470912

>  <RMSD>
8.467

$$$$
2g5q_lig
 OpenBabel11021811433D
libRbt.so/2013.1/901 2013/11/27
 40 42  0  0  0  0  0  0  0  0999 V2000
   -5.2887  -10.7720   17.3182 C   0  0  2  0  0  0  0  0  0  0  0  0
   -4.1021  -10.6075   16.5736 O   0  0  0  0  0  0  0  0  0  0  0  0
   -6.1467  -11.8894   16.6548 C   0  0  1  0  0  0  0  0  0  0  0  0
   -6.6674  -11.4646   15.2469 C   0  0  2  0  0  0  0  0  0  0  0  0
   -7.5241  -10.1843   15.4246 C   0  0  2  0  0  0  0  0  0  0  0  0
   -8.0426   -9.7731   14.1493 O   0  0  0  0  0  0  0  0  0  0  0  0
   -6.6093   -9.0591   16.0580 C   0  0  2  0  0  0  0  0  0  0  0  0
   -6.0787   -9.5140   17.3750 O   0  0  0  0  0  0  0  0  0  0  0  0
   -7.3583   -7.7514   16.2910 C   0  0  0  0  0  0  0  0  0  0  0  0
   -7.6062   -7.0107   15.0137 N   0  0  0  0  0  0  0  0  0  0  0  0
   -0.4941   -8.2441   17.2622 C   0  0  2  0  0  0  0  0  0  0  0  0
    0.7346   -7.7450   17.8679 N   0  0  0  0  0  0  0  0  0  0  0  0
   -1.7045   -8.0985   18.2770 C   0  0  0  0  0  0  0  0  0  0  0  0
   -3.0392   -8.6315   17.6221 C   0  0  2  0  0  0  0  0  0  0  0  0
   -4.1681   -8.4791   18.5794 N   0  0  0  0  0  0  0  0  0  0  0  0
   -2.8494  -10.1403   17.1915 C   0  0  2  0  0  0  0  0  0  0  0  0
   -1.6348  -10.2456   16.1863 C   0  0  2  0  0  0  0  0  0  0  0  0
   -1.4609  -11.6133   15.8028 O   0  0  0  0  0  0  0  0  0  0  0  0
   -0.3111   -9.7234   16.8646 C   0  0  1  0  0  0  0  0  0  0  0  0
    0.8034   -9.8100   15.9326 O   0  0  0  0  0  0  0  0  0  0  0  0
    1.8199  -10.7794   16.0043 C   0  0  2  0  0  0  0  0  0  0  0  0
    2.9285  -10.3742   14.9747 C   0  0  2  0  0  0  0  0  0  0  0  0
    3.4293   -9.1176   15.3013 O   0  0  0  0  0  0  0  0  0  0  0  0
    2.3710  -10.3930   13.5012 C   0  0  1  0  0  0  0  0  0  0  0  0
    3.4270  -10.0106   12.5068 N   0  0  0  0  0  0  0  0  0  0  0  0
    1.8152  -11.8412   13.1993 C   0  0  2  0  0  0  0  0  0  0  0  0
    1.3004  -11.9226   11.8687 O   0  0  0  0  0  0  0  0  0  0  0  0
    0.7136  -12.1840   14.2583 C   0  0  2  0  0  0  0  0  0  0  0  0
    1.2636  -12.0986   15.6548 O   0  0  0  0  0  0  0  0  0  0  0  0
    0.1568  -13.5633   14.0553 C   0  0  0  0  0  0  0  0  0  0  0  0
    1.1726  -14.5658   14.2224 O   0  0  0  0  0  0  0  0  0  0  0  0
   -5.3320  -13.1090   16.5710 O   0  0  0  0  0  0  0  0  0  0  0  0
   -7.4285  -12.4815   14.7139 O   0  0  0  0  0  0  0  0  0  0  0  0
    4.5439   -5.2070   19.2126 N   0  0  0  0  0  0  0  0  0  0  0  0
    1.3180   -8.2445   19.0239 C   0  0  0  0  0  0  0  0  0  0  0  0
    0.8533   -9.1710   19.6789 O   0  0  0  0  0  0  0  0  0  0  0  0
    2.6127   -7.4902   19.4050 C   0  0  1  0  0  0  0  0  0  0  0  0
    2.2803   -6.0381   19.8042 C   0  0  0  0  0  0  0  0  0  0  0  0
    3.4753   -5.1671   20.2087 C   0  0  0  0  0  0  0  0  0  0  0  0
    3.2646   -8.1876   20.4903 O   0  0  0  0  0  0  0  0  0  0  0  0
  1  2  1  6  0  0  0
  1  3  1  0  0  0  0
  1  8  1  0  0  0  0
  3  4  1  0  0  0  0
  3 32  1  6  0  0  0
  4  5  1  0  0  0  0
  4 33  1  1  0  0  0
  5  6  1  6  0  0  0
  5  7  1  0  0  0  0
  7  8  1  0  0  0  0
  7  9  1  1  0  0  0
  9 10  1  0  0  0  0
 11 12  1  1  0  0  0
 11 13  1  0  0  0  0
 11 19  1  0  0  0  0
 12 35  1  0  0  0  0
 13 14  1  0  0  0  0
 14 15  1  1  0  0  0
 14 16  1  0  0  0  0
 16  2  1  6  0  0  0
 16 17  1  0  0  0  0
 17 18  1  1  0  0  0
 17 19  1  0  0  0  0
 19 20  1  6  0  0  0
 21 20  1  6  0  0  0
 21 22  1  0  0  0  0
 21 29  1  0  0  0  0
 22 23  1  1  0  0  0
 22 24  1  0  0  0  0
 24 25  1  6  0  0  0
 24 26  1  0  0  0  0
 26 27  1  6  0  0  0
 26 28  1  0  0  0  0
 28 29  1  0  0  0  0
 28 30  1  6  0  0  0
 30 31  1  0  0  0  0
 34 39  1  0  0  0  0
 35 36  2  0  0  0  0
 37 35  1  1  0  0  0
 37 38  1  0  0  0  0
 37 40  1  0  0  0  0
 38 39  1  0  0  0  0
M  END
>  <CHROM.1>
-151.33210199,-74.34807961,60.38624720,-68.03726604,135.22087554,-170.83675777
62.43581971,66.61197724,179.99903297,51.22524252,-1.34665942,-9.86208311
16.39159665,2.90871074,-0.01905545,-2.35767506

>  <Name>
2g5q_lig

>  <RI>
0

>  <Rbt.Current_Directory>
/home/itssahil/PROJECTS/Mol_Feturizer/New_Systems/rnas/2g5q

>  <Rbt.Executable>
rbdock ($Id: //depot/dev/client3/rdock/2013.1/src/exe/rbdock.cxx#4 $)

>  <Rbt.Library>
libRbt.so (2013.1, Build901 2013/11/27)

>  <Rbt.Parameter_File>
/export/apps/rDock/src/rDock_2013.1_src/data/scripts/dock_solv.prm

>  <Rbt.Receptor>
prm/pocket_docking_3.prm

>  <SCORE>
-11.4989

>  <SCORE.INTER>
-9.71533

>  <SCORE.INTER.CONST>
1

>  <SCORE.INTER.POLAR>
-1.17655

>  <SCORE.INTER.ROT>
10

>  <SCORE.INTER.SOLV>
20.3722

>  <SCORE.INTER.VDW>
-19.6125

>  <SCORE.INTER.norm>
-0.242883

>  <SCORE.INTRA>
-1.78976

>  <SCORE.INTRA.DIHEDRAL>
-10.5096

>  <SCORE.INTRA.DIHEDRAL.0>
22.5778

>  <SCORE.INTRA.POLAR>
0

>  <SCORE.INTRA.POLAR.0>
0

>  <SCORE.INTRA.REPUL>
0

>  <SCORE.INTRA.REPUL.0>
0

>  <SCORE.INTRA.SOLV>
4.49173

>  <SCORE.INTRA.SOLV.lig_0>
-102.332

>  <SCORE.INTRA.VDW>
1.21915

>  <SCORE.INTRA.VDW.0>
-5.08747

>  <SCORE.INTRA.norm>
-0.0447439

>  <SCORE.RESTR>
0.00619161

>  <SCORE.RESTR.CAVITY>
0.00619161

>  <SCORE.RESTR.norm>
0.00015479

>  <SCORE.SYSTEM>
0

>  <SCORE.SYSTEM.CONST>
0

>  <SCORE.SYSTEM.DIHEDRAL>
0

>  <SCORE.SYSTEM.SOLV>
0

>  <SCORE.SYSTEM.norm>
0

>  <SCORE.heavy>
40

>  <SCORE.norm>
-0.287472

>  <RMSD>
8.470

$$$$
2g5q_lig
 OpenBabel11021811433D
libRbt.so/2013.1/901 2013/11/27
 40 42  0  0  0  0  0  0  0  0999 V2000
   -4.8822  -11.2878   15.2409 C   0  0  2  0  0  0  0  0  0  0  0  0
   -4.3599  -10.0817   15.7528 O   0  0  0  0  0  0  0  0  0  0  0  0
   -6.4196  -11.1288   15.0517 C   0  0  1  0  0  0  0  0  0  0  0  0
   -7.1605  -10.9721   16.4156 C   0  0  2  0  0  0  0  0  0  0  0  0
   -6.8665  -12.2371   17.2630 C   0  0  2  0  0  0  0  0  0  0  0  0
   -7.5523  -12.1412   18.5220 O   0  0  0  0  0  0  0  0  0  0  0  0
   -5.3015  -12.3412   17.4726 C   0  0  2  0  0  0  0  0  0  0  0  0
   -4.6146  -12.4313   16.1524 O   0  0  0  0  0  0  0  0  0  0  0  0
   -4.8952  -13.5650   18.2866 C   0  0  0  0  0  0  0  0  0  0  0  0
   -3.4389  -13.5504   18.6340 N   0  0  0  0  0  0  0  0  0  0  0  0
   -0.3149   -8.6984   16.6481 C   0  0  2  0  0  0  0  0  0  0  0  0
    1.0010   -8.5872   17.2660 N   0  0  0  0  0  0  0  0  0  0  0  0
   -1.4508   -8.4825   17.7339 C   0  0  0  0  0  0  0  0  0  0  0  0
   -2.8782   -8.5950   17.0673 C   0  0  2  0  0  0  0  0  0  0  0  0
   -3.9340   -8.3796   18.0934 N   0  0  0  0  0  0  0  0  0  0  0  0
   -3.0274  -10.0085   16.3759 C   0  0  2  0  0  0  0  0  0  0  0  0
   -1.8784  -10.1883   15.3063 C   0  0  2  0  0  0  0  0  0  0  0  0
   -2.0117  -11.4711   14.6862 O   0  0  0  0  0  0  0  0  0  0  0  0
   -0.4638  -10.0880   15.9946 C   0  0  1  0  0  0  0  0  0  0  0  0
    0.5926  -10.2416   15.0053 O   0  0  0  0  0  0  0  0  0  0  0  0
    1.8864  -10.7099   15.2971 C   0  0  2  0  0  0  0  0  0  0  0  0
    2.7498  -10.5419   14.0011 C   0  0  2  0  0  0  0  0  0  0  0  0
    2.7875   -9.1989   13.6385 O   0  0  0  0  0  0  0  0  0  0  0  0
    2.1888  -11.4275   12.8248 C   0  0  1  0  0  0  0  0  0  0  0  0
    3.0121  -11.2770   11.5799 N   0  0  0  0  0  0  0  0  0  0  0  0
    2.1676  -12.9333   13.3039 C   0  0  2  0  0  0  0  0  0  0  0  0
    1.6731  -13.7896   12.2722 O   0  0  0  0  0  0  0  0  0  0  0  0
    1.2897  -13.0335   14.5969 C   0  0  2  0  0  0  0  0  0  0  0  0
    1.8178  -12.1320   15.6778 O   0  0  0  0  0  0  0  0  0  0  0  0
    1.2464  -14.4352   15.1327 C   0  0  0  0  0  0  0  0  0  0  0  0
    0.3362  -14.5428   16.2394 O   0  0  0  0  0  0  0  0  0  0  0  0
   -6.6606   -9.9688   14.1831 O   0  0  0  0  0  0  0  0  0  0  0  0
   -8.5138  -10.8489   16.1903 O   0  0  0  0  0  0  0  0  0  0  0  0
    4.6989   -7.8453   21.0501 N   0  0  0  0  0  0  0  0  0  0  0  0
    1.4778   -9.3982   18.2864 C   0  0  0  0  0  0  0  0  0  0  0  0
    0.8321  -10.3081   18.7949 O   0  0  0  0  0  0  0  0  0  0  0  0
    2.9104   -9.0153   18.7240 C   0  0  1  0  0  0  0  0  0  0  0  0
    2.9146   -7.6019   19.3408 C   0  0  0  0  0  0  0  0  0  0  0  0
    4.2675   -7.1067   19.8652 C   0  0  0  0  0  0  0  0  0  0  0  0
    3.3930   -9.9938   19.6722 O   0  0  0  0  0  0  0  0  0  0  0  0
  1  2  1  1  0  0  0
  1  3  1  0  0  0  0
  1  8  1  0  0  0  0
  3  4  1  0  0  0  0
  3 32  1  6  0  0  0
  4  5  1  0  0  0  0
  4 33  1  6  0  0  0
  5  6  1  1  0  0  0
  5  7  1  0  0  0  0
  7  8  1  0  0  0  0
  7  9  1  1  0  0  0
  9 10  1  0  0  0  0
 11 12  1  1  0  0  0
 11 13  1  0  0  0  0
 11 19  1  0  0  0  0
 12 35  1  0  0  0  0
 13 14  1  0  0  0  0
 14 15  1  1  0  0  0
 14 16  1  0  0  0  0
 16  2  1  6  0  0  0
 16 17  1  0  0  0  0
 17 18  1  1  0  0  0
 17 19  1  0  0  0  0
 19 20  1  6  0  0  0
 21 20  1  6  0  0  0
 21 22  1  0  0  0  0
 21 29  1  0  0  0  0
 22 23  1  6  0  0  0
 22 24  1  0  0  0  0
 24 25  1  6  0  0  0
 24 26  1  0  0  0  0
 26 27  1  6  0  0  0
 26 28  1  0  0  0  0
 28 29  1  0  0  0  0
 28 30  1  1  0  0  0
 30 31  1  0  0  0  0
 34 39  1  0  0  0  0
 35 36  2  0  0  0  0
 37 35  1  1  0  0  0
 37 38  1  0  0  0  0
 37 40  1  0  0  0  0
 38 39  1  0  0  0  0
M  END
>  <CHROM.1>
163.32584211,-172.22303753,60.50489548,-169.65760775,86.16086941,-172.69075493
-174.33942708,64.67907669,178.01798393,-68.85086971,-1.10691868,-10.79293197
16.33183903,-3.04443153,0.12352065,0.97477632

>  <Name>
2g5q_lig

>  <RI>
2.90231e+07

>  <Rbt.Current_Directory>
/home/itssahil/PROJECTS/Mol_Feturizer/New_Systems/rnas/2g5q

>  <Rbt.Executable>
rbdock ($Id: //depot/dev/client3/rdock/2013.1/src/exe/rbdock.cxx#4 $)

>  <Rbt.Library>
libRbt.so (2013.1, Build901 2013/11/27)

>  <Rbt.Parameter_File>
/export/apps/rDock/src/rDock_2013.1_src/data/scripts/dock_solv.prm

>  <Rbt.Receptor>
prm/pocket_docking_6.prm

>  <SCORE>
-18.7931

>  <SCORE.INTER>
-11.1442

>  <SCORE.INTER.CONST>
1

>  <SCORE.INTER.POLAR>
-1.70018

>  <SCORE.INTER.ROT>
10

>  <SCORE.INTER.SOLV>
12.4746

>  <SCORE.INTER.VDW>
-16.187

>  <SCORE.INTER.norm>
-0.278604

>  <SCORE.INTRA>
-7.64888

>  <SCORE.INTRA.DIHEDRAL>
-16.1455

>  <SCORE.INTRA.DIHEDRAL.0>
22.5778

>  <SCORE.INTRA.POLAR>
0

>  <SCORE.INTRA.POLAR.0>
0

>  <SCORE.INTRA.REPUL>
0

>  <SCORE.INTRA.REPUL.0>
0

>  <SCORE.INTRA.SOLV>
1.06326

>  <SCORE.INTRA.SOLV.lig_0>
-102.332

>  <SCORE.INTRA.VDW>
-0.107745

>  <SCORE.INTRA.VDW.0>
-5.08747

>  <SCORE.INTRA.norm>
-0.191222

>  <SCORE.RESTR>
0

>  <SCORE.RESTR.CAVITY>
0

>  <SCORE.RESTR.norm>
0

>  <SCORE.SYSTEM>
0

>  <SCORE.SYSTEM.CONST>
0

>  <SCORE.SYSTEM.DIHEDRAL>
0

>  <SCORE.SYSTEM.SOLV>
0

>  <SCORE.SYSTEM.norm>
0

>  <SCORE.heavy>
40

>  <SCORE.norm>
-0.469826

>  <RMSD>
8.472

$$$$
2g5q_lig
 OpenBabel11021811433D
libRbt.so/2013.1/901 2013/11/27
 40 42  0  0  0  0  0  0  0  0999 V2000
   -4.1294  -11.3332   15.7122 C   0  0  2  0  0  0  0  0  0  0  0  0
   -3.5268  -10.2941   16.4516 O   0  0  0  0  0  0  0  0  0  0  0  0
   -5.6520  -11.0359   15.5776 C   0  0  1  0  0  0  0  0  0  0  0  0
   -6.3831  -11.1097   16.9537 C   0  0  2  0  0  0  0  0  0  0  0  0
   -6.1779  -12.5373   17.5237 C   0  0  2  0  0  0  0  0  0  0  0  0
   -6.8580  -12.6530   18.7840 O   0  0  0  0  0  0  0  0  0  0  0  0
   -4.6241  -12.7869   17.6890 C   0  0  2  0  0  0  0  0  0  0  0  0
   -3.9424  -12.6533   16.3698 O   0  0  0  0  0  0  0  0  0  0  0  0
   -4.3040  -14.1751   18.2332 C   0  0  0  0  0  0  0  0  0  0  0  0
   -2.8292  -14.4174   18.3220 N   0  0  0  0  0  0  0  0  0  0  0  0
    0.6442   -9.1029   16.9625 C   0  0  2  0  0  0  0  0  0  0  0  0
    2.0423   -9.1137   17.3760 N   0  0  0  0  0  0  0  0  0  0  0  0
   -0.3041   -9.1182   18.2339 C   0  0  0  0  0  0  0  0  0  0  0  0
   -1.8199   -9.0994   17.7905 C   0  0  2  0  0  0  0  0  0  0  0  0
   -2.6982   -9.1026   18.9915 N   0  0  0  0  0  0  0  0  0  0  0  0
   -2.1126  -10.3430   16.8600 C   0  0  2  0  0  0  0  0  0  0  0  0
   -1.1479  -10.2955   15.6094 C   0  0  2  0  0  0  0  0  0  0  0  0
   -1.4104  -11.4258   14.7717 O   0  0  0  0  0  0  0  0  0  0  0  0
    0.3582  -10.3309   16.0734 C   0  0  1  0  0  0  0  0  0  0  0  0
    1.2446  -10.2746   14.9204 O   0  0  0  0  0  0  0  0  0  0  0  0
    2.5916  -10.6786   14.9388 C   0  0  2  0  0  0  0  0  0  0  0  0
    3.1728  -10.4404   13.5040 C   0  0  2  0  0  0  0  0  0  0  0  0
    3.0729   -9.0907   13.1801 O   0  0  0  0  0  0  0  0  0  0  0  0
    2.4343  -11.3324   12.4355 C   0  0  1  0  0  0  0  0  0  0  0  0
    2.9872  -11.1146   11.0581 N   0  0  0  0  0  0  0  0  0  0  0  0
    2.5813  -12.8459   12.8655 C   0  0  2  0  0  0  0  0  0  0  0  0
    1.9349  -13.7078   11.9265 O   0  0  0  0  0  0  0  0  0  0  0  0
    1.9821  -13.0171   14.3022 C   0  0  2  0  0  0  0  0  0  0  0  0
    2.6688  -12.1093   15.2841 O   0  0  0  0  0  0  0  0  0  0  0  0
    2.1135  -14.4290   14.7951 C   0  0  0  0  0  0  0  0  0  0  0  0
    1.2417  -15.3161   14.0756 O   0  0  0  0  0  0  0  0  0  0  0  0
   -5.8114   -9.7102   14.9651 O   0  0  0  0  0  0  0  0  0  0  0  0
   -7.7244  -10.8525   16.7743 O   0  0  0  0  0  0  0  0  0  0  0  0
    7.3901  -10.3619   16.0354 N   0  0  0  0  0  0  0  0  0  0  0  0
    2.9922   -8.1694   17.0125 C   0  0  0  0  0  0  0  0  0  0  0  0
    2.7593   -7.2101   16.2855 O   0  0  0  0  0  0  0  0  0  0  0  0
    4.3845   -8.4714   17.6134 C   0  0  1  0  0  0  0  0  0  0  0  0
    5.2426   -9.2482   16.5944 C   0  0  0  0  0  0  0  0  0  0  0  0
    6.6600   -9.6097   17.0536 C   0  0  0  0  0  0  0  0  0  0  0  0
    5.0208   -7.2270   17.9819 O   0  0  0  0  0  0  0  0  0  0  0  0
  1  2  1  1  0  0  0
  1  3  1  0  0  0  0
  1  8  1  0  0  0  0
  3  4  1  0  0  0  0
  3 32  1  1  0  0  0
  4  5  1  0  0  0  0
  4 33  1  6  0  0  0
  5  6  1  1  0  0  0
  5  7  1  0  0  0  0
  7  8  1  0  0  0  0
  7  9  1  6  0  0  0
  9 10  1  0  0  0  0
 11 12  1  1  0  0  0
 11 13  1  0  0  0  0
 11 19  1  0  0  0  0
 12 35  1  0  0  0  0
 13 14  1  0  0  0  0
 14 15  1  1  0  0  0
 14 16  1  0  0  0  0
 16  2  1  6  0  0  0
 16 17  1  0  0  0  0
 17 18  1  6  0  0  0
 17 19  1  0  0  0  0
 19 20  1  6  0  0  0
 21 20  1  6  0  0  0
 21 22  1  0  0  0  0
 21 29  1  0  0  0  0
 22 23  1  6  0  0  0
 22 24  1  0  0  0  0
 24 25  1  6  0  0  0
 24 26  1  0  0  0  0
 26 27  1  6  0  0  0
 26 28  1  0  0  0  0
 28 29  1  0  0  0  0
 28 30  1  1  0  0  0
 30 31  1  0  0  0  0
 34 39  1  0  0  0  0
 35 36  2  0  0  0  0
 37 35  1  6  0  0  0
 37 38  1  0  0  0  0
 37 40  1  0  0  0  0
 38 39  1  0  0  0  0
M  END
>  <CHROM.1>
174.21106556,177.29267116,-123.78444471,-174.22840845,80.30892494,-179.51139572
-70.12073034,95.31639217,179.61522176,179.04128499,-0.17200311,-10.91549068
15.92897241,-3.13669155,0.25288107,0.72242382

>  <Name>
2g5q_lig

>  <RI>
2.47104e+07

>  <Rbt.Current_Directory>
/home/itssahil/PROJECTS/Mol_Feturizer/New_Systems/rnas/2g5q

>  <Rbt.Executable>
rbdock ($Id: //depot/dev/client3/rdock/2013.1/src/exe/rbdock.cxx#4 $)

>  <Rbt.Library>
libRbt.so (2013.1, Build901 2013/11/27)

>  <Rbt.Parameter_File>
/export/apps/rDock/src/rDock_2013.1_src/data/scripts/dock_solv.prm

>  <Rbt.Receptor>
prm/pocket_docking_7.prm

>  <SCORE>
-23.9026

>  <SCORE.INTER>
-14.5937

>  <SCORE.INTER.CONST>
1

>  <SCORE.INTER.POLAR>
-2.59522

>  <SCORE.INTER.ROT>
10

>  <SCORE.INTER.SOLV>
14.4246

>  <SCORE.INTER.VDW>
-16.1532

>  <SCORE.INTER.norm>
-0.364842

>  <SCORE.INTRA>
-9.30892

>  <SCORE.INTRA.DIHEDRAL>
-16.9444

>  <SCORE.INTRA.DIHEDRAL.0>
22.5778

>  <SCORE.INTRA.POLAR>
0

>  <SCORE.INTRA.POLAR.0>
0

>  <SCORE.INTRA.REPUL>
0

>  <SCORE.INTRA.REPUL.0>
0

>  <SCORE.INTRA.SOLV>
-0.794922

>  <SCORE.INTRA.SOLV.lig_0>
-102.332

>  <SCORE.INTRA.VDW>
-0.439238

>  <SCORE.INTRA.VDW.0>
-5.08747

>  <SCORE.INTRA.norm>
-0.232723

>  <SCORE.RESTR>
0

>  <SCORE.RESTR.CAVITY>
0

>  <SCORE.RESTR.norm>
0

>  <SCORE.SYSTEM>
0

>  <SCORE.SYSTEM.CONST>
0

>  <SCORE.SYSTEM.DIHEDRAL>
0

>  <SCORE.SYSTEM.SOLV>
0

>  <SCORE.SYSTEM.norm>
0

>  <SCORE.heavy>
40

>  <SCORE.norm>
-0.597565

>  <RMSD>
8.483

$$$$
2g5q_lig
 OpenBabel11021811433D
libRbt.so/2013.1/901 2013/11/27
 40 42  0  0  0  0  0  0  0  0999 V2000
   -5.5423   -9.5676   16.6802 C   0  0  2  0  0  0  0  0  0  0  0  0
   -4.3852   -9.7574   15.8963 O   0  0  0  0  0  0  0  0  0  0  0  0
   -5.6533  -10.7368   17.7027 C   0  0  1  0  0  0  0  0  0  0  0  0
   -5.9223  -12.1024   16.9981 C   0  0  2  0  0  0  0  0  0  0  0  0
   -7.2491  -11.9738   16.2056 C   0  0  2  0  0  0  0  0  0  0  0  0
   -7.5446  -13.2224   15.5590 O   0  0  0  0  0  0  0  0  0  0  0  0
   -7.0841  -10.8086   15.1476 C   0  0  2  0  0  0  0  0  0  0  0  0
   -6.7705   -9.5279   15.8435 O   0  0  0  0  0  0  0  0  0  0  0  0
   -8.3426  -10.5838   14.3163 C   0  0  0  0  0  0  0  0  0  0  0  0
   -8.1942   -9.4305   13.3731 N   0  0  0  0  0  0  0  0  0  0  0  0
   -0.2406   -8.6161   16.6689 C   0  0  2  0  0  0  0  0  0  0  0  0
    1.0958   -8.5798   17.2506 N   0  0  0  0  0  0  0  0  0  0  0  0
   -1.3315   -8.3203   17.7817 C   0  0  0  0  0  0  0  0  0  0  0  0
   -2.7806   -8.3516   17.1542 C   0  0  2  0  0  0  0  0  0  0  0  0
   -3.7931   -8.0618   18.2053 N   0  0  0  0  0  0  0  0  0  0  0  0
   -3.0344   -9.7599   16.4832 C   0  0  2  0  0  0  0  0  0  0  0  0
   -1.9278  -10.0203   15.3857 C   0  0  2  0  0  0  0  0  0  0  0  0
   -2.1559  -11.2986   14.7841 O   0  0  0  0  0  0  0  0  0  0  0  0
   -0.4917  -10.0002   16.0354 C   0  0  1  0  0  0  0  0  0  0  0  0
    0.5263  -10.2280   15.0204 O   0  0  0  0  0  0  0  0  0  0  0  0
    1.8417  -10.6405   15.2992 C   0  0  2  0  0  0  0  0  0  0  0  0
    2.6672  -10.5033   13.9752 C   0  0  2  0  0  0  0  0  0  0  0  0
    2.6512   -9.1775   13.5527 O   0  0  0  0  0  0  0  0  0  0  0  0
    2.1079  -11.4587   12.8541 C   0  0  1  0  0  0  0  0  0  0  0  0
    2.8952  -11.3379   11.5830 N   0  0  0  0  0  0  0  0  0  0  0  0
    2.1487  -12.9413   13.3997 C   0  0  2  0  0  0  0  0  0  0  0  0
    1.6582  -13.8588   12.4200 O   0  0  0  0  0  0  0  0  0  0  0  0
    1.3064  -13.0114   14.7181 C   0  0  2  0  0  0  0  0  0  0  0  0
    1.8300  -12.0455   15.7441 O   0  0  0  0  0  0  0  0  0  0  0  0
    1.3230  -14.3882   15.3163 C   0  0  0  0  0  0  0  0  0  0  0  0
    0.4082  -14.4886   16.4199 O   0  0  0  0  0  0  0  0  0  0  0  0
   -4.4127  -10.7829   18.4881 O   0  0  0  0  0  0  0  0  0  0  0  0
   -6.0243  -13.0954   17.9473 O   0  0  0  0  0  0  0  0  0  0  0  0
    6.0525   -9.9919   18.2281 N   0  0  0  0  0  0  0  0  0  0  0  0
    1.6140   -9.5235   18.1264 C   0  0  0  0  0  0  0  0  0  0  0  0
    0.9928  -10.5044   18.5204 O   0  0  0  0  0  0  0  0  0  0  0  0
    3.0589   -9.1911   18.5649 C   0  0  1  0  0  0  0  0  0  0  0  0
    3.9586   -9.0091   17.3257 C   0  0  0  0  0  0  0  0  0  0  0  0
    5.4524   -8.8120   17.6087 C   0  0  0  0  0  0  0  0  0  0  0  0
    3.0443   -7.9925   19.3727 O   0  0  0  0  0  0  0  0  0  0  0  0
  1  2  1  6  0  0  0
  1  3  1  0  0  0  0
  1  8  1  0  0  0  0
  3  4  1  0  0  0  0
  3 32  1  6  0  0  0
  4  5  1  0  0  0  0
  4 33  1  1  0  0  0
  5  6  1  6  0  0  0
  5  7  1  0  0  0  0
  7  8  1  0  0  0  0
  7  9  1  1  0  0  0
  9 10  1  0  0  0  0
 11 12  1  1  0  0  0
 11 13  1  0  0  0  0
 11 19  1  0  0  0  0
 12 35  1  0  0  0  0
 13 14  1  0  0  0  0
 14 15  1  1  0  0  0
 14 16  1  0  0  0  0
 16  2  1  6  0  0  0
 16 17  1  0  0  0  0
 17 18  1  1  0  0  0
 17 19  1  0  0  0  0
 19 20  1  6  0  0  0
 21 20  1  6  0  0  0
 21 22  1  0  0  0  0
 21 29  1  0  0  0  0
 22 23  1  6  0  0  0
 22 24  1  0  0  0  0
 24 25  1  6  0  0  0
 24 26  1  0  0  0  0
 26 27  1  6  0  0  0
 26 28  1  0  0  0  0
 28 29  1  0  0  0  0
 28 30  1  1  0  0  0
 30 31  1  0  0  0  0
 34 39  1  0  0  0  0
 35 36  2  0  0  0  0
 37 35  1  6  0  0  0
 37 38  1  0  0  0  0
 37 40  1  0  0  0  0
 38 39  1  0  0  0  0
M  END
>  <CHROM.1>
-62.62292148,176.89345873,70.26683866,-60.87502088,79.27249086,-169.50316467
-172.26371420,-54.81890772,-174.16970030,64.50931831,-1.16931514,-10.62490988
16.05106604,3.11049509,-0.03378728,-2.27421969

>  <Name>
2g5q_lig

>  <RI>
0

>  <Rbt.Current_Directory>
/home/itssahil/PROJECTS/Mol_Feturizer/New_Systems/rnas/2g5q

>  <Rbt.Executable>
rbdock ($Id: //depot/dev/client3/rdock/2013.1/src/exe/rbdock.cxx#4 $)

>  <Rbt.Library>
libRbt.so (2013.1, Build901 2013/11/27)

>  <Rbt.Parameter_File>
/export/apps/rDock/src/rDock_2013.1_src/data/scripts/dock_solv.prm

>  <Rbt.Receptor>
prm/pocket_docking_3.prm

>  <SCORE>
-14.4918

>  <SCORE.INTER>
-8.09281

>  <SCORE.INTER.CONST>
1

>  <SCORE.INTER.POLAR>
-1.62437

>  <SCORE.INTER.ROT>
10

>  <SCORE.INTER.SOLV>
14.3093

>  <SCORE.INTER.VDW>
-15.0171

>  <SCORE.INTER.norm>
-0.20232

>  <SCORE.INTRA>
-6.63796

>  <SCORE.INTRA.DIHEDRAL>
-18.9416

>  <SCORE.INTRA.DIHEDRAL.0>
22.5778

>  <SCORE.INTRA.POLAR>
0

>  <SCORE.INTRA.POLAR.0>
0

>  <SCORE.INTRA.REPUL>
0

>  <SCORE.INTRA.REPUL.0>
0

>  <SCORE.INTRA.SOLV>
3.36782

>  <SCORE.INTRA.SOLV.lig_0>
-102.332

>  <SCORE.INTRA.VDW>
1.14891

>  <SCORE.INTRA.VDW.0>
-5.08747

>  <SCORE.INTRA.norm>
-0.165949

>  <SCORE.RESTR>
0.238954

>  <SCORE.RESTR.CAVITY>
0.238954

>  <SCORE.RESTR.norm>
0.00597385

>  <SCORE.SYSTEM>
0

>  <SCORE.SYSTEM.CONST>
0

>  <SCORE.SYSTEM.DIHEDRAL>
0

>  <SCORE.SYSTEM.SOLV>
0

>  <SCORE.SYSTEM.norm>
0

>  <SCORE.heavy>
40

>  <SCORE.norm>
-0.362295

>  <RMSD>
8.489

$$$$
2g5q_lig
 OpenBabel11021811433D
libRbt.so/2013.1/901 2013/11/27
 40 42  0  0  0  0  0  0  0  0999 V2000
   -5.8875   -9.5973   16.4013 C   0  0  2  0  0  0  0  0  0  0  0  0
   -4.6558   -9.6586   15.7167 O   0  0  0  0  0  0  0  0  0  0  0  0
   -6.9541  -10.3879   15.5876 C   0  0  1  0  0  0  0  0  0  0  0  0
   -7.2719   -9.7010   14.2234 C   0  0  2  0  0  0  0  0  0  0  0  0
   -7.7963   -8.2726   14.5225 C   0  0  2  0  0  0  0  0  0  0  0  0
   -8.1230   -7.6133   13.2885 O   0  0  0  0  0  0  0  0  0  0  0  0
   -6.6711   -7.4856   15.3091 C   0  0  2  0  0  0  0  0  0  0  0  0
   -6.3458   -8.1943   16.5798 O   0  0  0  0  0  0  0  0  0  0  0  0
   -7.0877   -6.0636   15.6695 C   0  0  0  0  0  0  0  0  0  0  0  0
   -8.3439   -6.0356   16.4836 N   0  0  0  0  0  0  0  0  0  0  0  0
   -0.5398   -8.8901   16.9598 C   0  0  2  0  0  0  0  0  0  0  0  0
    0.7318   -8.9954   17.6654 N   0  0  0  0  0  0  0  0  0  0  0  0
   -1.7128   -8.5912   17.9848 C   0  0  0  0  0  0  0  0  0  0  0  0
   -3.0913   -8.4691   17.2238 C   0  0  2  0  0  0  0  0  0  0  0  0
   -4.1808   -8.1778   18.1944 N   0  0  0  0  0  0  0  0  0  0  0  0
   -3.3732   -9.8040   16.4258 C   0  0  2  0  0  0  0  0  0  0  0  0
   -2.1837  -10.0700   15.4202 C   0  0  2  0  0  0  0  0  0  0  0  0
   -2.4379  -11.2823   14.7035 O   0  0  0  0  0  0  0  0  0  0  0  0
   -0.8210  -10.2038   16.2013 C   0  0  1  0  0  0  0  0  0  0  0  0
    0.2745  -10.4364   15.2718 O   0  0  0  0  0  0  0  0  0  0  0  0
    1.5425  -10.9143   15.6486 C   0  0  2  0  0  0  0  0  0  0  0  0
    2.4691  -10.8309   14.3885 C   0  0  2  0  0  0  0  0  0  0  0  0
    2.5536   -9.5096   13.9602 O   0  0  0  0  0  0  0  0  0  0  0  0
    1.9443  -11.7652   13.2334 C   0  0  1  0  0  0  0  0  0  0  0  0
    2.8281  -11.6958   12.0233 N   0  0  0  0  0  0  0  0  0  0  0  0
    1.8673  -13.2434   13.7869 C   0  0  2  0  0  0  0  0  0  0  0  0
    1.4027  -14.1422   12.7777 O   0  0  0  0  0  0  0  0  0  0  0  0
    0.9279  -13.2589   15.0399 C   0  0  2  0  0  0  0  0  0  0  0  0
    1.4247  -12.3131   16.0975 O   0  0  0  0  0  0  0  0  0  0  0  0
    0.8284  -14.6298   15.6437 C   0  0  0  0  0  0  0  0  0  0  0  0
   -0.1555  -14.6688   16.6902 O   0  0  0  0  0  0  0  0  0  0  0  0
   -6.4608  -11.7571   15.3875 O   0  0  0  0  0  0  0  0  0  0  0  0
   -8.2275  -10.4329   13.5537 O   0  0  0  0  0  0  0  0  0  0  0  0
    4.5603   -9.4369   16.8947 N   0  0  0  0  0  0  0  0  0  0  0  0
    1.2083   -8.0843   18.5975 C   0  0  0  0  0  0  0  0  0  0  0  0
    0.6066   -7.0694   18.9310 O   0  0  0  0  0  0  0  0  0  0  0  0
    2.5933   -8.4827   19.1575 C   0  0  1  0  0  0  0  0  0  0  0  0
    3.7027   -7.6902   18.4368 C   0  0  0  0  0  0  0  0  0  0  0  0
    3.9793   -8.0989   16.9854 C   0  0  0  0  0  0  0  0  0  0  0  0
    2.6190   -8.2294   20.5804 O   0  0  0  0  0  0  0  0  0  0  0  0
  1  2  1  6  0  0  0
  1  3  1  0  0  0  0
  1  8  1  0  0  0  0
  3  4  1  0  0  0  0
  3 32  1  6  0  0  0
  4  5  1  0  0  0  0
  4 33  1  1  0  0  0
  5  6  1  6  0  0  0
  5  7  1  0  0  0  0
  7  8  1  0  0  0  0
  7  9  1  1  0  0  0
  9 10  1  0  0  0  0
 11 12  1  1  0  0  0
 11 13  1  0  0  0  0
 11 19  1  0  0  0  0
 12 35  1  0  0  0  0
 13 14  1  0  0  0  0
 14 15  1  1  0  0  0
 14 16  1  0  0  0  0
 16  2  1  6  0  0  0
 16 17  1  0  0  0  0
 17 18  1  1  0  0  0
 17 19  1  0  0  0  0
 19 20  1  6  0  0  0
 21 20  1  6  0  0  0
 21 22  1  0  0  0  0
 21 29  1  0  0  0  0
 22 23  1  6  0  0  0
 22 24  1  0  0  0  0
 24 25  1  6  0  0  0
 24 26  1  0  0  0  0
 26 27  1  6  0  0  0
 26 28  1  0  0  0  0
 28 29  1  0  0  0  0
 28 30  1  1  0  0  0
 30 31  1  0  0  0  0
 34 39  1  0  0  0  0
 35 36  2  0  0  0  0
 37 35  1  6  0  0  0
 37 38  1  0  0  0  0
 37 40  1  0  0  0  0
 38 39  1  0  0  0  0
M  END
>  <CHROM.1>
-141.39177511,57.26079231,-48.93267578,-68.60542210,76.57123570,-172.33605107
-173.08588566,99.25915387,-71.97244367,-67.56800118,-1.62620769,-9.87945578
15.92868813,-3.03553985,0.20217221,-2.45244921

>  <Name>
2g5q_lig

>  <RI>
2.90231e+07

>  <Rbt.Current_Directory>
/home/itssahil/PROJECTS/Mol_Feturizer/New_Systems/rnas/2g5q

>  <Rbt.Executable>
rbdock ($Id: //depot/dev/client3/rdock/2013.1/src/exe/rbdock.cxx#4 $)

>  <Rbt.Library>
libRbt.so (2013.1, Build901 2013/11/27)

>  <Rbt.Parameter_File>
/export/apps/rDock/src/rDock_2013.1_src/data/scripts/dock_solv.prm

>  <Rbt.Receptor>
prm/pocket_docking_6.prm

>  <SCORE>
-19.8833

>  <SCORE.INTER>
-16.5863

>  <SCORE.INTER.CONST>
1

>  <SCORE.INTER.POLAR>
-1.70902

>  <SCORE.INTER.ROT>
10

>  <SCORE.INTER.SOLV>
15.0773

>  <SCORE.INTER.VDW>
-20.6532

>  <SCORE.INTER.norm>
-0.414657

>  <SCORE.INTRA>
-3.29699

>  <SCORE.INTRA.DIHEDRAL>
-12.4536

>  <SCORE.INTRA.DIHEDRAL.0>
22.5778

>  <SCORE.INTRA.POLAR>
0

>  <SCORE.INTRA.POLAR.0>
0

>  <SCORE.INTRA.REPUL>
0

>  <SCORE.INTRA.REPUL.0>
0

>  <SCORE.INTRA.SOLV>
5.31767

>  <SCORE.INTRA.SOLV.lig_0>
-102.332

>  <SCORE.INTRA.VDW>
0.270969

>  <SCORE.INTRA.VDW.0>
-5.08747

>  <SCORE.INTRA.norm>
-0.0824247

>  <SCORE.RESTR>
0

>  <SCORE.RESTR.CAVITY>
0

>  <SCORE.RESTR.norm>
0

>  <SCORE.SYSTEM>
0

>  <SCORE.SYSTEM.CONST>
0

>  <SCORE.SYSTEM.DIHEDRAL>
0

>  <SCORE.SYSTEM.SOLV>
0

>  <SCORE.SYSTEM.norm>
0

>  <SCORE.heavy>
40

>  <SCORE.norm>
-0.497081

>  <RMSD>
8.493

$$$$
2g5q_lig
 OpenBabel11021811433D
libRbt.so/2013.1/901 2013/11/27
 40 42  0  0  0  0  0  0  0  0999 V2000
   -5.6252  -10.9295   15.4141 C   0  0  2  0  0  0  0  0  0  0  0  0
   -4.7545   -9.8839   15.7858 O   0  0  0  0  0  0  0  0  0  0  0  0
   -7.0007  -10.3190   15.0141 C   0  0  1  0  0  0  0  0  0  0  0  0
   -7.7259   -9.6700   16.2334 C   0  0  2  0  0  0  0  0  0  0  0  0
   -7.9352  -10.7733   17.3029 C   0  0  2  0  0  0  0  0  0  0  0  0
   -8.6230  -10.2188   18.4359 O   0  0  0  0  0  0  0  0  0  0  0  0
   -6.5163  -11.3380   17.7174 C   0  0  2  0  0  0  0  0  0  0  0  0
   -5.8216  -11.8993   16.5236 O   0  0  0  0  0  0  0  0  0  0  0  0
   -6.6041  -12.4462   18.7613 C   0  0  0  0  0  0  0  0  0  0  0  0
   -7.3410  -13.6442   18.2482 N   0  0  0  0  0  0  0  0  0  0  0  0
   -0.4448   -9.5395   16.4069 C   0  0  2  0  0  0  0  0  0  0  0  0
    0.8948   -9.7561   16.9400 N   0  0  0  0  0  0  0  0  0  0  0  0
   -1.4210   -9.0514   17.5579 C   0  0  0  0  0  0  0  0  0  0  0  0
   -2.8720   -8.8087   16.9831 C   0  0  2  0  0  0  0  0  0  0  0  0
   -3.7745   -8.3408   18.0696 N   0  0  0  0  0  0  0  0  0  0  0  0
   -3.4078  -10.1413   16.3237 C   0  0  2  0  0  0  0  0  0  0  0  0
   -2.4090  -10.5976   15.1874 C   0  0  2  0  0  0  0  0  0  0  0  0
   -2.8929  -11.8077   14.5961 O   0  0  0  0  0  0  0  0  0  0  0  0
   -0.9721  -10.8491   15.7849 C   0  0  1  0  0  0  0  0  0  0  0  0
   -0.0514  -11.2573   14.7342 O   0  0  0  0  0  0  0  0  0  0  0  0
   -0.3563  -12.2048   13.7405 C   0  0  2  0  0  0  0  0  0  0  0  0
   -0.0170  -13.6195   14.3208 C   0  0  2  0  0  0  0  0  0  0  0  0
   -0.7785  -13.8483   15.4628 O   0  0  0  0  0  0  0  0  0  0  0  0
    1.5215  -13.7523   14.6335 C   0  0  1  0  0  0  0  0  0  0  0  0
    1.8574  -15.1060   15.1857 N   0  0  0  0  0  0  0  0  0  0  0  0
    2.3246  -13.4757   13.3009 C   0  0  2  0  0  0  0  0  0  0  0  0
    3.7320  -13.5896   13.5207 O   0  0  0  0  0  0  0  0  0  0  0  0
    1.9436  -12.0506   12.7751 C   0  0  2  0  0  0  0  0  0  0  0  0
    0.4623  -11.9398   12.5439 O   0  0  0  0  0  0  0  0  0  0  0  0
    2.6461  -11.7261   11.4887 C   0  0  0  0  0  0  0  0  0  0  0  0
    2.1157  -12.4943   10.3963 O   0  0  0  0  0  0  0  0  0  0  0  0
   -6.7764   -9.3342   13.9474 O   0  0  0  0  0  0  0  0  0  0  0  0
   -8.9388   -9.1595   15.8264 O   0  0  0  0  0  0  0  0  0  0  0  0
    4.4933  -11.8113   19.2522 N   0  0  0  0  0  0  0  0  0  0  0  0
    2.0779   -9.5058   16.2590 C   0  0  0  0  0  0  0  0  0  0  0  0
    2.1287   -9.0749   15.1122 O   0  0  0  0  0  0  0  0  0  0  0  0
    3.3279   -9.8476   17.1023 C   0  0  1  0  0  0  0  0  0  0  0  0
    3.6707  -11.3441   16.9566 C   0  0  0  0  0  0  0  0  0  0  0  0
    4.8240  -11.8526   17.8292 C   0  0  0  0  0  0  0  0  0  0  0  0
    4.4315   -9.0207   16.6691 O   0  0  0  0  0  0  0  0  0  0  0  0
  1  2  1  1  0  0  0
  1  3  1  0  0  0  0
  1  8  1  0  0  0  0
  3  4  1  0  0  0  0
  3 32  1  6  0  0  0
  4  5  1  0  0  0  0
  4 33  1  6  0  0  0
  5  6  1  1  0  0  0
  5  7  1  0  0  0  0
  7  8  1  0  0  0  0
  7  9  1  1  0  0  0
  9 10  1  0  0  0  0
 11 12  1  1  0  0  0
 11 13  1  0  0  0  0
 11 19  1  0  0  0  0
 12 35  1  0  0  0  0
 13 14  1  0  0  0  0
 14 15  1  1  0  0  0
 14 16  1  0  0  0  0
 16  2  1  6  0  0  0
 16 17  1  0  0  0  0
 17 18  1  1  0  0  0
 17 19  1  0  0  0  0
 19 20  1  6  0  0  0
 21 20  1  1  0  0  0
 21 22  1  0  0  0  0
 21 29  1  0  0  0  0
 22 23  1  1  0  0  0
 22 24  1  0  0  0  0
 24 25  1  6  0  0  0
 24 26  1  0  0  0  0
 26 27  1  1  0  0  0
 26 28  1  0  0  0  0
 28 29  1  0  0  0  0
 28 30  1  6  0  0  0
 30 31  1  0  0  0  0
 34 39  1  0  0  0  0
 35 36  2  0  0  0  0
 37 35  1  6  0  0  0
 37 38  1  0  0  0  0
 37 40  1  0  0  0  0
 38 39  1  0  0  0  0
M  END
>  <CHROM.1>
174.85331081,62.79523982,-144.72878781,-165.05645862,-163.93288137,-86.69454438
71.39976625,85.37674196,-175.23586236,66.50749845,-1.52800013,-11.15238387
15.67482023,2.92197477,-0.02419473,1.06280660

>  <Name>
2g5q_lig

>  <RI>
0

>  <Rbt.Current_Directory>
/home/itssahil/PROJECTS/Mol_Feturizer/New_Systems/rnas/2g5q

>  <Rbt.Executable>
rbdock ($Id: //depot/dev/client3/rdock/2013.1/src/exe/rbdock.cxx#4 $)

>  <Rbt.Library>
libRbt.so (2013.1, Build901 2013/11/27)

>  <Rbt.Parameter_File>
/export/apps/rDock/src/rDock_2013.1_src/data/scripts/dock_solv.prm

>  <Rbt.Receptor>
prm/pocket_docking_5.prm

>  <SCORE>
-15.0143

>  <SCORE.INTER>
-8.78761

>  <SCORE.INTER.CONST>
1

>  <SCORE.INTER.POLAR>
-1.04017

>  <SCORE.INTER.ROT>
10

>  <SCORE.INTER.SOLV>
11.3177

>  <SCORE.INTER.VDW>
-16.4304

>  <SCORE.INTER.norm>
-0.21969

>  <SCORE.INTRA>
-6.2267

>  <SCORE.INTRA.DIHEDRAL>
-14.264

>  <SCORE.INTRA.DIHEDRAL.0>
22.5778

>  <SCORE.INTRA.POLAR>
0

>  <SCORE.INTRA.POLAR.0>
0

>  <SCORE.INTRA.REPUL>
0

>  <SCORE.INTRA.REPUL.0>
0

>  <SCORE.INTRA.SOLV>
1.82166

>  <SCORE.INTRA.SOLV.lig_0>
-102.332

>  <SCORE.INTRA.VDW>
-0.00554134

>  <SCORE.INTRA.VDW.0>
-5.08747

>  <SCORE.INTRA.norm>
-0.155668

>  <SCORE.RESTR>
0

>  <SCORE.RESTR.CAVITY>
0

>  <SCORE.RESTR.norm>
0

>  <SCORE.SYSTEM>
0

>  <SCORE.SYSTEM.CONST>
0

>  <SCORE.SYSTEM.DIHEDRAL>
0

>  <SCORE.SYSTEM.SOLV>
0

>  <SCORE.SYSTEM.norm>
0

>  <SCORE.heavy>
40

>  <SCORE.norm>
-0.375358

>  <RMSD>
8.503

$$$$
2g5q_lig
 OpenBabel11021811433D
libRbt.so/2013.1/901 2013/11/27
 40 42  0  0  0  0  0  0  0  0999 V2000
   -4.2527  -11.3660   15.7854 C   0  0  2  0  0  0  0  0  0  0  0  0
   -3.6048  -10.2877   16.4235 O   0  0  0  0  0  0  0  0  0  0  0  0
   -5.7649  -11.0258   15.6363 C   0  0  1  0  0  0  0  0  0  0  0  0
   -6.4830  -10.9486   17.0190 C   0  0  2  0  0  0  0  0  0  0  0  0
   -6.3234  -12.3259   17.7137 C   0  0  2  0  0  0  0  0  0  0  0  0
   -6.9934  -12.3026   18.9846 O   0  0  0  0  0  0  0  0  0  0  0  0
   -4.7779  -12.6170   17.8890 C   0  0  2  0  0  0  0  0  0  0  0  0
   -4.1064  -12.6277   16.5579 O   0  0  0  0  0  0  0  0  0  0  0  0
   -4.5024  -13.9616   18.5536 C   0  0  0  0  0  0  0  0  0  0  0  0
   -4.9915  -13.9997   19.9682 N   0  0  0  0  0  0  0  0  0  0  0  0
    0.5996   -9.1811   16.8427 C   0  0  2  0  0  0  0  0  0  0  0  0
    2.0003   -9.2068   17.2465 N   0  0  0  0  0  0  0  0  0  0  0  0
   -0.3382   -9.1054   18.1196 C   0  0  0  0  0  0  0  0  0  0  0  0
   -1.8566   -9.0700   17.6863 C   0  0  2  0  0  0  0  0  0  0  0  0
   -2.7247   -8.9878   18.8920 N   0  0  0  0  0  0  0  0  0  0  0  0
   -2.1890  -10.3523   16.8241 C   0  0  2  0  0  0  0  0  0  0  0  0
   -1.2337  -10.3952   15.5661 C   0  0  2  0  0  0  0  0  0  0  0  0
   -1.5322  -11.5602   14.7904 O   0  0  0  0  0  0  0  0  0  0  0  0
    0.2748  -10.4457   16.0209 C   0  0  1  0  0  0  0  0  0  0  0  0
    1.1527  -10.4727   14.8604 O   0  0  0  0  0  0  0  0  0  0  0  0
    2.4876  -10.9149   14.8895 C   0  0  2  0  0  0  0  0  0  0  0  0
    3.1509  -10.4947   13.5343 C   0  0  2  0  0  0  0  0  0  0  0  0
    3.0986   -9.1105   13.4005 O   0  0  0  0  0  0  0  0  0  0  0  0
    2.4521  -11.2055   12.3141 C   0  0  1  0  0  0  0  0  0  0  0  0
    3.0836  -10.8128   11.0113 N   0  0  0  0  0  0  0  0  0  0  0  0
    2.5420  -12.7681   12.5319 C   0  0  2  0  0  0  0  0  0  0  0  0
    1.9287  -13.4700   11.4487 O   0  0  0  0  0  0  0  0  0  0  0  0
    1.8620  -13.1217   13.8976 C   0  0  2  0  0  0  0  0  0  0  0  0
    2.5142  -12.3815   15.0319 O   0  0  0  0  0  0  0  0  0  0  0  0
    1.9353  -14.5921   14.1913 C   0  0  0  0  0  0  0  0  0  0  0  0
    1.2032  -14.9233   15.3826 O   0  0  0  0  0  0  0  0  0  0  0  0
   -5.8829   -9.7554   14.9080 O   0  0  0  0  0  0  0  0  0  0  0  0
   -7.8160  -10.6590   16.8275 O   0  0  0  0  0  0  0  0  0  0  0  0
    7.4667   -8.8969   17.3295 N   0  0  0  0  0  0  0  0  0  0  0  0
    2.9443   -8.2415   16.9253 C   0  0  0  0  0  0  0  0  0  0  0  0
    2.7031   -7.2476   16.2490 O   0  0  0  0  0  0  0  0  0  0  0  0
    4.3415   -8.5676   17.5015 C   0  0  1  0  0  0  0  0  0  0  0  0
    5.1832   -9.3215   16.4521 C   0  0  0  0  0  0  0  0  0  0  0  0
    6.4973   -9.9262   16.9598 C   0  0  0  0  0  0  0  0  0  0  0  0
    4.9896   -7.3373   17.8960 O   0  0  0  0  0  0  0  0  0  0  0  0
  1  2  1  1  0  0  0
  1  3  1  0  0  0  0
  1  8  1  0  0  0  0
  3  4  1  0  0  0  0
  3 32  1  1  0  0  0
  4  5  1  0  0  0  0
  4 33  1  6  0  0  0
  5  6  1  1  0  0  0
  5  7  1  0  0  0  0
  7  8  1  0  0  0  0
  7  9  1  6  0  0  0
  9 10  1  0  0  0  0
 11 12  1  1  0  0  0
 11 13  1  0  0  0  0
 11 19  1  0  0  0  0
 12 35  1  0  0  0  0
 13 14  1  0  0  0  0
 14 15  1  1  0  0  0
 14 16  1  0  0  0  0
 16  2  1  6  0  0  0
 16 17  1  0  0  0  0
 17 18  1  1  0  0  0
 17 19  1  0  0  0  0
 19 20  1  6  0  0  0
 21 20  1  6  0  0  0
 21 22  1  0  0  0  0
 21 29  1  0  0  0  0
 22 23  1  6  0  0  0
 22 24  1  0  0  0  0
 24 25  1  6  0  0  0
 24 26  1  0  0  0  0
 26 27  1  6  0  0  0
 26 28  1  0  0  0  0
 28 29  1  0  0  0  0
 28 30  1  1  0  0  0
 30 31  1  0  0  0  0
 34 39  1  0  0  0  0
 35 36  2  0  0  0  0
 37 35  1  6  0  0  0
 37 38  1  0  0  0  0
 37 40  1  0  0  0  0
 38 39  1  0  0  0  0
M  END
>  <CHROM.1>
174.19411389,-65.46483125,-117.65815718,-171.95730428,80.55186258,-168.01681196
-174.67351399,93.82223004,-169.66371206,-67.64601164,-0.29703897,-10.86067594
15.98762603,3.09714655,0.26915637,0.83757937

>  <Name>
2g5q_lig

>  <RI>
0

>  <Rbt.Current_Directory>
/home/itssahil/PROJECTS/Mol_Feturizer/New_Systems/rnas/2g5q

>  <Rbt.Executable>
rbdock ($Id: //depot/dev/client3/rdock/2013.1/src/exe/rbdock.cxx#4 $)

>  <Rbt.Library>
libRbt.so (2013.1, Build901 2013/11/27)

>  <Rbt.Parameter_File>
/export/apps/rDock/src/rDock_2013.1_src/data/scripts/dock_solv.prm

>  <Rbt.Receptor>
prm/pocket_docking_5.prm

>  <SCORE>
-20.431

>  <SCORE.INTER>
-12.6015

>  <SCORE.INTER.CONST>
1

>  <SCORE.INTER.POLAR>
-2.5675

>  <SCORE.INTER.ROT>
10

>  <SCORE.INTER.SOLV>
17.3495

>  <SCORE.INTER.VDW>
-15.8925

>  <SCORE.INTER.norm>
-0.315038

>  <SCORE.INTRA>
-7.8295

>  <SCORE.INTRA.DIHEDRAL>
-15.7058

>  <SCORE.INTRA.DIHEDRAL.0>
22.5778

>  <SCORE.INTRA.POLAR>
0

>  <SCORE.INTRA.POLAR.0>
0

>  <SCORE.INTRA.REPUL>
0

>  <SCORE.INTRA.REPUL.0>
0

>  <SCORE.INTRA.SOLV>
1.60834

>  <SCORE.INTRA.SOLV.lig_0>
-102.332

>  <SCORE.INTRA.VDW>
-0.780777

>  <SCORE.INTRA.VDW.0>
-5.08747

>  <SCORE.INTRA.norm>
-0.195738

>  <SCORE.RESTR>
0

>  <SCORE.RESTR.CAVITY>
0

>  <SCORE.RESTR.norm>
0

>  <SCORE.SYSTEM>
0

>  <SCORE.SYSTEM.CONST>
0

>  <SCORE.SYSTEM.DIHEDRAL>
0

>  <SCORE.SYSTEM.SOLV>
0

>  <SCORE.SYSTEM.norm>
0

>  <SCORE.heavy>
40

>  <SCORE.norm>
-0.510775

>  <RMSD>
8.508

$$$$
2g5q_lig
 OpenBabel11021811433D
libRbt.so/2013.1/901 2013/11/27
 40 42  0  0  0  0  0  0  0  0999 V2000
    2.7145  -11.4731   14.7499 C   0  0  2  0  0  0  0  0  0  0  0  0
    1.8341  -10.4013   14.4939 O   0  0  0  0  0  0  0  0  0  0  0  0
    2.9426  -12.2623   13.4270 C   0  0  1  0  0  0  0  0  0  0  0  0
    1.6431  -12.9782   12.9452 C   0  0  2  0  0  0  0  0  0  0  0  0
    1.1959  -13.9535   14.0649 C   0  0  2  0  0  0  0  0  0  0  0  0
    0.0110  -14.6513   13.6483 O   0  0  0  0  0  0  0  0  0  0  0  0
    0.9303  -13.1123   15.3786 C   0  0  2  0  0  0  0  0  0  0  0  0
    2.1717  -12.3930   15.7839 O   0  0  0  0  0  0  0  0  0  0  0  0
    0.4957  -13.9784   16.5561 C   0  0  0  0  0  0  0  0  0  0  0  0
   -0.7991  -14.6812   16.2888 N   0  0  0  0  0  0  0  0  0  0  0  0
    1.9086   -8.1687   18.2472 C   0  0  2  0  0  0  0  0  0  0  0  0
    1.7453   -7.0918   19.2164 N   0  0  0  0  0  0  0  0  0  0  0  0
    2.8605   -7.7044   17.0665 C   0  0  0  0  0  0  0  0  0  0  0  0
    3.0460   -8.8706   16.0176 C   0  0  2  0  0  0  0  0  0  0  0  0
    3.9492   -8.4264   14.9218 N   0  0  0  0  0  0  0  0  0  0  0  0
    1.6335   -9.3063   15.4582 C   0  0  2  0  0  0  0  0  0  0  0  0
    0.7138   -9.7571   16.6615 C   0  0  2  0  0  0  0  0  0  0  0  0
   -0.5665  -10.1450   16.1533 O   0  0  0  0  0  0  0  0  0  0  0  0
    0.5295   -8.5745   17.6875 C   0  0  1  0  0  0  0  0  0  0  0  0
   -0.3078   -8.9963   18.8008 O   0  0  0  0  0  0  0  0  0  0  0  0
   -1.1228   -8.1284   19.5496 C   0  0  2  0  0  0  0  0  0  0  0  0
   -1.7374   -8.9598   20.7261 C   0  0  2  0  0  0  0  0  0  0  0  0
   -0.7140   -9.4719   21.5177 O   0  0  0  0  0  0  0  0  0  0  0  0
   -2.6623  -10.1148   20.1844 C   0  0  1  0  0  0  0  0  0  0  0  0
   -3.2596  -10.9144   21.3042 N   0  0  0  0  0  0  0  0  0  0  0  0
   -3.7945   -9.4669   19.2924 C   0  0  2  0  0  0  0  0  0  0  0  0
   -4.6731  -10.4690   18.7765 O   0  0  0  0  0  0  0  0  0  0  0  0
   -3.1168   -8.6543   18.1379 C   0  0  2  0  0  0  0  0  0  0  0  0
   -2.1965   -7.6009   18.6887 O   0  0  0  0  0  0  0  0  0  0  0  0
   -4.1324   -7.9803   17.2616 C   0  0  0  0  0  0  0  0  0  0  0  0
   -4.3110   -8.6930   16.0266 O   0  0  0  0  0  0  0  0  0  0  0  0
    3.4380  -11.3254   12.4097 O   0  0  0  0  0  0  0  0  0  0  0  0
    1.9049  -13.6693   11.7827 O   0  0  0  0  0  0  0  0  0  0  0  0
    0.9736   -2.6444   21.8944 N   0  0  0  0  0  0  0  0  0  0  0  0
    2.6871   -6.1093   19.4882 C   0  0  0  0  0  0  0  0  0  0  0  0
    3.7816   -6.0411   18.9400 O   0  0  0  0  0  0  0  0  0  0  0  0
    2.2090   -5.1179   20.5740 C   0  0  1  0  0  0  0  0  0  0  0  0
    2.2387   -3.6774   20.0243 C   0  0  0  0  0  0  0  0  0  0  0  0
    2.1801   -2.5613   21.0737 C   0  0  0  0  0  0  0  0  0  0  0  0
    0.8749   -5.4829   20.9937 O   0  0  0  0  0  0  0  0  0  0  0  0
  1  2  1  6  0  0  0
  1  3  1  0  0  0  0
  1  8  1  0  0  0  0
  3  4  1  0  0  0  0
  3 32  1  6  0  0  0
  4  5  1  0  0  0  0
  4 33  1  6  0  0  0
  5  6  1  6  0  0  0
  5  7  1  0  0  0  0
  7  8  1  0  0  0  0
  7  9  1  1  0  0  0
  9 10  1  0  0  0  0
 11 12  1  1  0  0  0
 11 13  1  0  0  0  0
 11 19  1  0  0  0  0
 12 35  1  0  0  0  0
 13 14  1  0  0  0  0
 14 15  1  6  0  0  0
 14 16  1  0  0  0  0
 16  2  1  6  0  0  0
 16 17  1  0  0  0  0
 17 18  1  6  0  0  0
 17 19  1  0  0  0  0
 19 20  1  1  0  0  0
 21 20  1  6  0  0  0
 21 22  1  0  0  0  0
 21 29  1  0  0  0  0
 22 23  1  6  0  0  0
 22 24  1  0  0  0  0
 24 25  1  1  0  0  0
 24 26  1  0  0  0  0
 26 27  1  6  0  0  0
 26 28  1  0  0  0  0
 28 29  1  0  0  0  0
 28 30  1  1  0  0  0
 30 31  1  0  0  0  0
 34 39  1  0  0  0  0
 35 36  2  0  0  0  0
 37 35  1  6  0  0  0
 37 38  1  0  0  0  0
 37 40  1  0  0  0  0
 38 39  1  0  0  0  0
M  END
>  <CHROM.1>
-167.08354854,-62.26869583,-29.29421185,43.85093309,89.03642288,-174.60281128
-102.53754805,-123.06554100,-163.32471898,-58.81436430,0.40711707,-9.37234829
17.37862834,-1.45880680,0.45110571,0.67910420

>  <Name>
2g5q_lig

>  <RI>
0

>  <Rbt.Current_Directory>
/home/itssahil/PROJECTS/Mol_Feturizer/New_Systems/rnas/2g5q

>  <Rbt.Executable>
rbdock ($Id: //depot/dev/client3/rdock/2013.1/src/exe/rbdock.cxx#4 $)

>  <Rbt.Library>
libRbt.so (2013.1, Build901 2013/11/27)

>  <Rbt.Parameter_File>
/export/apps/rDock/src/rDock_2013.1_src/data/scripts/dock_solv.prm

>  <Rbt.Receptor>
prm/pocket_docking_3.prm

>  <SCORE>
-15.5398

>  <SCORE.INTER>
-15.4008

>  <SCORE.INTER.CONST>
1

>  <SCORE.INTER.POLAR>
-1.57059

>  <SCORE.INTER.ROT>
10

>  <SCORE.INTER.SOLV>
16.3661

>  <SCORE.INTER.VDW>
-20.7539

>  <SCORE.INTER.norm>
-0.38502

>  <SCORE.INTRA>
-0.790362

>  <SCORE.INTRA.DIHEDRAL>
-8.77715

>  <SCORE.INTRA.DIHEDRAL.0>
22.5778

>  <SCORE.INTRA.POLAR>
0

>  <SCORE.INTRA.POLAR.0>
0

>  <SCORE.INTRA.REPUL>
0

>  <SCORE.INTRA.REPUL.0>
0

>  <SCORE.INTRA.SOLV>
2.76331

>  <SCORE.INTRA.SOLV.lig_0>
-102.332

>  <SCORE.INTRA.VDW>
2.21656

>  <SCORE.INTRA.VDW.0>
-5.08747

>  <SCORE.INTRA.norm>
-0.019759

>  <SCORE.RESTR>
0.651428

>  <SCORE.RESTR.CAVITY>
0.651428

>  <SCORE.RESTR.norm>
0.0162857

>  <SCORE.SYSTEM>
0

>  <SCORE.SYSTEM.CONST>
0

>  <SCORE.SYSTEM.DIHEDRAL>
0

>  <SCORE.SYSTEM.SOLV>
0

>  <SCORE.SYSTEM.norm>
0

>  <SCORE.heavy>
40

>  <SCORE.norm>
-0.388494

>  <RMSD>
8.515

$$$$
2g5q_lig
 OpenBabel11021811433D
libRbt.so/2013.1/901 2013/11/27
 40 42  0  0  0  0  0  0  0  0999 V2000
   -4.4115  -10.2952   19.7620 C   0  0  2  0  0  0  0  0  0  0  0  0
   -3.4583   -9.7552   20.6503 O   0  0  0  0  0  0  0  0  0  0  0  0
   -5.0074   -9.1413   18.9028 C   0  0  1  0  0  0  0  0  0  0  0  0
   -5.8477   -8.1486   19.7642 C   0  0  2  0  0  0  0  0  0  0  0  0
   -6.9960   -8.9518   20.4284 C   0  0  2  0  0  0  0  0  0  0  0  0
   -7.8090   -8.0657   21.2146 O   0  0  0  0  0  0  0  0  0  0  0  0
   -6.3535  -10.0847   21.3273 C   0  0  2  0  0  0  0  0  0  0  0  0
   -5.5098  -10.9841   20.4895 O   0  0  0  0  0  0  0  0  0  0  0  0
   -7.3991  -10.9506   22.0220 C   0  0  0  0  0  0  0  0  0  0  0  0
   -8.2002  -11.7554   21.0462 N   0  0  0  0  0  0  0  0  0  0  0  0
    0.9040   -9.7478   20.8681 C   0  0  2  0  0  0  0  0  0  0  0  0
    2.2828  -10.2141   20.9532 N   0  0  0  0  0  0  0  0  0  0  0  0
    0.0798  -10.2391   22.1311 C   0  0  0  0  0  0  0  0  0  0  0  0
   -1.4129   -9.7300   22.0465 C   0  0  2  0  0  0  0  0  0  0  0  0
   -2.1718  -10.1878   23.2417 N   0  0  0  0  0  0  0  0  0  0  0  0
   -2.0737  -10.2538   20.7097 C   0  0  2  0  0  0  0  0  0  0  0  0
   -1.2241   -9.7489   19.4768 C   0  0  2  0  0  0  0  0  0  0  0  0
   -1.8207  -10.2296   18.2681 O   0  0  0  0  0  0  0  0  0  0  0  0
    0.2567  -10.2806   19.5730 C   0  0  1  0  0  0  0  0  0  0  0  0
    1.0401   -9.8040   18.4428 O   0  0  0  0  0  0  0  0  0  0  0  0
    1.1058   -8.4586   18.0382 C   0  0  2  0  0  0  0  0  0  0  0  0
    1.5352   -8.4418   16.5320 C   0  0  2  0  0  0  0  0  0  0  0  0
    0.5963   -9.1340   15.7732 O   0  0  0  0  0  0  0  0  0  0  0  0
    2.9744   -9.0549   16.3437 C   0  0  1  0  0  0  0  0  0  0  0  0
    3.3968   -9.0391   14.9044 N   0  0  0  0  0  0  0  0  0  0  0  0
    3.9861   -8.2291   17.2337 C   0  0  2  0  0  0  0  0  0  0  0  0
    5.3153   -8.7359   17.0983 O   0  0  0  0  0  0  0  0  0  0  0  0
    3.5032   -8.2867   18.7223 C   0  0  2  0  0  0  0  0  0  0  0  0
    2.1056   -7.7497   18.8567 O   0  0  0  0  0  0  0  0  0  0  0  0
    4.4005   -7.4954   19.6292 C   0  0  0  0  0  0  0  0  0  0  0  0
    4.6146   -6.1678   19.1227 O   0  0  0  0  0  0  0  0  0  0  0  0
   -3.9011   -8.4494   18.2277 O   0  0  0  0  0  0  0  0  0  0  0  0
   -6.3599   -7.1593   18.9540 O   0  0  0  0  0  0  0  0  0  0  0  0
    5.8154  -14.0705   22.8135 N   0  0  0  0  0  0  0  0  0  0  0  0
    3.1740   -9.8978   21.9691 C   0  0  0  0  0  0  0  0  0  0  0  0
    2.8985   -9.1734   22.9192 O   0  0  0  0  0  0  0  0  0  0  0  0
    4.5613  -10.5476   21.7607 C   0  0  1  0  0  0  0  0  0  0  0  0
    4.5662  -11.9787   22.3352 C   0  0  0  0  0  0  0  0  0  0  0  0
    5.9211  -12.6962   22.3278 C   0  0  0  0  0  0  0  0  0  0  0  0
    4.8723  -10.5569   20.3491 O   0  0  0  0  0  0  0  0  0  0  0  0
  1  2  1  1  0  0  0
  1  3  1  0  0  0  0
  1  8  1  0  0  0  0
  3  4  1  0  0  0  0
  3 32  1  1  0  0  0
  4  5  1  0  0  0  0
  4 33  1  6  0  0  0
  5  6  1  1  0  0  0
  5  7  1  0  0  0  0
  7  8  1  0  0  0  0
  7  9  1  6  0  0  0
  9 10  1  0  0  0  0
 11 12  1  1  0  0  0
 11 13  1  0  0  0  0
 11 19  1  0  0  0  0
 12 35  1  0  0  0  0
 13 14  1  0  0  0  0
 14 15  1  1  0  0  0
 14 16  1  0  0  0  0
 16  2  1  6  0  0  0
 16 17  1  0  0  0  0
 17 18  1  6  0  0  0
 17 19  1  0  0  0  0
 19 20  1  6  0  0  0
 21 20  1  1  0  0  0
 21 22  1  0  0  0  0
 21 29  1  0  0  0  0
 22 23  1  6  0  0  0
 22 24  1  0  0  0  0
 24 25  1  6  0  0  0
 24 26  1  0  0  0  0
 26 27  1  1  0  0  0
 26 28  1  0  0  0  0
 28 29  1  0  0  0  0
 28 30  1  1  0  0  0
 30 31  1  0  0  0  0
 34 39  1  0  0  0  0
 35 36  2  0  0  0  0
 37 35  1  6  0  0  0
 37 38  1  0  0  0  0
 37 40  1  0  0  0  0
 38 39  1  0  0  0  0
M  END
>  <CHROM.1>
-125.13745310,65.98680163,-60.42550742,-164.48269605,-68.79085730,-157.55635890
50.58396033,-85.53606427,-174.01022159,-176.53449527,-0.25931157,-9.57278420
19.85684609,-3.08225027,0.05399289,-1.04371625

>  <Name>
2g5q_lig

>  <RI>
2.47104e+07

>  <Rbt.Current_Directory>
/home/itssahil/PROJECTS/Mol_Feturizer/New_Systems/rnas/2g5q

>  <Rbt.Executable>
rbdock ($Id: //depot/dev/client3/rdock/2013.1/src/exe/rbdock.cxx#4 $)

>  <Rbt.Library>
libRbt.so (2013.1, Build901 2013/11/27)

>  <Rbt.Parameter_File>
/export/apps/rDock/src/rDock_2013.1_src/data/scripts/dock_solv.prm

>  <Rbt.Receptor>
prm/pocket_docking_7.prm

>  <SCORE>
-11.6061

>  <SCORE.INTER>
-6.95199

>  <SCORE.INTER.CONST>
1

>  <SCORE.INTER.POLAR>
-1.52581

>  <SCORE.INTER.ROT>
10

>  <SCORE.INTER.SOLV>
9.0995

>  <SCORE.INTER.VDW>
-12.8485

>  <SCORE.INTER.norm>
-0.1738

>  <SCORE.INTRA>
-4.66865

>  <SCORE.INTRA.DIHEDRAL>
-9.75993

>  <SCORE.INTRA.DIHEDRAL.0>
22.5778

>  <SCORE.INTRA.POLAR>
0

>  <SCORE.INTRA.POLAR.0>
0

>  <SCORE.INTRA.REPUL>
0

>  <SCORE.INTRA.REPUL.0>
0

>  <SCORE.INTRA.SOLV>
1.52512

>  <SCORE.INTRA.SOLV.lig_0>
-102.332

>  <SCORE.INTRA.VDW>
-0.551247

>  <SCORE.INTRA.VDW.0>
-5.08747

>  <SCORE.INTRA.norm>
-0.116716

>  <SCORE.RESTR>
0.0145872

>  <SCORE.RESTR.CAVITY>
0.0145872

>  <SCORE.RESTR.norm>
0.00036468

>  <SCORE.SYSTEM>
0

>  <SCORE.SYSTEM.CONST>
0

>  <SCORE.SYSTEM.DIHEDRAL>
0

>  <SCORE.SYSTEM.SOLV>
0

>  <SCORE.SYSTEM.norm>
0

>  <SCORE.heavy>
40

>  <SCORE.norm>
-0.290151

>  <RMSD>
8.516

$$$$
2g5q_lig
 OpenBabel11021811433D
libRbt.so/2013.1/901 2013/11/27
 40 42  0  0  0  0  0  0  0  0999 V2000
   -6.0259   -9.8930   16.4267 C   0  0  2  0  0  0  0  0  0  0  0  0
   -4.7227   -9.6996   15.9229 O   0  0  0  0  0  0  0  0  0  0  0  0
   -6.8332  -10.7560   15.4127 C   0  0  1  0  0  0  0  0  0  0  0  0
   -7.0803   -9.9986   14.0714 C   0  0  2  0  0  0  0  0  0  0  0  0
   -7.8670   -8.7024   14.3968 C   0  0  2  0  0  0  0  0  0  0  0  0
   -8.1351   -7.9859   13.1806 O   0  0  0  0  0  0  0  0  0  0  0  0
   -6.9982   -7.8314   15.3921 C   0  0  2  0  0  0  0  0  0  0  0  0
   -6.7281   -8.6002   16.6406 O   0  0  0  0  0  0  0  0  0  0  0  0
   -7.6863   -6.5309   15.7930 C   0  0  0  0  0  0  0  0  0  0  0  0
   -8.9767   -6.7764   16.5115 N   0  0  0  0  0  0  0  0  0  0  0  0
   -1.1120   -7.7902   17.4702 C   0  0  2  0  0  0  0  0  0  0  0  0
    0.0142   -7.4642   18.3370 N   0  0  0  0  0  0  0  0  0  0  0  0
   -2.4801   -7.5694   18.2419 C   0  0  0  0  0  0  0  0  0  0  0  0
   -3.7032   -7.9146   17.3042 C   0  0  2  0  0  0  0  0  0  0  0  0
   -4.9797   -7.6928   18.0358 N   0  0  0  0  0  0  0  0  0  0  0  0
   -3.5787   -9.4086   16.8036 C   0  0  2  0  0  0  0  0  0  0  0  0
   -2.2045   -9.5904   16.0452 C   0  0  2  0  0  0  0  0  0  0  0  0
   -2.0912  -10.9452   15.5985 O   0  0  0  0  0  0  0  0  0  0  0  0
   -0.9979   -9.2560   17.0029 C   0  0  1  0  0  0  0  0  0  0  0  0
    0.2660   -9.4123   16.2984 O   0  0  0  0  0  0  0  0  0  0  0  0
    0.7300  -10.6298   15.7686 C   0  0  2  0  0  0  0  0  0  0  0  0
    1.0764  -11.5655   16.9759 C   0  0  2  0  0  0  0  0  0  0  0  0
   -0.0640  -11.7720   17.7461 O   0  0  0  0  0  0  0  0  0  0  0  0
    2.2429  -10.9626   17.8468 C   0  0  1  0  0  0  0  0  0  0  0  0
    2.5853  -11.8542   19.0036 N   0  0  0  0  0  0  0  0  0  0  0  0
    3.4998  -10.7486   16.9131 C   0  0  2  0  0  0  0  0  0  0  0  0
    4.5974  -10.2082   17.6516 O   0  0  0  0  0  0  0  0  0  0  0  0
    3.0893   -9.8064   15.7315 C   0  0  2  0  0  0  0  0  0  0  0  0
    1.9361  -10.3828   14.9583 O   0  0  0  0  0  0  0  0  0  0  0  0
    4.2277   -9.5796   14.7795 C   0  0  0  0  0  0  0  0  0  0  0  0
    5.3485   -8.9714   15.4419 O   0  0  0  0  0  0  0  0  0  0  0  0
   -6.0996  -12.0082   15.1850 O   0  0  0  0  0  0  0  0  0  0  0  0
   -7.8076  -10.8006   13.2197 O   0  0  0  0  0  0  0  0  0  0  0  0
    4.4227   -8.0595   21.1300 N   0  0  0  0  0  0  0  0  0  0  0  0
    0.2554   -8.0270   19.5824 C   0  0  0  0  0  0  0  0  0  0  0  0
   -0.4675   -8.8690   20.1038 O   0  0  0  0  0  0  0  0  0  0  0  0
    1.5304   -7.4608   20.2489 C   0  0  1  0  0  0  0  0  0  0  0  0
    2.7504   -7.6868   19.3331 C   0  0  0  0  0  0  0  0  0  0  0  0
    4.1099   -7.2957   19.9239 C   0  0  0  0  0  0  0  0  0  0  0  0
    1.3393   -6.0532   20.5164 O   0  0  0  0  0  0  0  0  0  0  0  0
  1  2  1  6  0  0  0
  1  3  1  0  0  0  0
  1  8  1  0  0  0  0
  3  4  1  0  0  0  0
  3 32  1  6  0  0  0
  4  5  1  0  0  0  0
  4 33  1  6  0  0  0
  5  6  1  6  0  0  0
  5  7  1  0  0  0  0
  7  8  1  0  0  0  0
  7  9  1  1  0  0  0
  9 10  1  0  0  0  0
 11 12  1  1  0  0  0
 11 13  1  0  0  0  0
 11 19  1  0  0  0  0
 12 35  1  0  0  0  0
 13 14  1  0  0  0  0
 14 15  1  1  0  0  0
 14 16  1  0  0  0  0
 16  2  1  6  0  0  0
 16 17  1  0  0  0  0
 17 18  1  1  0  0  0
 17 19  1  0  0  0  0
 19 20  1  6  0  0  0
 21 20  1  1  0  0  0
 21 22  1  0  0  0  0
 21 29  1  0  0  0  0
 22 23  1  1  0  0  0
 22 24  1  0  0  0  0
 24 25  1  1  0  0  0
 24 26  1  0  0  0  0
 26 27  1  1  0  0  0
 26 28  1  0  0  0  0
 28 29  1  0  0  0  0
 28 30  1  6  0  0  0
 30 31  1  0  0  0  0
 34 39  1  0  0  0  0
 35 36  2  0  0  0  0
 37 35  1  6  0  0  0
 37 38  1  0  0  0  0
 37 40  1  0  0  0  0
 38 39  1  0  0  0  0
M  END
>  <CHROM.1>
-155.59799435,61.58208839,55.88059620,-73.86081270,177.82035062,-68.80503334
-60.04097935,-57.47647516,-174.35624708,60.79698807,-1.56354917,-9.18091192
16.90010046,-2.95373048,-0.20018733,0.84701078

>  <Name>
2g5q_lig

>  <RI>
224

>  <Rbt.Current_Directory>
/home/itssahil/PROJECTS/Mol_Feturizer/New_Systems/rnas/2g5q

>  <Rbt.Executable>
rbdock ($Id: //depot/dev/client3/rdock/2013.1/src/exe/rbdock.cxx#4 $)

>  <Rbt.Library>
libRbt.so (2013.1, Build901 2013/11/27)

>  <Rbt.Parameter_File>
/export/apps/rDock/src/rDock_2013.1_src/data/scripts/dock_solv.prm

>  <Rbt.Receptor>
prm/pocket_docking_8.prm

>  <SCORE>
-14.9954

>  <SCORE.INTER>
-9.90042

>  <SCORE.INTER.CONST>
1

>  <SCORE.INTER.POLAR>
-0.764845

>  <SCORE.INTER.ROT>
10

>  <SCORE.INTER.SOLV>
11.1079

>  <SCORE.INTER.VDW>
-18.0201

>  <SCORE.INTER.norm>
-0.24751

>  <SCORE.INTRA>
-5.09497

>  <SCORE.INTRA.DIHEDRAL>
-17.7465

>  <SCORE.INTRA.DIHEDRAL.0>
22.5778

>  <SCORE.INTRA.POLAR>
0

>  <SCORE.INTRA.POLAR.0>
0

>  <SCORE.INTRA.REPUL>
0

>  <SCORE.INTRA.REPUL.0>
0

>  <SCORE.INTRA.SOLV>
6.06289

>  <SCORE.INTRA.SOLV.lig_0>
-102.332

>  <SCORE.INTRA.VDW>
0.746835

>  <SCORE.INTRA.VDW.0>
-5.08747

>  <SCORE.INTRA.norm>
-0.127374

>  <SCORE.RESTR>
0

>  <SCORE.RESTR.CAVITY>
0

>  <SCORE.RESTR.norm>
0

>  <SCORE.SYSTEM>
0

>  <SCORE.SYSTEM.CONST>
0

>  <SCORE.SYSTEM.DIHEDRAL>
0

>  <SCORE.SYSTEM.SOLV>
0

>  <SCORE.SYSTEM.norm>
0

>  <SCORE.heavy>
40

>  <SCORE.norm>
-0.374885

>  <RMSD>
8.530

$$$$
2g5q_lig
 OpenBabel11021811433D
libRbt.so/2013.1/901 2013/11/27
 40 42  0  0  0  0  0  0  0  0999 V2000
   -5.8071  -10.9387   15.4597 C   0  0  2  0  0  0  0  0  0  0  0  0
   -4.9287   -9.8678   15.7265 O   0  0  0  0  0  0  0  0  0  0  0  0
   -7.1103  -10.3724   14.8228 C   0  0  1  0  0  0  0  0  0  0  0  0
   -7.9164   -9.4950   15.8298 C   0  0  2  0  0  0  0  0  0  0  0  0
   -8.2742  -10.3818   17.0507 C   0  0  2  0  0  0  0  0  0  0  0  0
   -9.0393   -9.6139   17.9937 O   0  0  0  0  0  0  0  0  0  0  0  0
   -6.9271  -10.9017   17.6981 C   0  0  2  0  0  0  0  0  0  0  0  0
   -6.1498  -11.6875   16.6974 O   0  0  0  0  0  0  0  0  0  0  0  0
   -7.1619  -11.8012   18.9069 C   0  0  0  0  0  0  0  0  0  0  0  0
   -5.8818  -12.1675   19.5917 N   0  0  0  0  0  0  0  0  0  0  0  0
   -0.6257   -9.4513   16.3492 C   0  0  2  0  0  0  0  0  0  0  0  0
    0.7122   -9.6236   16.9024 N   0  0  0  0  0  0  0  0  0  0  0  0
   -1.6126   -8.8999   17.4618 C   0  0  0  0  0  0  0  0  0  0  0  0
   -3.0618   -8.7050   16.8648 C   0  0  2  0  0  0  0  0  0  0  0  0
   -3.9745   -8.1772   17.9147 N   0  0  0  0  0  0  0  0  0  0  0  0
   -3.5835  -10.0805   16.2870 C   0  0  2  0  0  0  0  0  0  0  0  0
   -2.5744  -10.5990   15.1872 C   0  0  2  0  0  0  0  0  0  0  0  0
   -3.0455  -11.8475   14.6701 O   0  0  0  0  0  0  0  0  0  0  0  0
   -1.1393  -10.8014   15.8074 C   0  0  1  0  0  0  0  0  0  0  0  0
   -0.2091  -11.2672   14.7895 O   0  0  0  0  0  0  0  0  0  0  0  0
   -0.4447  -12.3701   13.9492 C   0  0  2  0  0  0  0  0  0  0  0  0
   -0.3193  -13.6627   14.8248 C   0  0  2  0  0  0  0  0  0  0  0  0
   -1.2585  -13.6221   15.8508 O   0  0  0  0  0  0  0  0  0  0  0  0
    1.1386  -13.8203   15.4014 C   0  0  1  0  0  0  0  0  0  0  0  0
    1.2700  -15.0584   16.2381 N   0  0  0  0  0  0  0  0  0  0  0  0
    2.1511  -13.8535   14.1885 C   0  0  2  0  0  0  0  0  0  0  0  0
    3.4952  -14.0030   14.6504 O   0  0  0  0  0  0  0  0  0  0  0  0
    1.9775  -12.5378   13.3571 C   0  0  2  0  0  0  0  0  0  0  0  0
    0.5621  -12.3891   12.8729 O   0  0  0  0  0  0  0  0  0  0  0  0
    2.8883  -12.5093   12.1642 C   0  0  0  0  0  0  0  0  0  0  0  0
    2.5337  -13.5259   11.2126 O   0  0  0  0  0  0  0  0  0  0  0  0
   -6.7431   -9.6020   13.6271 O   0  0  0  0  0  0  0  0  0  0  0  0
   -9.0617   -9.0328   15.2200 O   0  0  0  0  0  0  0  0  0  0  0  0
    4.7457   -9.6491   19.7465 N   0  0  0  0  0  0  0  0  0  0  0  0
    1.8974   -9.4344   16.2055 C   0  0  0  0  0  0  0  0  0  0  0  0
    1.9518   -9.1033   15.0262 O   0  0  0  0  0  0  0  0  0  0  0  0
    3.1447   -9.7047   17.0782 C   0  0  1  0  0  0  0  0  0  0  0  0
    3.4236   -8.4935   17.9912 C   0  0  0  0  0  0  0  0  0  0  0  0
    4.7322   -8.5458   18.7881 C   0  0  0  0  0  0  0  0  0  0  0  0
    2.9252  -10.9006   17.8599 O   0  0  0  0  0  0  0  0  0  0  0  0
  1  2  1  1  0  0  0
  1  3  1  0  0  0  0
  1  8  1  0  0  0  0
  3  4  1  0  0  0  0
  3 32  1  6  0  0  0
  4  5  1  0  0  0  0
  4 33  1  6  0  0  0
  5  6  1  1  0  0  0
  5  7  1  0  0  0  0
  7  8  1  0  0  0  0
  7  9  1  1  0  0  0
  9 10  1  0  0  0  0
 11 12  1  1  0  0  0
 11 13  1  0  0  0  0
 11 19  1  0  0  0  0
 12 35  1  0  0  0  0
 13 14  1  0  0  0  0
 14 15  1  1  0  0  0
 14 16  1  0  0  0  0
 16  2  1  6  0  0  0
 16 17  1  0  0  0  0
 17 18  1  1  0  0  0
 17 19  1  0  0  0  0
 19 20  1  6  0  0  0
 21 20  1  1  0  0  0
 21 22  1  0  0  0  0
 21 29  1  0  0  0  0
 22 23  1  1  0  0  0
 22 24  1  0  0  0  0
 24 25  1  6  0  0  0
 24 26  1  0  0  0  0
 26 27  1  1  0  0  0
 26 28  1  0  0  0  0
 28 29  1  0  0  0  0
 28 30  1  6  0  0  0
 30 31  1  0  0  0  0
 34 39  1  0  0  0  0
 35 36  2  0  0  0  0
 37 35  1  1  0  0  0
 37 38  1  0  0  0  0
 37 40  1  0  0  0  0
 38 39  1  0  0  0  0
M  END
>  <CHROM.1>
-177.69010914,-174.04641168,-146.17031960,-162.79210507,-170.99862443,-71.98713860
66.14395096,-78.94126594,-172.65319679,-63.99179740,-1.69795131,-10.97755308
15.92546996,2.97339331,-0.03922048,0.88491966

>  <Name>
2g5q_lig

>  <RI>
0

>  <Rbt.Current_Directory>
/home/itssahil/PROJECTS/Mol_Feturizer/New_Systems/rnas/2g5q

>  <Rbt.Executable>
rbdock ($Id: //depot/dev/client3/rdock/2013.1/src/exe/rbdock.cxx#4 $)

>  <Rbt.Library>
libRbt.so (2013.1, Build901 2013/11/27)

>  <Rbt.Parameter_File>
/export/apps/rDock/src/rDock_2013.1_src/data/scripts/dock_solv.prm

>  <Rbt.Receptor>
prm/pocket_docking_5.prm

>  <SCORE>
-16.2222

>  <SCORE.INTER>
-8.36627

>  <SCORE.INTER.CONST>
1

>  <SCORE.INTER.POLAR>
-1.00832

>  <SCORE.INTER.ROT>
10

>  <SCORE.INTER.SOLV>
10.8854

>  <SCORE.INTER.VDW>
-16.1116

>  <SCORE.INTER.norm>
-0.209157

>  <SCORE.INTRA>
-7.85589

>  <SCORE.INTRA.DIHEDRAL>
-17.6967

>  <SCORE.INTRA.DIHEDRAL.0>
22.5778

>  <SCORE.INTRA.POLAR>
0

>  <SCORE.INTRA.POLAR.0>
0

>  <SCORE.INTRA.REPUL>
0

>  <SCORE.INTRA.REPUL.0>
0

>  <SCORE.INTRA.SOLV>
1.40963

>  <SCORE.INTRA.SOLV.lig_0>
-102.332

>  <SCORE.INTRA.VDW>
0.287639

>  <SCORE.INTRA.VDW.0>
-5.08747

>  <SCORE.INTRA.norm>
-0.196397

>  <SCORE.RESTR>
0

>  <SCORE.RESTR.CAVITY>
0

>  <SCORE.RESTR.norm>
0

>  <SCORE.SYSTEM>
0

>  <SCORE.SYSTEM.CONST>
0

>  <SCORE.SYSTEM.DIHEDRAL>
0

>  <SCORE.SYSTEM.SOLV>
0

>  <SCORE.SYSTEM.norm>
0

>  <SCORE.heavy>
40

>  <SCORE.norm>
-0.405554

>  <RMSD>
8.531

$$$$
2g5q_lig
 OpenBabel11021811433D
libRbt.so/2013.1/901 2013/11/27
 40 42  0  0  0  0  0  0  0  0999 V2000
   -6.2850   -9.3619   16.2528 C   0  0  2  0  0  0  0  0  0  0  0  0
   -5.0661   -9.5683   15.5738 O   0  0  0  0  0  0  0  0  0  0  0  0
   -6.8862  -10.7459   16.6374 C   0  0  1  0  0  0  0  0  0  0  0  0
   -7.3148  -11.5637   15.3800 C   0  0  2  0  0  0  0  0  0  0  0  0
   -8.3723  -10.7305   14.6103 C   0  0  2  0  0  0  0  0  0  0  0  0
   -8.8107  -11.4621   13.4540 O   0  0  0  0  0  0  0  0  0  0  0  0
   -7.7134   -9.3524   14.1972 C   0  0  2  0  0  0  0  0  0  0  0  0
   -7.2608   -8.6181   15.4132 O   0  0  0  0  0  0  0  0  0  0  0  0
   -8.6750   -8.4415   13.4415 C   0  0  0  0  0  0  0  0  0  0  0  0
   -9.8262   -8.0081   14.2952 N   0  0  0  0  0  0  0  0  0  0  0  0
   -0.8846   -9.8513   16.8034 C   0  0  2  0  0  0  0  0  0  0  0  0
    0.3253  -10.2818   17.4937 N   0  0  0  0  0  0  0  0  0  0  0  0
   -1.9503   -9.3134   17.8478 C   0  0  0  0  0  0  0  0  0  0  0  0
   -3.2601   -8.8392   17.1035 C   0  0  2  0  0  0  0  0  0  0  0  0
   -4.2465   -8.3270   18.0926 N   0  0  0  0  0  0  0  0  0  0  0  0
   -3.8551  -10.0405   16.2663 C   0  0  2  0  0  0  0  0  0  0  0  0
   -2.7655  -10.5510   15.2421 C   0  0  2  0  0  0  0  0  0  0  0  0
   -3.3043  -11.6426   14.4897 O   0  0  0  0  0  0  0  0  0  0  0  0
   -1.4739  -11.0334   16.0062 C   0  0  1  0  0  0  0  0  0  0  0  0
   -0.4674  -11.4914   15.0600 O   0  0  0  0  0  0  0  0  0  0  0  0
   -0.7019  -12.4529   14.0606 C   0  0  2  0  0  0  0  0  0  0  0  0
   -0.3654  -13.8558   14.6707 C   0  0  2  0  0  0  0  0  0  0  0  0
   -1.1804  -14.0904   15.7739 O   0  0  0  0  0  0  0  0  0  0  0  0
    1.1572  -13.9552   15.0636 C   0  0  1  0  0  0  0  0  0  0  0  0
    1.4904  -15.2973   15.6448 N   0  0  0  0  0  0  0  0  0  0  0  0
    2.0226  -13.6735   13.7716 C   0  0  2  0  0  0  0  0  0  0  0  0
    3.4187  -13.7574   14.0649 O   0  0  0  0  0  0  0  0  0  0  0  0
    1.6415  -12.2607   13.2138 C   0  0  2  0  0  0  0  0  0  0  0  0
    0.1723  -12.1814   12.9055 O   0  0  0  0  0  0  0  0  0  0  0  0
    2.4032  -11.9327   11.9625 C   0  0  0  0  0  0  0  0  0  0  0  0
    2.0715  -12.8383   10.8972 O   0  0  0  0  0  0  0  0  0  0  0  0
   -5.8892  -11.4785   17.4295 O   0  0  0  0  0  0  0  0  0  0  0  0
   -7.8500  -12.7690   15.7779 O   0  0  0  0  0  0  0  0  0  0  0  0
    1.6185  -15.2440   20.0565 N   0  0  0  0  0  0  0  0  0  0  0  0
    0.3986  -11.3248   18.4064 C   0  0  0  0  0  0  0  0  0  0  0  0
   -0.5631  -12.0061   18.7446 O   0  0  0  0  0  0  0  0  0  0  0  0
    1.8271  -11.5219   18.9639 C   0  0  1  0  0  0  0  0  0  0  0  0
    1.8796  -12.7836   19.8490 C   0  0  0  0  0  0  0  0  0  0  0  0
    1.6333  -14.1145   19.1291 C   0  0  0  0  0  0  0  0  0  0  0  0
    2.7554  -11.6262   17.8608 O   0  0  0  0  0  0  0  0  0  0  0  0
  1  2  1  6  0  0  0
  1  3  1  0  0  0  0
  1  8  1  0  0  0  0
  3  4  1  0  0  0  0
  3 32  1  6  0  0  0
  4  5  1  0  0  0  0
  4 33  1  1  0  0  0
  5  6  1  6  0  0  0
  5  7  1  0  0  0  0
  7  8  1  0  0  0  0
  7  9  1  1  0  0  0
  9 10  1  0  0  0  0
 11 12  1  1  0  0  0
 11 13  1  0  0  0  0
 11 19  1  0  0  0  0
 12 35  1  0  0  0  0
 13 14  1  0  0  0  0
 14 15  1  1  0  0  0
 14 16  1  0  0  0  0
 16  2  1  6  0  0  0
 16 17  1  0  0  0  0
 17 18  1  1  0  0  0
 17 19  1  0  0  0  0
 19 20  1  6  0  0  0
 21 20  1  1  0  0  0
 21 22  1  0  0  0  0
 21 29  1  0  0  0  0
 22 23  1  1  0  0  0
 22 24  1  0  0  0  0
 24 25  1  6  0  0  0
 24 26  1  0  0  0  0
 26 27  1  1  0  0  0
 26 28  1  0  0  0  0
 28 29  1  0  0  0  0
 28 30  1  6  0  0  0
 30 31  1  0  0  0  0
 34 39  1  0  0  0  0
 35 36  2  0  0  0  0
 37 35  1  6  0  0  0
 37 38  1  0  0  0  0
 37 40  1  0  0  0  0
 38 39  1  0  0  0  0
M  END
>  <CHROM.1>
-71.47176323,64.93083937,63.46534861,-74.99541885,-172.40577739,-90.63751605
63.74170513,-173.83588086,65.08776414,-176.41552523,-2.25982197,-11.48231422
15.76871727,3.10182748,0.34077393,-1.71695881

>  <Name>
2g5q_lig

>  <RI>
2.90231e+07

>  <Rbt.Current_Directory>
/home/itssahil/PROJECTS/Mol_Feturizer/New_Systems/rnas/2g5q

>  <Rbt.Executable>
rbdock ($Id: //depot/dev/client3/rdock/2013.1/src/exe/rbdock.cxx#4 $)

>  <Rbt.Library>
libRbt.so (2013.1, Build901 2013/11/27)

>  <Rbt.Parameter_File>
/export/apps/rDock/src/rDock_2013.1_src/data/scripts/dock_solv.prm

>  <Rbt.Receptor>
prm/pocket_docking_6.prm

>  <SCORE>
-16.9401

>  <SCORE.INTER>
-12.3908

>  <SCORE.INTER.CONST>
1

>  <SCORE.INTER.POLAR>
-1.43412

>  <SCORE.INTER.ROT>
10

>  <SCORE.INTER.SOLV>
10.9732

>  <SCORE.INTER.VDW>
-17.4045

>  <SCORE.INTER.norm>
-0.309769

>  <SCORE.INTRA>
-4.55974

>  <SCORE.INTRA.DIHEDRAL>
-15.7345

>  <SCORE.INTRA.DIHEDRAL.0>
22.5778

>  <SCORE.INTRA.POLAR>
0

>  <SCORE.INTRA.POLAR.0>
0

>  <SCORE.INTRA.REPUL>
0

>  <SCORE.INTRA.REPUL.0>
0

>  <SCORE.INTRA.SOLV>
3.80128

>  <SCORE.INTRA.SOLV.lig_0>
-102.332

>  <SCORE.INTRA.VDW>
1.40686

>  <SCORE.INTRA.VDW.0>
-5.08747

>  <SCORE.INTRA.norm>
-0.113994

>  <SCORE.RESTR>
0.0104437

>  <SCORE.RESTR.CAVITY>
0.0104437

>  <SCORE.RESTR.norm>
0.000261093

>  <SCORE.SYSTEM>
0

>  <SCORE.SYSTEM.CONST>
0

>  <SCORE.SYSTEM.DIHEDRAL>
0

>  <SCORE.SYSTEM.SOLV>
0

>  <SCORE.SYSTEM.norm>
0

>  <SCORE.heavy>
40

>  <SCORE.norm>
-0.423502

>  <RMSD>
8.538

$$$$
2g5q_lig
 OpenBabel11021811433D
libRbt.so/2013.1/901 2013/11/27
 40 42  0  0  0  0  0  0  0  0999 V2000
   -3.6539   -8.1537   18.5517 C   0  0  2  0  0  0  0  0  0  0  0  0
   -2.8372   -9.1878   18.0486 O   0  0  0  0  0  0  0  0  0  0  0  0
   -4.6299   -8.7530   19.6067 C   0  0  1  0  0  0  0  0  0  0  0  0
   -5.6568   -9.7326   18.9590 C   0  0  2  0  0  0  0  0  0  0  0  0
   -6.4601   -8.9416   17.8941 C   0  0  2  0  0  0  0  0  0  0  0  0
   -7.4353   -9.8060   17.2890 O   0  0  0  0  0  0  0  0  0  0  0  0
   -5.4428   -8.3868   16.8164 C   0  0  2  0  0  0  0  0  0  0  0  0
   -4.4385   -7.5004   17.4711 O   0  0  0  0  0  0  0  0  0  0  0  0
   -6.1273   -7.5755   15.7214 C   0  0  0  0  0  0  0  0  0  0  0  0
   -6.8764   -6.4036   16.2756 N   0  0  0  0  0  0  0  0  0  0  0  0
    0.9590   -9.7404   15.9604 C   0  0  2  0  0  0  0  0  0  0  0  0
    2.0914   -9.5118   15.0709 N   0  0  0  0  0  0  0  0  0  0  0  0
   -0.3873   -9.8188   15.1254 C   0  0  0  0  0  0  0  0  0  0  0  0
   -1.6160  -10.0736   16.0845 C   0  0  2  0  0  0  0  0  0  0  0  0
   -2.8704  -10.1561   15.2884 N   0  0  0  0  0  0  0  0  0  0  0  0
   -1.6927   -8.9193   17.1614 C   0  0  2  0  0  0  0  0  0  0  0  0
   -0.3350   -8.8697   17.9684 C   0  0  2  0  0  0  0  0  0  0  0  0
   -0.4044   -7.8198   18.9384 O   0  0  0  0  0  0  0  0  0  0  0  0
    0.8751   -8.5992   16.9951 C   0  0  1  0  0  0  0  0  0  0  0  0
    2.1256   -8.5663   17.7391 O   0  0  0  0  0  0  0  0  0  0  0  0
    3.2173   -7.7414   17.4136 C   0  0  2  0  0  0  0  0  0  0  0  0
    4.4810   -8.3327   18.1252 C   0  0  2  0  0  0  0  0  0  0  0  0
    4.7012   -9.6319   17.6780 O   0  0  0  0  0  0  0  0  0  0  0  0
    4.3212   -8.2958   19.6923 C   0  0  1  0  0  0  0  0  0  0  0  0
    5.5290   -8.8560   20.3834 N   0  0  0  0  0  0  0  0  0  0  0  0
    4.0692   -6.7984   20.1304 C   0  0  2  0  0  0  0  0  0  0  0  0
    3.9231   -6.6998   21.5485 O   0  0  0  0  0  0  0  0  0  0  0  0
    2.7959   -6.2688   19.3882 C   0  0  2  0  0  0  0  0  0  0  0  0
    2.9585   -6.3735   17.8975 O   0  0  0  0  0  0  0  0  0  0  0  0
    2.5082   -4.8358   19.7307 C   0  0  0  0  0  0  0  0  0  0  0  0
    2.1759   -4.6881   21.1209 O   0  0  0  0  0  0  0  0  0  0  0  0
   -3.8345   -9.4289   20.6404 O   0  0  0  0  0  0  0  0  0  0  0  0
   -6.5006  -10.2209   19.9320 O   0  0  0  0  0  0  0  0  0  0  0  0
    6.5490  -11.4862   12.5674 N   0  0  0  0  0  0  0  0  0  0  0  0
    3.2490  -10.2766   15.0353 C   0  0  0  0  0  0  0  0  0  0  0  0
    3.4544  -11.2404   15.7649 O   0  0  0  0  0  0  0  0  0  0  0  0
    4.2609   -9.7670   13.9832 C   0  0  1  0  0  0  0  0  0  0  0  0
    4.2128  -10.6608   12.7275 C   0  0  0  0  0  0  0  0  0  0  0  0
    5.5014  -10.7172   11.8988 C   0  0  0  0  0  0  0  0  0  0  0  0
    3.9490   -8.3949   13.6525 O   0  0  0  0  0  0  0  0  0  0  0  0
  1  2  1  6  0  0  0
  1  3  1  0  0  0  0
  1  8  1  0  0  0  0
  3  4  1  0  0  0  0
  3 32  1  1  0  0  0
  4  5  1  0  0  0  0
  4 33  1  1  0  0  0
  5  6  1  6  0  0  0
  5  7  1  0  0  0  0
  7  8  1  0  0  0  0
  7  9  1  6  0  0  0
  9 10  1  0  0  0  0
 11 12  1  6  0  0  0
 11 13  1  0  0  0  0
 11 19  1  0  0  0  0
 12 35  1  0  0  0  0
 13 14  1  0  0  0  0
 14 15  1  6  0  0  0
 14 16  1  0  0  0  0
 16  2  1  1  0  0  0
 16 17  1  0  0  0  0
 17 18  1  1  0  0  0
 17 19  1  0  0  0  0
 19 20  1  1  0  0  0
 21 20  1  1  0  0  0
 21 22  1  0  0  0  0
 21 29  1  0  0  0  0
 22 23  1  6  0  0  0
 22 24  1  0  0  0  0
 24 25  1  1  0  0  0
 24 26  1  0  0  0  0
 26 27  1  1  0  0  0
 26 28  1  0  0  0  0
 28 29  1  0  0  0  0
 28 30  1  6  0  0  0
 30 31  1  0  0  0  0
 34 39  1  0  0  0  0
 35 36  2  0  0  0  0
 37 35  1  1  0  0  0
 37 38  1  0  0  0  0
 37 40  1  0  0  0  0
 38 39  1  0  0  0  0
M  END
>  <CHROM.1>
-171.94555615,58.66752587,-127.61220004,-142.64960366,94.42465159,-161.52729032
-64.67370655,-102.19746490,-153.45259539,72.36219193,0.15434486,-8.66627539
17.34552954,-2.98617762,-0.05721032,-2.06583464

>  <Name>
2g5q_lig

>  <RI>
9.52566e+06

>  <Rbt.Current_Directory>
/home/itssahil/PROJECTS/Mol_Feturizer/New_Systems/rnas/2g5q

>  <Rbt.Executable>
rbdock ($Id: //depot/dev/client3/rdock/2013.1/src/exe/rbdock.cxx#4 $)

>  <Rbt.Library>
libRbt.so (2013.1, Build901 2013/11/27)

>  <Rbt.Parameter_File>
/export/apps/rDock/src/rDock_2013.1_src/data/scripts/dock_solv.prm

>  <Rbt.Receptor>
prm/pocket_docking_4.prm

>  <SCORE>
-13.8289

>  <SCORE.INTER>
-11.8417

>  <SCORE.INTER.CONST>
1

>  <SCORE.INTER.POLAR>
-1.38617

>  <SCORE.INTER.ROT>
10

>  <SCORE.INTER.SOLV>
17.3843

>  <SCORE.INTER.VDW>
-19.3353

>  <SCORE.INTER.norm>
-0.296042

>  <SCORE.INTRA>
-1.989

>  <SCORE.INTRA.DIHEDRAL>
-5.31441

>  <SCORE.INTRA.DIHEDRAL.0>
22.5778

>  <SCORE.INTRA.POLAR>
0

>  <SCORE.INTRA.POLAR.0>
0

>  <SCORE.INTRA.REPUL>
0

>  <SCORE.INTRA.REPUL.0>
0

>  <SCORE.INTRA.SOLV>
3.21985

>  <SCORE.INTRA.SOLV.lig_0>
-102.332

>  <SCORE.INTRA.VDW>
-0.941725

>  <SCORE.INTRA.VDW.0>
-5.08747

>  <SCORE.INTRA.norm>
-0.0497251

>  <SCORE.RESTR>
0.00174435

>  <SCORE.RESTR.CAVITY>
0.00174435

>  <SCORE.RESTR.norm>
4.36087e-05

>  <SCORE.SYSTEM>
0

>  <SCORE.SYSTEM.CONST>
0

>  <SCORE.SYSTEM.DIHEDRAL>
0

>  <SCORE.SYSTEM.SOLV>
0

>  <SCORE.SYSTEM.norm>
0

>  <SCORE.heavy>
40

>  <SCORE.norm>
-0.345723

>  <RMSD>
8.544

$$$$
2g5q_lig
 OpenBabel11021811433D
libRbt.so/2013.1/901 2013/11/27
 40 42  0  0  0  0  0  0  0  0999 V2000
   -5.8060  -11.0555   15.4272 C   0  0  2  0  0  0  0  0  0  0  0  0
   -4.9726   -9.9496   15.6954 O   0  0  0  0  0  0  0  0  0  0  0  0
   -7.1713  -10.5361   14.8880 C   0  0  1  0  0  0  0  0  0  0  0  0
   -7.9653   -9.7492   15.9761 C   0  0  2  0  0  0  0  0  0  0  0  0
   -8.2061  -10.7063   17.1723 C   0  0  2  0  0  0  0  0  0  0  0  0
   -8.9570  -10.0236   18.1894 O   0  0  0  0  0  0  0  0  0  0  0  0
   -6.7989  -11.1774   17.7218 C   0  0  2  0  0  0  0  0  0  0  0  0
   -6.0381  -11.8748   16.6459 O   0  0  0  0  0  0  0  0  0  0  0  0
   -6.9171  -12.1397   18.8989 C   0  0  0  0  0  0  0  0  0  0  0  0
   -7.5299  -13.4456   18.4976 N   0  0  0  0  0  0  0  0  0  0  0  0
   -0.6830   -9.3951   16.3034 C   0  0  2  0  0  0  0  0  0  0  0  0
    0.6588   -9.5125   16.8616 N   0  0  0  0  0  0  0  0  0  0  0  0
   -1.6854   -8.8350   17.3976 C   0  0  0  0  0  0  0  0  0  0  0  0
   -3.1390   -8.6995   16.7948 C   0  0  2  0  0  0  0  0  0  0  0  0
   -4.0665   -8.1629   17.8271 N   0  0  0  0  0  0  0  0  0  0  0  0
   -3.6224  -10.1069   16.2624 C   0  0  2  0  0  0  0  0  0  0  0  0
   -2.5986  -10.6332   15.1799 C   0  0  2  0  0  0  0  0  0  0  0  0
   -3.0350  -11.9104   14.7039 O   0  0  0  0  0  0  0  0  0  0  0  0
   -1.1590  -10.7758   15.8060 C   0  0  1  0  0  0  0  0  0  0  0  0
   -0.2157  -11.2489   14.8037 O   0  0  0  0  0  0  0  0  0  0  0  0
   -0.4915  -12.2731   13.8801 C   0  0  2  0  0  0  0  0  0  0  0  0
   -0.2601  -13.6390   14.6109 C   0  0  2  0  0  0  0  0  0  0  0  0
   -1.1115  -13.7294   15.7079 O   0  0  0  0  0  0  0  0  0  0  0  0
    1.2442  -13.8017   15.0502 C   0  0  1  0  0  0  0  0  0  0  0  0
    1.4770  -15.1095   15.7473 N   0  0  0  0  0  0  0  0  0  0  0  0
    2.1529  -13.6835   13.7627 C   0  0  2  0  0  0  0  0  0  0  0  0
    3.5341  -13.8310   14.0982 O   0  0  0  0  0  0  0  0  0  0  0  0
    1.8765  -12.3004   13.0820 C   0  0  2  0  0  0  0  0  0  0  0  0
    0.4223  -12.1541   12.7300 O   0  0  0  0  0  0  0  0  0  0  0  0
    2.6839  -12.1262   11.8285 C   0  0  0  0  0  0  0  0  0  0  0  0
    2.1809  -12.9513   10.7649 O   0  0  0  0  0  0  0  0  0  0  0  0
   -6.9135   -9.6958   13.7109 O   0  0  0  0  0  0  0  0  0  0  0  0
   -9.1662   -9.3260   15.4505 O   0  0  0  0  0  0  0  0  0  0  0  0
    4.7594   -6.9900   18.5865 N   0  0  0  0  0  0  0  0  0  0  0  0
    0.9885  -10.2130   18.0134 C   0  0  0  0  0  0  0  0  0  0  0  0
    0.1738  -10.8144   18.7047 O   0  0  0  0  0  0  0  0  0  0  0  0
    2.4981  -10.1365   18.3388 C   0  0  1  0  0  0  0  0  0  0  0  0
    2.9287   -8.6653   18.5067 C   0  0  0  0  0  0  0  0  0  0  0  0
    4.4398   -8.4160   18.5762 C   0  0  0  0  0  0  0  0  0  0  0  0
    2.7615  -10.8921   19.5426 O   0  0  0  0  0  0  0  0  0  0  0  0
  1  2  1  1  0  0  0
  1  3  1  0  0  0  0
  1  8  1  0  0  0  0
  3  4  1  0  0  0  0
  3 32  1  6  0  0  0
  4  5  1  0  0  0  0
  4 33  1  6  0  0  0
  5  6  1  1  0  0  0
  5  7  1  0  0  0  0
  7  8  1  0  0  0  0
  7  9  1  1  0  0  0
  9 10  1  0  0  0  0
 11 12  1  1  0  0  0
 11 13  1  0  0  0  0
 11 19  1  0  0  0  0
 12 35  1  0  0  0  0
 13 14  1  0  0  0  0
 14 15  1  1  0  0  0
 14 16  1  0  0  0  0
 16  2  1  6  0  0  0
 16 17  1  0  0  0  0
 17 18  1  1  0  0  0
 17 19  1  0  0  0  0
 19 20  1  6  0  0  0
 21 20  1  1  0  0  0
 21 22  1  0  0  0  0
 21 29  1  0  0  0  0
 22 23  1  1  0  0  0
 22 24  1  0  0  0  0
 24 25  1  6  0  0  0
 24 26  1  0  0  0  0
 26 27  1  1  0  0  0
 26 28  1  0  0  0  0
 28 29  1  0  0  0  0
 28 30  1  6  0  0  0
 30 31  1  0  0  0  0
 34 39  1  0  0  0  0
 35 36  2  0  0  0  0
 37 35  1  1  0  0  0
 37 38  1  0  0  0  0
 37 40  1  0  0  0  0
 38 39  1  0  0  0  0
M  END
>  <CHROM.1>
177.89899404,66.36994808,54.61639153,-164.69911139,-162.20033353,-81.95554051
72.64669062,58.34716050,-169.18772339,173.69983693,-1.86016385,-11.03379489
16.02069775,3.00751847,-0.00947358,0.93000420

>  <Name>
2g5q_lig

>  <RI>
0

>  <Rbt.Current_Directory>
/home/itssahil/PROJECTS/Mol_Feturizer/New_Systems/rnas/2g5q

>  <Rbt.Executable>
rbdock ($Id: //depot/dev/client3/rdock/2013.1/src/exe/rbdock.cxx#4 $)

>  <Rbt.Library>
libRbt.so (2013.1, Build901 2013/11/27)

>  <Rbt.Parameter_File>
/export/apps/rDock/src/rDock_2013.1_src/data/scripts/dock_solv.prm

>  <Rbt.Receptor>
prm/pocket_docking_5.prm

>  <SCORE>
-15.7455

>  <SCORE.INTER>
-9.82601

>  <SCORE.INTER.CONST>
1

>  <SCORE.INTER.POLAR>
-1.62127

>  <SCORE.INTER.ROT>
10

>  <SCORE.INTER.SOLV>
16.186

>  <SCORE.INTER.VDW>
-16.8084

>  <SCORE.INTER.norm>
-0.24565

>  <SCORE.INTRA>
-5.91953

>  <SCORE.INTRA.DIHEDRAL>
-15.7735

>  <SCORE.INTRA.DIHEDRAL.0>
22.5778

>  <SCORE.INTRA.POLAR>
0

>  <SCORE.INTRA.POLAR.0>
0

>  <SCORE.INTRA.REPUL>
0

>  <SCORE.INTRA.REPUL.0>
0

>  <SCORE.INTRA.SOLV>
0.538227

>  <SCORE.INTRA.SOLV.lig_0>
-102.332

>  <SCORE.INTRA.VDW>
1.69812

>  <SCORE.INTRA.VDW.0>
-5.08747

>  <SCORE.INTRA.norm>
-0.147988

>  <SCORE.RESTR>
0

>  <SCORE.RESTR.CAVITY>
0

>  <SCORE.RESTR.norm>
0

>  <SCORE.SYSTEM>
0

>  <SCORE.SYSTEM.CONST>
0

>  <SCORE.SYSTEM.DIHEDRAL>
0

>  <SCORE.SYSTEM.SOLV>
0

>  <SCORE.SYSTEM.norm>
0

>  <SCORE.heavy>
40

>  <SCORE.norm>
-0.393639

>  <RMSD>
8.566

$$$$
2g5q_lig
 OpenBabel11021811433D
libRbt.so/2013.1/901 2013/11/27
 40 42  0  0  0  0  0  0  0  0999 V2000
   -6.1418  -10.2510   16.1646 C   0  0  2  0  0  0  0  0  0  0  0  0
   -4.8826  -10.2743   15.5296 O   0  0  0  0  0  0  0  0  0  0  0  0
   -7.1214  -11.1648   15.3709 C   0  0  1  0  0  0  0  0  0  0  0  0
   -7.4291  -10.5941   13.9520 C   0  0  2  0  0  0  0  0  0  0  0  0
   -8.0570   -9.1877   14.1326 C   0  0  2  0  0  0  0  0  0  0  0  0
   -8.3769   -8.6362   12.8450 O   0  0  0  0  0  0  0  0  0  0  0  0
   -7.0177   -8.2753   14.9015 C   0  0  2  0  0  0  0  0  0  0  0  0
   -6.6974   -8.8735   16.2291 O   0  0  0  0  0  0  0  0  0  0  0  0
   -7.5401   -6.8638   15.1475 C   0  0  0  0  0  0  0  0  0  0  0  0
   -6.5518   -6.0207   15.8918 N   0  0  0  0  0  0  0  0  0  0  0  0
   -0.8630   -9.0731   16.7449 C   0  0  2  0  0  0  0  0  0  0  0  0
    0.3845   -8.9862   17.4946 N   0  0  0  0  0  0  0  0  0  0  0  0
   -2.0883   -8.6771   17.6710 C   0  0  0  0  0  0  0  0  0  0  0  0
   -3.4412   -8.7630   16.8607 C   0  0  2  0  0  0  0  0  0  0  0  0
   -4.5807   -8.3786   17.7369 N   0  0  0  0  0  0  0  0  0  0  0  0
   -3.6221  -10.2256   16.2898 C   0  0  2  0  0  0  0  0  0  0  0  0
   -2.3828  -10.5850   15.3778 C   0  0  2  0  0  0  0  0  0  0  0  0
   -2.5456  -11.9120   14.8672 O   0  0  0  0  0  0  0  0  0  0  0  0
   -1.0457  -10.5083   16.2094 C   0  0  1  0  0  0  0  0  0  0  0  0
    0.0951  -10.8277   15.3640 O   0  0  0  0  0  0  0  0  0  0  0  0
    0.5773   -9.9938   14.3392 C   0  0  2  0  0  0  0  0  0  0  0  0
    1.3956  -10.8909   13.3499 C   0  0  2  0  0  0  0  0  0  0  0  0
    0.5680  -11.8791   12.8255 O   0  0  0  0  0  0  0  0  0  0  0  0
    2.6498  -11.5255   14.0618 C   0  0  1  0  0  0  0  0  0  0  0  0
    3.4430  -12.3833   13.1208 N   0  0  0  0  0  0  0  0  0  0  0  0
    3.5400  -10.3534   14.6369 C   0  0  2  0  0  0  0  0  0  0  0  0
    4.7015  -10.8689   15.2907 O   0  0  0  0  0  0  0  0  0  0  0  0
    2.6673   -9.4983   15.6166 C   0  0  2  0  0  0  0  0  0  0  0  0
    1.4492   -8.9577   14.9210 O   0  0  0  0  0  0  0  0  0  0  0  0
    3.4382   -8.3412   16.1827 C   0  0  0  0  0  0  0  0  0  0  0  0
    4.5659   -8.7916   16.9510 O   0  0  0  0  0  0  0  0  0  0  0  0
   -6.5323  -12.5078   15.2839 O   0  0  0  0  0  0  0  0  0  0  0  0
   -8.3076  -11.4323   13.3017 O   0  0  0  0  0  0  0  0  0  0  0  0
    4.1615   -8.1116   21.0906 N   0  0  0  0  0  0  0  0  0  0  0  0
    0.6839   -9.7131   18.6384 C   0  0  0  0  0  0  0  0  0  0  0  0
   -0.0828  -10.5165   19.1580 O   0  0  0  0  0  0  0  0  0  0  0  0
    2.0879   -9.3841   19.1960 C   0  0  1  0  0  0  0  0  0  0  0  0
    2.1408   -7.9148   19.6614 C   0  0  0  0  0  0  0  0  0  0  0  0
    3.5342   -7.3712   19.9979 C   0  0  0  0  0  0  0  0  0  0  0  0
    2.3856  -10.2827   20.2884 O   0  0  0  0  0  0  0  0  0  0  0  0
  1  2  1  6  0  0  0
  1  3  1  0  0  0  0
  1  8  1  0  0  0  0
  3  4  1  0  0  0  0
  3 32  1  6  0  0  0
  4  5  1  0  0  0  0
  4 33  1  1  0  0  0
  5  6  1  6  0  0  0
  5  7  1  0  0  0  0
  7  8  1  0  0  0  0
  7  9  1  1  0  0  0
  9 10  1  0  0  0  0
 11 12  1  1  0  0  0
 11 13  1  0  0  0  0
 11 19  1  0  0  0  0
 12 35  1  0  0  0  0
 13 14  1  0  0  0  0
 14 15  1  1  0  0  0
 14 16  1  0  0  0  0
 16  2  1  6  0  0  0
 16 17  1  0  0  0  0
 17 18  1  1  0  0  0
 17 19  1  0  0  0  0
 19 20  1  6  0  0  0
 21 20  1  1  0  0  0
 21 22  1  0  0  0  0
 21 29  1  0  0  0  0
 22 23  1  1  0  0  0
 22 24  1  0  0  0  0
 24 25  1  6  0  0  0
 24 26  1  0  0  0  0
 26 27  1  1  0  0  0
 26 28  1  0  0  0  0
 28 29  1  0  0  0  0
 28 30  1  6  0  0  0
 30 31  1  0  0  0  0
 34 39  1  0  0  0  0
 35 36  2  0  0  0  0
 37 35  1  1  0  0  0
 37 38  1  0  0  0  0
 37 40  1  0  0  0  0
 38 39  1  0  0  0  0
M  END
>  <CHROM.1>
-144.09865756,179.22677409,59.98127218,-72.40379168,-49.03825399,-158.38595874
-61.83191382,64.50916634,-169.19760511,-60.94741844,-1.52492697,-9.74427535
16.05465157,2.94897005,0.11848215,-2.09946578

>  <Name>
2g5q_lig

>  <RI>
2.47104e+07

>  <Rbt.Current_Directory>
/home/itssahil/PROJECTS/Mol_Feturizer/New_Systems/rnas/2g5q

>  <Rbt.Executable>
rbdock ($Id: //depot/dev/client3/rdock/2013.1/src/exe/rbdock.cxx#4 $)

>  <Rbt.Library>
libRbt.so (2013.1, Build901 2013/11/27)

>  <Rbt.Parameter_File>
/export/apps/rDock/src/rDock_2013.1_src/data/scripts/dock_solv.prm

>  <Rbt.Receptor>
prm/pocket_docking_7.prm

>  <SCORE>
-15.1795

>  <SCORE.INTER>
-11.1518

>  <SCORE.INTER.CONST>
1

>  <SCORE.INTER.POLAR>
-0.934431

>  <SCORE.INTER.ROT>
10

>  <SCORE.INTER.SOLV>
16.4321

>  <SCORE.INTER.VDW>
-20.0638

>  <SCORE.INTER.norm>
-0.278795

>  <SCORE.INTRA>
-4.02764

>  <SCORE.INTRA.DIHEDRAL>
-13.2434

>  <SCORE.INTRA.DIHEDRAL.0>
22.5778

>  <SCORE.INTRA.POLAR>
0

>  <SCORE.INTRA.POLAR.0>
0

>  <SCORE.INTRA.REPUL>
0

>  <SCORE.INTRA.REPUL.0>
0

>  <SCORE.INTRA.SOLV>
5.80926

>  <SCORE.INTRA.SOLV.lig_0>
-102.332

>  <SCORE.INTRA.VDW>
-0.31055

>  <SCORE.INTRA.VDW.0>
-5.08747

>  <SCORE.INTRA.norm>
-0.100691

>  <SCORE.RESTR>
0

>  <SCORE.RESTR.CAVITY>
0

>  <SCORE.RESTR.norm>
0

>  <SCORE.SYSTEM>
0

>  <SCORE.SYSTEM.CONST>
0

>  <SCORE.SYSTEM.DIHEDRAL>
0

>  <SCORE.SYSTEM.SOLV>
0

>  <SCORE.SYSTEM.norm>
0

>  <SCORE.heavy>
40

>  <SCORE.norm>
-0.379486

>  <RMSD>
8.566

$$$$
2g5q_lig
 OpenBabel11021811433D
libRbt.so/2013.1/901 2013/11/27
 40 42  0  0  0  0  0  0  0  0999 V2000
   -5.1516   -8.1967   16.2404 C   0  0  2  0  0  0  0  0  0  0  0  0
   -5.1738   -8.2815   17.6481 O   0  0  0  0  0  0  0  0  0  0  0  0
   -6.2474   -7.1902   15.7808 C   0  0  1  0  0  0  0  0  0  0  0  0
   -7.6845   -7.7173   16.0818 C   0  0  2  0  0  0  0  0  0  0  0  0
   -7.8630   -9.0626   15.3313 C   0  0  2  0  0  0  0  0  0  0  0  0
   -9.1865   -9.5705   15.5654 O   0  0  0  0  0  0  0  0  0  0  0  0
   -6.7635  -10.0727   15.8554 C   0  0  2  0  0  0  0  0  0  0  0  0
   -5.4017   -9.5186   15.6078 O   0  0  0  0  0  0  0  0  0  0  0  0
   -6.8376  -11.4332   15.1704 C   0  0  0  0  0  0  0  0  0  0  0  0
   -6.0113  -12.4632   15.8762 N   0  0  0  0  0  0  0  0  0  0  0  0
   -0.9229   -8.3489   18.6496 C   0  0  2  0  0  0  0  0  0  0  0  0
    0.3132   -8.4337   19.4181 N   0  0  0  0  0  0  0  0  0  0  0  0
   -1.8070   -7.1369   19.1647 C   0  0  0  0  0  0  0  0  0  0  0  0
   -3.1441   -7.0369   18.3300 C   0  0  2  0  0  0  0  0  0  0  0  0
   -3.9586   -5.8902   18.8152 N   0  0  0  0  0  0  0  0  0  0  0  0
   -3.9401   -8.3975   18.4443 C   0  0  2  0  0  0  0  0  0  0  0  0
   -3.0275   -9.5793   17.9272 C   0  0  2  0  0  0  0  0  0  0  0  0
   -3.7479  -10.8108   18.0375 O   0  0  0  0  0  0  0  0  0  0  0  0
   -1.7068   -9.6709   18.7831 C   0  0  1  0  0  0  0  0  0  0  0  0
   -0.8626  -10.7521   18.2969 O   0  0  0  0  0  0  0  0  0  0  0  0
   -0.4627  -10.9009   16.9566 C   0  0  2  0  0  0  0  0  0  0  0  0
   -0.4312  -12.4353   16.6437 C   0  0  2  0  0  0  0  0  0  0  0  0
   -1.6990  -12.9753   16.8371 O   0  0  0  0  0  0  0  0  0  0  0  0
    0.6382  -13.1756   17.5330 C   0  0  1  0  0  0  0  0  0  0  0  0
    0.6792  -14.6457   17.2373 N   0  0  0  0  0  0  0  0  0  0  0  0
    2.0479  -12.5116   17.2700 C   0  0  2  0  0  0  0  0  0  0  0  0
    3.0644  -13.1485   18.0467 O   0  0  0  0  0  0  0  0  0  0  0  0
    1.9501  -10.9843   17.6022 C   0  0  2  0  0  0  0  0  0  0  0  0
    0.8807  -10.3213   16.7795 O   0  0  0  0  0  0  0  0  0  0  0  0
    3.2482  -10.2751   17.3463 C   0  0  0  0  0  0  0  0  0  0  0  0
    4.2835  -10.7494   18.2226 O   0  0  0  0  0  0  0  0  0  0  0  0
   -6.0047   -5.9055   16.4506 O   0  0  0  0  0  0  0  0  0  0  0  0
   -8.6110   -6.7967   15.6442 O   0  0  0  0  0  0  0  0  0  0  0  0
    3.3944   -4.6230   21.0960 N   0  0  0  0  0  0  0  0  0  0  0  0
    1.5696   -8.0662   18.9571 C   0  0  0  0  0  0  0  0  0  0  0  0
    1.7842   -7.6293   17.8318 O   0  0  0  0  0  0  0  0  0  0  0  0
    2.6743   -8.2853   20.0165 C   0  0  1  0  0  0  0  0  0  0  0  0
    2.8155   -7.0295   20.9003 C   0  0  0  0  0  0  0  0  0  0  0  0
    3.3341   -5.7714   20.1941 C   0  0  0  0  0  0  0  0  0  0  0  0
    2.3414   -9.4435   20.8146 O   0  0  0  0  0  0  0  0  0  0  0  0
  1  2  1  1  0  0  0
  1  3  1  0  0  0  0
  1  8  1  0  0  0  0
  3  4  1  0  0  0  0
  3 32  1  1  0  0  0
  4  5  1  0  0  0  0
  4 33  1  6  0  0  0
  5  6  1  1  0  0  0
  5  7  1  0  0  0  0
  7  8  1  0  0  0  0
  7  9  1  6  0  0  0
  9 10  1  0  0  0  0
 11 12  1  1  0  0  0
 11 13  1  0  0  0  0
 11 19  1  0  0  0  0
 12 35  1  0  0  0  0
 13 14  1  0  0  0  0
 14 15  1  1  0  0  0
 14 16  1  0  0  0  0
 16  2  1  6  0  0  0
 16 17  1  0  0  0  0
 17 18  1  1  0  0  0
 17 19  1  0  0  0  0
 19 20  1  6  0  0  0
 21 20  1  1  0  0  0
 21 22  1  0  0  0  0
 21 29  1  0  0  0  0
 22 23  1  1  0  0  0
 22 24  1  0  0  0  0
 24 25  1  6  0  0  0
 24 26  1  0  0  0  0
 26 27  1  1  0  0  0
 26 28  1  0  0  0  0
 28 29  1  0  0  0  0
 28 30  1  6  0  0  0
 30 31  1  0  0  0  0
 34 39  1  0  0  0  0
 35 36  2  0  0  0  0
 37 35  1  6  0  0  0
 37 38  1  0  0  0  0
 37 40  1  0  0  0  0
 38 39  1  0  0  0  0
M  END
>  <CHROM.1>
-141.60577471,-167.21418092,-105.94344531,68.15822518,-66.59919914,-143.91315659
-64.53554657,-88.51227535,-66.33885297,178.14579487,-1.80010346,-9.39317410
17.67592279,3.12604539,0.30349454,-2.80231878

>  <Name>
2g5q_lig

>  <RI>
9.52566e+06

>  <Rbt.Current_Directory>
/home/itssahil/PROJECTS/Mol_Feturizer/New_Systems/rnas/2g5q

>  <Rbt.Executable>
rbdock ($Id: //depot/dev/client3/rdock/2013.1/src/exe/rbdock.cxx#4 $)

>  <Rbt.Library>
libRbt.so (2013.1, Build901 2013/11/27)

>  <Rbt.Parameter_File>
/export/apps/rDock/src/rDock_2013.1_src/data/scripts/dock_solv.prm

>  <Rbt.Receptor>
prm/pocket_docking_4.prm

>  <SCORE>
-9.37234

>  <SCORE.INTER>
-5.36421

>  <SCORE.INTER.CONST>
1

>  <SCORE.INTER.POLAR>
-0.874053

>  <SCORE.INTER.ROT>
10

>  <SCORE.INTER.SOLV>
17.7604

>  <SCORE.INTER.VDW>
-16.8494

>  <SCORE.INTER.norm>
-0.134105

>  <SCORE.INTRA>
-4.029

>  <SCORE.INTRA.DIHEDRAL>
-8.78904

>  <SCORE.INTRA.DIHEDRAL.0>
22.5778

>  <SCORE.INTRA.POLAR>
0

>  <SCORE.INTRA.POLAR.0>
0

>  <SCORE.INTRA.REPUL>
0.00116675

>  <SCORE.INTRA.REPUL.0>
0

>  <SCORE.INTRA.SOLV>
3.22769

>  <SCORE.INTRA.SOLV.lig_0>
-102.332

>  <SCORE.INTRA.VDW>
-1.25416

>  <SCORE.INTRA.VDW.0>
-5.08747

>  <SCORE.INTRA.norm>
-0.100725

>  <SCORE.RESTR>
0.020866

>  <SCORE.RESTR.CAVITY>
0.020866

>  <SCORE.RESTR.norm>
0.00052165

>  <SCORE.SYSTEM>
0

>  <SCORE.SYSTEM.CONST>
0

>  <SCORE.SYSTEM.DIHEDRAL>
0

>  <SCORE.SYSTEM.SOLV>
0

>  <SCORE.SYSTEM.norm>
0

>  <SCORE.heavy>
40

>  <SCORE.norm>
-0.234308

>  <RMSD>
8.576

$$$$
2g5q_lig
 OpenBabel11021811433D
libRbt.so/2013.1/901 2013/11/27
 40 42  0  0  0  0  0  0  0  0999 V2000
   -5.6346  -10.9939   15.2449 C   0  0  2  0  0  0  0  0  0  0  0  0
   -4.8366   -9.9432   15.7438 O   0  0  0  0  0  0  0  0  0  0  0  0
   -7.0305  -10.4234   14.8569 C   0  0  1  0  0  0  0  0  0  0  0  0
   -7.8273   -9.9352   16.1061 C   0  0  2  0  0  0  0  0  0  0  0  0
   -8.0043  -11.1461   17.0586 C   0  0  2  0  0  0  0  0  0  0  0  0
   -8.7558  -10.7415   18.2144 O   0  0  0  0  0  0  0  0  0  0  0  0
   -6.5681  -11.6702   17.4669 C   0  0  2  0  0  0  0  0  0  0  0  0
   -5.8075  -12.0753   16.2503 O   0  0  0  0  0  0  0  0  0  0  0  0
   -6.6228  -12.8768   18.3978 C   0  0  0  0  0  0  0  0  0  0  0  0
   -5.2608  -13.2904   18.8621 N   0  0  0  0  0  0  0  0  0  0  0  0
   -0.5288   -9.5430   16.3434 C   0  0  2  0  0  0  0  0  0  0  0  0
    0.8144   -9.7342   16.8773 N   0  0  0  0  0  0  0  0  0  0  0  0
   -1.5063   -9.0376   17.4857 C   0  0  0  0  0  0  0  0  0  0  0  0
   -2.9612   -8.8223   16.9099 C   0  0  2  0  0  0  0  0  0  0  0  0
   -3.8651   -8.3379   17.9880 N   0  0  0  0  0  0  0  0  0  0  0  0
   -3.4860  -10.1751   16.2834 C   0  0  2  0  0  0  0  0  0  0  0  0
   -2.4861  -10.6481   15.1550 C   0  0  2  0  0  0  0  0  0  0  0  0
   -2.9599  -11.8763   14.5936 O   0  0  0  0  0  0  0  0  0  0  0  0
   -1.0451  -10.8718   15.7537 C   0  0  1  0  0  0  0  0  0  0  0  0
   -0.1235  -11.2955   14.7100 O   0  0  0  0  0  0  0  0  0  0  0  0
   -0.3603  -12.3716   13.8359 C   0  0  2  0  0  0  0  0  0  0  0  0
   -0.1685  -13.6927   14.6551 C   0  0  2  0  0  0  0  0  0  0  0  0
   -1.0703  -13.7177   15.7146 O   0  0  0  0  0  0  0  0  0  0  0  0
    1.3131  -13.8314   15.1728 C   0  0  1  0  0  0  0  0  0  0  0  0
    1.5081  -15.0965   15.9550 N   0  0  0  0  0  0  0  0  0  0  0  0
    2.2811  -13.7899   13.9243 C   0  0  2  0  0  0  0  0  0  0  0  0
    3.6446  -13.9193   14.3318 O   0  0  0  0  0  0  0  0  0  0  0  0
    2.0421  -12.4486   13.1519 C   0  0  2  0  0  0  0  0  0  0  0  0
    0.6065  -12.3213   12.7246 O   0  0  0  0  0  0  0  0  0  0  0  0
    2.9076  -12.3490   11.9293 C   0  0  0  0  0  0  0  0  0  0  0  0
    2.7196  -11.0925   11.2580 O   0  0  0  0  0  0  0  0  0  0  0  0
   -6.8318   -9.3297   13.8964 O   0  0  0  0  0  0  0  0  0  0  0  0
   -9.0551   -9.4546   15.7072 O   0  0  0  0  0  0  0  0  0  0  0  0
    6.1231   -8.6123   14.7045 N   0  0  0  0  0  0  0  0  0  0  0  0
    1.9931   -9.4932   16.1853 C   0  0  0  0  0  0  0  0  0  0  0  0
    2.0364   -9.0935   15.0270 O   0  0  0  0  0  0  0  0  0  0  0  0
    3.2488   -9.8018   17.0330 C   0  0  1  0  0  0  0  0  0  0  0  0
    4.4999   -9.8338   16.1320 C   0  0  0  0  0  0  0  0  0  0  0  0
    4.9273   -8.4878   15.5355 C   0  0  0  0  0  0  0  0  0  0  0  0
    3.3813   -8.7985   18.0650 O   0  0  0  0  0  0  0  0  0  0  0  0
  1  2  1  1  0  0  0
  1  3  1  0  0  0  0
  1  8  1  0  0  0  0
  3  4  1  0  0  0  0
  3 32  1  6  0  0  0
  4  5  1  0  0  0  0
  4 33  1  6  0  0  0
  5  6  1  1  0  0  0
  5  7  1  0  0  0  0
  7  8  1  0  0  0  0
  7  9  1  1  0  0  0
  9 10  1  0  0  0  0
 11 12  1  1  0  0  0
 11 13  1  0  0  0  0
 11 19  1  0  0  0  0
 12 35  1  0  0  0  0
 13 14  1  0  0  0  0
 14 15  1  1  0  0  0
 14 16  1  0  0  0  0
 16  2  1  6  0  0  0
 16 17  1  0  0  0  0
 17 18  1  1  0  0  0
 17 19  1  0  0  0  0
 19 20  1  6  0  0  0
 21 20  1  1  0  0  0
 21 22  1  0  0  0  0
 21 29  1  0  0  0  0
 22 23  1  1  0  0  0
 22 24  1  0  0  0  0
 24 25  1  6  0  0  0
 24 26  1  0  0  0  0
 26 27  1  1  0  0  0
 26 28  1  0  0  0  0
 28 29  1  0  0  0  0
 28 30  1  6  0  0  0
 30 31  1  0  0  0  0
 34 39  1  0  0  0  0
 35 36  2  0  0  0  0
 37 35  1  6  0  0  0
 37 38  1  0  0  0  0
 37 40  1  0  0  0  0
 38 39  1  0  0  0  0
M  END
>  <CHROM.1>
175.76365911,-175.37422135,-144.98302085,-173.08562939,-171.51450666,-73.78505537
-177.68697313,166.95563617,68.40123558,179.65549610,-1.48454271,-11.02426259
15.60668649,3.02051979,0.14066558,0.55091013

>  <Name>
2g5q_lig

>  <RI>
0

>  <Rbt.Current_Directory>
/home/itssahil/PROJECTS/Mol_Feturizer/New_Systems/rnas/2g5q

>  <Rbt.Executable>
rbdock ($Id: //depot/dev/client3/rdock/2013.1/src/exe/rbdock.cxx#4 $)

>  <Rbt.Library>
libRbt.so (2013.1, Build901 2013/11/27)

>  <Rbt.Parameter_File>
/export/apps/rDock/src/rDock_2013.1_src/data/scripts/dock_solv.prm

>  <Rbt.Receptor>
prm/pocket_docking_5.prm

>  <SCORE>
-15.9161

>  <SCORE.INTER>
-7.39761

>  <SCORE.INTER.CONST>
1

>  <SCORE.INTER.POLAR>
-0.857618

>  <SCORE.INTER.ROT>
10

>  <SCORE.INTER.SOLV>
10.3867

>  <SCORE.INTER.VDW>
-15.8019

>  <SCORE.INTER.norm>
-0.18494

>  <SCORE.INTRA>
-8.51853

>  <SCORE.INTRA.DIHEDRAL>
-18.9176

>  <SCORE.INTRA.DIHEDRAL.0>
22.5778

>  <SCORE.INTRA.POLAR>
0

>  <SCORE.INTRA.POLAR.0>
0

>  <SCORE.INTRA.REPUL>
0

>  <SCORE.INTRA.REPUL.0>
0

>  <SCORE.INTRA.SOLV>
-0.507767

>  <SCORE.INTRA.SOLV.lig_0>
-102.332

>  <SCORE.INTRA.VDW>
1.19417

>  <SCORE.INTRA.VDW.0>
-5.08747

>  <SCORE.INTRA.norm>
-0.212963

>  <SCORE.RESTR>
0

>  <SCORE.RESTR.CAVITY>
0

>  <SCORE.RESTR.norm>
0

>  <SCORE.SYSTEM>
0

>  <SCORE.SYSTEM.CONST>
0

>  <SCORE.SYSTEM.DIHEDRAL>
0

>  <SCORE.SYSTEM.SOLV>
0

>  <SCORE.SYSTEM.norm>
0

>  <SCORE.heavy>
40

>  <SCORE.norm>
-0.397904

>  <RMSD>
8.581

$$$$
2g5q_lig
 OpenBabel11021811433D
libRbt.so/2013.1/901 2013/11/27
 40 42  0  0  0  0  0  0  0  0999 V2000
   -4.7494  -11.5674   19.3275 C   0  0  2  0  0  0  0  0  0  0  0  0
   -4.1798  -12.8373   19.5570 O   0  0  0  0  0  0  0  0  0  0  0  0
   -6.2725  -11.6358   19.6438 C   0  0  1  0  0  0  0  0  0  0  0  0
   -7.0349  -12.5534   18.6386 C   0  0  2  0  0  0  0  0  0  0  0  0
   -6.8224  -11.9764   17.2149 C   0  0  2  0  0  0  0  0  0  0  0  0
   -7.5304  -12.7831   16.2597 O   0  0  0  0  0  0  0  0  0  0  0  0
   -5.2694  -11.9641   16.9113 C   0  0  2  0  0  0  0  0  0  0  0  0
   -4.5587  -11.1277   17.9202 O   0  0  0  0  0  0  0  0  0  0  0  0
   -4.9420  -11.3992   15.5331 C   0  0  0  0  0  0  0  0  0  0  0  0
   -5.1549   -9.9186   15.4678 N   0  0  0  0  0  0  0  0  0  0  0  0
    0.0005  -12.1880   18.4705 C   0  0  2  0  0  0  0  0  0  0  0  0
    1.4293  -12.4109   18.2849 N   0  0  0  0  0  0  0  0  0  0  0  0
   -0.3776  -12.3024   20.0066 C   0  0  0  0  0  0  0  0  0  0  0  0
   -1.9237  -12.0544   20.2131 C   0  0  2  0  0  0  0  0  0  0  0  0
   -2.2632  -12.1533   21.6584 N   0  0  0  0  0  0  0  0  0  0  0  0
   -2.7444  -13.0986   19.3563 C   0  0  2  0  0  0  0  0  0  0  0  0
   -2.3382  -12.9576   17.8358 C   0  0  2  0  0  0  0  0  0  0  0  0
   -3.0778  -13.9082   17.0629 O   0  0  0  0  0  0  0  0  0  0  0  0
   -0.7957  -13.2240   17.6502 C   0  0  1  0  0  0  0  0  0  0  0  0
   -0.4221  -13.0814   16.2508 O   0  0  0  0  0  0  0  0  0  0  0  0
   -0.6889  -14.0430   15.2598 C   0  0  2  0  0  0  0  0  0  0  0  0
    0.0610  -15.3567   15.6663 C   0  0  2  0  0  0  0  0  0  0  0  0
   -0.4012  -15.7915   16.9047 O   0  0  0  0  0  0  0  0  0  0  0  0
    1.6209  -15.1365   15.6927 C   0  0  1  0  0  0  0  0  0  0  0  0
    2.3486  -16.3908   16.0766 N   0  0  0  0  0  0  0  0  0  0  0  0
    2.0763  -14.6398   14.2633 C   0  0  2  0  0  0  0  0  0  0  0  0
    3.4892  -14.4290   14.2230 O   0  0  0  0  0  0  0  0  0  0  0  0
    1.2945  -13.3274   13.9184 C   0  0  2  0  0  0  0  0  0  0  0  0
   -0.1904  -13.5580   13.9604 O   0  0  0  0  0  0  0  0  0  0  0  0
    1.6518  -12.8088   12.5556 C   0  0  0  0  0  0  0  0  0  0  0  0
    0.9775  -11.5713   12.2750 O   0  0  0  0  0  0  0  0  0  0  0  0
   -6.4368  -12.1126   21.0236 O   0  0  0  0  0  0  0  0  0  0  0  0
   -8.3752  -12.5666   18.9562 O   0  0  0  0  0  0  0  0  0  0  0  0
    6.7504  -11.2671   17.4246 N   0  0  0  0  0  0  0  0  0  0  0  0
    2.4326  -11.5258   18.6538 C   0  0  0  0  0  0  0  0  0  0  0  0
    2.2250  -10.4372   19.1785 O   0  0  0  0  0  0  0  0  0  0  0  0
    3.8437  -12.0581   18.3135 C   0  0  1  0  0  0  0  0  0  0  0  0
    4.9108  -11.2622   19.0921 C   0  0  0  0  0  0  0  0  0  0  0  0
    6.3686  -11.6269   18.7887 C   0  0  0  0  0  0  0  0  0  0  0  0
    3.9099  -13.4650   18.6386 O   0  0  0  0  0  0  0  0  0  0  0  0
  1  2  1  6  0  0  0
  1  3  1  0  0  0  0
  1  8  1  0  0  0  0
  3  4  1  0  0  0  0
  3 32  1  1  0  0  0
  4  5  1  0  0  0  0
  4 33  1  1  0  0  0
  5  6  1  6  0  0  0
  5  7  1  0  0  0  0
  7  8  1  0  0  0  0
  7  9  1  6  0  0  0
  9 10  1  0  0  0  0
 11 12  1  1  0  0  0
 11 13  1  0  0  0  0
 11 19  1  0  0  0  0
 12 35  1  0  0  0  0
 13 14  1  0  0  0  0
 14 15  1  1  0  0  0
 14 16  1  0  0  0  0
 16  2  1  6  0  0  0
 16 17  1  0  0  0  0
 17 18  1  6  0  0  0
 17 19  1  0  0  0  0
 19 20  1  6  0  0  0
 21 20  1  1  0  0  0
 21 22  1  0  0  0  0
 21 29  1  0  0  0  0
 22 23  1  1  0  0  0
 22 24  1  0  0  0  0
 24 25  1  6  0  0  0
 24 26  1  0  0  0  0
 26 27  1  1  0  0  0
 26 28  1  0  0  0  0
 28 29  1  0  0  0  0
 28 30  1  6  0  0  0
 30 31  1  0  0  0  0
 34 39  1  0  0  0  0
 35 36  2  0  0  0  0
 37 35  1  1  0  0  0
 37 38  1  0  0  0  0
 37 40  1  0  0  0  0
 38 39  1  0  0  0  0
M  END
>  <CHROM.1>
-179.56651174,71.67792041,-71.84838513,54.74025587,164.16902752,-61.44702985
-177.24734760,-163.54544589,-176.48903055,66.97860528,-1.05685506,-12.71774200
17.33550931,-2.94110310,0.02683461,-1.86055445

>  <Name>
2g5q_lig

>  <RI>
2.47104e+07

>  <Rbt.Current_Directory>
/home/itssahil/PROJECTS/Mol_Feturizer/New_Systems/rnas/2g5q

>  <Rbt.Executable>
rbdock ($Id: //depot/dev/client3/rdock/2013.1/src/exe/rbdock.cxx#4 $)

>  <Rbt.Library>
libRbt.so (2013.1, Build901 2013/11/27)

>  <Rbt.Parameter_File>
/export/apps/rDock/src/rDock_2013.1_src/data/scripts/dock_solv.prm

>  <Rbt.Receptor>
prm/pocket_docking_7.prm

>  <SCORE>
-10.2943

>  <SCORE.INTER>
-2.84741

>  <SCORE.INTER.CONST>
1

>  <SCORE.INTER.POLAR>
-1.45655

>  <SCORE.INTER.ROT>
10

>  <SCORE.INTER.SOLV>
10.4233

>  <SCORE.INTER.VDW>
-10.7842

>  <SCORE.INTER.norm>
-0.0711851

>  <SCORE.INTRA>
-7.44691

>  <SCORE.INTRA.DIHEDRAL>
-19.2931

>  <SCORE.INTRA.DIHEDRAL.0>
22.5778

>  <SCORE.INTRA.POLAR>
0

>  <SCORE.INTRA.POLAR.0>
0

>  <SCORE.INTRA.REPUL>
0

>  <SCORE.INTRA.REPUL.0>
0

>  <SCORE.INTRA.SOLV>
1.96775

>  <SCORE.INTRA.SOLV.lig_0>
-102.332

>  <SCORE.INTRA.VDW>
1.21576

>  <SCORE.INTRA.VDW.0>
-5.08747

>  <SCORE.INTRA.norm>
-0.186173

>  <SCORE.RESTR>
0

>  <SCORE.RESTR.CAVITY>
0

>  <SCORE.RESTR.norm>
0

>  <SCORE.SYSTEM>
0

>  <SCORE.SYSTEM.CONST>
0

>  <SCORE.SYSTEM.DIHEDRAL>
0

>  <SCORE.SYSTEM.SOLV>
0

>  <SCORE.SYSTEM.norm>
0

>  <SCORE.heavy>
40

>  <SCORE.norm>
-0.257358

>  <RMSD>
8.581

$$$$
2g5q_lig
 OpenBabel11021811433D
libRbt.so/2013.1/901 2013/11/27
 40 42  0  0  0  0  0  0  0  0999 V2000
   -5.8888   -9.7666   16.3823 C   0  0  2  0  0  0  0  0  0  0  0  0
   -4.6647   -9.7457   15.6818 O   0  0  0  0  0  0  0  0  0  0  0  0
   -6.9478  -10.5149   15.5202 C   0  0  1  0  0  0  0  0  0  0  0  0
   -7.2977   -9.7303   14.2180 C   0  0  2  0  0  0  0  0  0  0  0  0
   -7.8496   -8.3422   14.6346 C   0  0  2  0  0  0  0  0  0  0  0  0
   -8.2061   -7.5955   13.4599 O   0  0  0  0  0  0  0  0  0  0  0  0
   -6.7321   -7.5940   15.4686 C   0  0  2  0  0  0  0  0  0  0  0  0
   -6.3755   -8.3929   16.6759 O   0  0  0  0  0  0  0  0  0  0  0  0
   -7.1753   -6.2147   15.9446 C   0  0  0  0  0  0  0  0  0  0  0  0
   -8.3817   -6.2863   16.8285 N   0  0  0  0  0  0  0  0  0  0  0  0
   -0.5209   -8.9693   16.8235 C   0  0  2  0  0  0  0  0  0  0  0  0
    0.7644   -9.0650   17.5052 N   0  0  0  0  0  0  0  0  0  0  0  0
   -1.6714   -8.6420   17.8651 C   0  0  0  0  0  0  0  0  0  0  0  0
   -3.0646   -8.5304   17.1297 C   0  0  2  0  0  0  0  0  0  0  0  0
   -4.1328   -8.2122   18.1155 N   0  0  0  0  0  0  0  0  0  0  0  0
   -3.3685   -9.8814   16.3677 C   0  0  2  0  0  0  0  0  0  0  0  0
   -2.2009  -10.1754   15.3444 C   0  0  2  0  0  0  0  0  0  0  0  0
   -2.4750  -11.4022   14.6603 O   0  0  0  0  0  0  0  0  0  0  0  0
   -0.8232  -10.2982   16.1004 C   0  0  1  0  0  0  0  0  0  0  0  0
    0.2521  -10.5568   15.1543 O   0  0  0  0  0  0  0  0  0  0  0  0
    1.5503  -10.9532   15.5225 C   0  0  2  0  0  0  0  0  0  0  0  0
    2.4508  -10.8570   14.2446 C   0  0  2  0  0  0  0  0  0  0  0  0
    2.4555   -9.5464   13.7769 O   0  0  0  0  0  0  0  0  0  0  0  0
    1.9601  -11.8525   13.1263 C   0  0  1  0  0  0  0  0  0  0  0  0
    2.8194  -11.7710   11.8994 N   0  0  0  0  0  0  0  0  0  0  0  0
    1.9735  -13.3156   13.7236 C   0  0  2  0  0  0  0  0  0  0  0  0
    1.5432  -14.2681   12.7491 O   0  0  0  0  0  0  0  0  0  0  0  0
    1.0564  -13.3450   14.9927 C   0  0  2  0  0  0  0  0  0  0  0  0
    1.5169  -12.3424   16.0137 O   0  0  0  0  0  0  0  0  0  0  0  0
    1.0422  -14.7006   15.6375 C   0  0  0  0  0  0  0  0  0  0  0  0
    0.4160  -15.6759   14.7880 O   0  0  0  0  0  0  0  0  0  0  0  0
   -6.4271  -11.8525   15.2073 O   0  0  0  0  0  0  0  0  0  0  0  0
   -8.2453  -10.4289   13.5029 O   0  0  0  0  0  0  0  0  0  0  0  0
    6.0150   -9.3981   16.9631 N   0  0  0  0  0  0  0  0  0  0  0  0
    1.3709   -8.0403   18.2182 C   0  0  0  0  0  0  0  0  0  0  0  0
    0.8890   -6.9206   18.3499 O   0  0  0  0  0  0  0  0  0  0  0  0
    2.7331   -8.4628   18.8153 C   0  0  1  0  0  0  0  0  0  0  0  0
    3.7856   -8.5864   17.6949 C   0  0  0  0  0  0  0  0  0  0  0  0
    5.1352   -9.1835   18.1102 C   0  0  0  0  0  0  0  0  0  0  0  0
    3.1406   -7.4875   19.8011 O   0  0  0  0  0  0  0  0  0  0  0  0
  1  2  1  6  0  0  0
  1  3  1  0  0  0  0
  1  8  1  0  0  0  0
  3  4  1  0  0  0  0
  3 32  1  6  0  0  0
  4  5  1  0  0  0  0
  4 33  1  1  0  0  0
  5  6  1  6  0  0  0
  5  7  1  0  0  0  0
  7  8  1  0  0  0  0
  7  9  1  1  0  0  0
  9 10  1  0  0  0  0
 11 12  1  1  0  0  0
 11 13  1  0  0  0  0
 11 19  1  0  0  0  0
 12 35  1  0  0  0  0
 13 14  1  0  0  0  0
 14 15  1  1  0  0  0
 14 16  1  0  0  0  0
 16  2  1  6  0  0  0
 16 17  1  0  0  0  0
 17 18  1  1  0  0  0
 17 19  1  0  0  0  0
 19 20  1  6  0  0  0
 21 20  1  6  0  0  0
 21 22  1  0  0  0  0
 21 29  1  0  0  0  0
 22 23  1  6  0  0  0
 22 24  1  0  0  0  0
 24 25  1  6  0  0  0
 24 26  1  0  0  0  0
 26 27  1  6  0  0  0
 26 28  1  0  0  0  0
 28 29  1  0  0  0  0
 28 30  1  1  0  0  0
 30 31  1  0  0  0  0
 34 39  1  0  0  0  0
 35 36  2  0  0  0  0
 37 35  1  6  0  0  0
 37 38  1  0  0  0  0
 37 40  1  0  0  0  0
 38 39  1  0  0  0  0
M  END
>  <CHROM.1>
-143.04426004,60.13393187,-60.92453109,-73.58814230,72.47846204,-169.43275233
-66.46232326,72.23367589,-171.94357160,173.74896695,-1.50722668,-9.99707931
15.80486522,3.01303542,-0.17502459,0.65078290

>  <Name>
2g5q_lig

>  <RI>
0

>  <Rbt.Current_Directory>
/home/itssahil/PROJECTS/Mol_Feturizer/New_Systems/rnas/2g5q

>  <Rbt.Executable>
rbdock ($Id: //depot/dev/client3/rdock/2013.1/src/exe/rbdock.cxx#4 $)

>  <Rbt.Library>
libRbt.so (2013.1, Build901 2013/11/27)

>  <Rbt.Parameter_File>
/export/apps/rDock/src/rDock_2013.1_src/data/scripts/dock_solv.prm

>  <Rbt.Receptor>
prm/pocket_docking_5.prm

>  <SCORE>
-20.7089

>  <SCORE.INTER>
-15.5725

>  <SCORE.INTER.CONST>
1

>  <SCORE.INTER.POLAR>
-1.66136

>  <SCORE.INTER.ROT>
10

>  <SCORE.INTER.SOLV>
15.7262

>  <SCORE.INTER.VDW>
-20.3526

>  <SCORE.INTER.norm>
-0.389314

>  <SCORE.INTRA>
-5.33923

>  <SCORE.INTRA.DIHEDRAL>
-14.0353

>  <SCORE.INTRA.DIHEDRAL.0>
22.5778

>  <SCORE.INTRA.POLAR>
0

>  <SCORE.INTRA.POLAR.0>
0

>  <SCORE.INTRA.REPUL>
0

>  <SCORE.INTRA.REPUL.0>
0

>  <SCORE.INTRA.SOLV>
2.08729

>  <SCORE.INTRA.SOLV.lig_0>
-102.332

>  <SCORE.INTRA.VDW>
0.634793

>  <SCORE.INTRA.VDW.0>
-5.08747

>  <SCORE.INTRA.norm>
-0.133481

>  <SCORE.RESTR>
0.202874

>  <SCORE.RESTR.CAVITY>
0.202874

>  <SCORE.RESTR.norm>
0.00507186

>  <SCORE.SYSTEM>
0

>  <SCORE.SYSTEM.CONST>
0

>  <SCORE.SYSTEM.DIHEDRAL>
0

>  <SCORE.SYSTEM.SOLV>
0

>  <SCORE.SYSTEM.norm>
0

>  <SCORE.heavy>
40

>  <SCORE.norm>
-0.517723

>  <RMSD>
8.597

$$$$
2g5q_lig
 OpenBabel11021811433D
libRbt.so/2013.1/901 2013/11/27
 40 42  0  0  0  0  0  0  0  0999 V2000
   -5.9924   -9.2852   16.2401 C   0  0  2  0  0  0  0  0  0  0  0  0
   -4.7604   -9.5262   15.5969 O   0  0  0  0  0  0  0  0  0  0  0  0
   -6.5911  -10.6458   16.7039 C   0  0  1  0  0  0  0  0  0  0  0  0
   -6.9922  -11.5471   15.4954 C   0  0  2  0  0  0  0  0  0  0  0  0
   -8.0415  -10.7740   14.6549 C   0  0  2  0  0  0  0  0  0  0  0  0
   -8.4546  -11.5828   13.5416 O   0  0  0  0  0  0  0  0  0  0  0  0
   -7.3844   -9.4207   14.1640 C   0  0  2  0  0  0  0  0  0  0  0  0
   -6.9580   -8.6053   15.3371 O   0  0  0  0  0  0  0  0  0  0  0  0
   -8.3385   -8.5684   13.3341 C   0  0  0  0  0  0  0  0  0  0  0  0
   -9.5466   -8.1547   14.1158 N   0  0  0  0  0  0  0  0  0  0  0  0
   -0.6487   -9.0679   16.9972 C   0  0  2  0  0  0  0  0  0  0  0  0
    0.5849   -9.2705   17.7476 N   0  0  0  0  0  0  0  0  0  0  0  0
   -1.8342   -8.6923   17.9817 C   0  0  0  0  0  0  0  0  0  0  0  0
   -3.1711   -8.4648   17.1721 C   0  0  2  0  0  0  0  0  0  0  0  0
   -4.2720   -8.1024   18.1052 N   0  0  0  0  0  0  0  0  0  0  0  0
   -3.5189   -9.7696   16.3508 C   0  0  2  0  0  0  0  0  0  0  0  0
   -2.3152  -10.1137   15.3867 C   0  0  2  0  0  0  0  0  0  0  0  0
   -2.6296  -11.2989   14.6488 O   0  0  0  0  0  0  0  0  0  0  0  0
   -0.9956  -10.3519   16.2156 C   0  0  1  0  0  0  0  0  0  0  0  0
    0.1140  -10.6564   15.3244 O   0  0  0  0  0  0  0  0  0  0  0  0
    1.3358  -11.2118   15.7449 C   0  0  2  0  0  0  0  0  0  0  0  0
    2.4033  -10.8839   14.6467 C   0  0  2  0  0  0  0  0  0  0  0  0
    2.5174   -9.5041   14.5067 O   0  0  0  0  0  0  0  0  0  0  0  0
    2.0330  -11.5609   13.2730 C   0  0  1  0  0  0  0  0  0  0  0  0
    3.0523  -11.2563   12.2154 N   0  0  0  0  0  0  0  0  0  0  0  0
    1.9138  -13.1197   13.5040 C   0  0  2  0  0  0  0  0  0  0  0  0
    1.5855  -13.7919   12.2864 O   0  0  0  0  0  0  0  0  0  0  0  0
    0.8334  -13.3796   14.6075 C   0  0  2  0  0  0  0  0  0  0  0  0
    1.1872  -12.6714   15.8854 O   0  0  0  0  0  0  0  0  0  0  0  0
    0.6844  -14.8432   14.9063 C   0  0  0  0  0  0  0  0  0  0  0  0
    0.2375  -15.5691   13.7494 O   0  0  0  0  0  0  0  0  0  0  0  0
   -5.6035  -11.3175   17.5591 O   0  0  0  0  0  0  0  0  0  0  0  0
   -7.5264  -12.7279   15.9620 O   0  0  0  0  0  0  0  0  0  0  0  0
    1.7931  -11.6947   20.1536 N   0  0  0  0  0  0  0  0  0  0  0  0
    1.3076   -8.2720   18.3853 C   0  0  0  0  0  0  0  0  0  0  0  0
    0.9879   -7.0883   18.3821 O   0  0  0  0  0  0  0  0  0  0  0  0
    2.5731   -8.8161   19.0875 C   0  0  1  0  0  0  0  0  0  0  0  0
    2.2269   -9.2772   20.5177 C   0  0  0  0  0  0  0  0  0  0  0  0
    1.2245  -10.4325   20.6221 C   0  0  0  0  0  0  0  0  0  0  0  0
    3.1134   -9.9080   18.3095 O   0  0  0  0  0  0  0  0  0  0  0  0
  1  2  1  6  0  0  0
  1  3  1  0  0  0  0
  1  8  1  0  0  0  0
  3  4  1  0  0  0  0
  3 32  1  6  0  0  0
  4  5  1  0  0  0  0
  4 33  1  1  0  0  0
  5  6  1  6  0  0  0
  5  7  1  0  0  0  0
  7  8  1  0  0  0  0
  7  9  1  1  0  0  0
  9 10  1  0  0  0  0
 11 12  1  1  0  0  0
 11 13  1  0  0  0  0
 11 19  1  0  0  0  0
 12 35  1  0  0  0  0
 13 14  1  0  0  0  0
 14 15  1  1  0  0  0
 14 16  1  0  0  0  0
 16  2  1  6  0  0  0
 16 17  1  0  0  0  0
 17 18  1  1  0  0  0
 17 19  1  0  0  0  0
 19 20  1  6  0  0  0
 21 20  1  6  0  0  0
 21 22  1  0  0  0  0
 21 29  1  0  0  0  0
 22 23  1  6  0  0  0
 22 24  1  0  0  0  0
 24 25  1  6  0  0  0
 24 26  1  0  0  0  0
 26 27  1  6  0  0  0
 26 28  1  0  0  0  0
 28 29  1  0  0  0  0
 28 30  1  1  0  0  0
 30 31  1  0  0  0  0
 34 39  1  0  0  0  0
 35 36  2  0  0  0  0
 37 35  1  6  0  0  0
 37 38  1  0  0  0  0
 37 40  1  0  0  0  0
 38 39  1  0  0  0  0
M  END
>  <CHROM.1>
-79.65781170,61.64797575,-69.69529515,-63.95370620,75.70425338,-158.99375606
-62.21414089,-87.57614122,62.67687297,69.71385717,-1.85655430,-10.56441149
15.96333655,3.10189394,0.17013180,-2.25861697

>  <Name>
2g5q_lig

>  <RI>
224

>  <Rbt.Current_Directory>
/home/itssahil/PROJECTS/Mol_Feturizer/New_Systems/rnas/2g5q

>  <Rbt.Executable>
rbdock ($Id: //depot/dev/client3/rdock/2013.1/src/exe/rbdock.cxx#4 $)

>  <Rbt.Library>
libRbt.so (2013.1, Build901 2013/11/27)

>  <Rbt.Parameter_File>
/export/apps/rDock/src/rDock_2013.1_src/data/scripts/dock_solv.prm

>  <Rbt.Receptor>
prm/pocket_docking_8.prm

>  <SCORE>
-19.3251

>  <SCORE.INTER>
-14.9295

>  <SCORE.INTER.CONST>
1

>  <SCORE.INTER.POLAR>
-2.04432

>  <SCORE.INTER.ROT>
10

>  <SCORE.INTER.SOLV>
11.7039

>  <SCORE.INTER.VDW>
-17.3066

>  <SCORE.INTER.norm>
-0.373238

>  <SCORE.INTRA>
-4.39557

>  <SCORE.INTRA.DIHEDRAL>
-15.6465

>  <SCORE.INTRA.DIHEDRAL.0>
22.5778

>  <SCORE.INTRA.POLAR>
0

>  <SCORE.INTRA.POLAR.0>
0

>  <SCORE.INTRA.REPUL>
0

>  <SCORE.INTRA.REPUL.0>
0

>  <SCORE.INTRA.SOLV>
5.50375

>  <SCORE.INTRA.SOLV.lig_0>
-102.332

>  <SCORE.INTRA.VDW>
0.675828

>  <SCORE.INTRA.VDW.0>
-5.08747

>  <SCORE.INTRA.norm>
-0.109889

>  <SCORE.RESTR>
0

>  <SCORE.RESTR.CAVITY>
0

>  <SCORE.RESTR.norm>
0

>  <SCORE.SYSTEM>
0

>  <SCORE.SYSTEM.CONST>
0

>  <SCORE.SYSTEM.DIHEDRAL>
0

>  <SCORE.SYSTEM.SOLV>
0

>  <SCORE.SYSTEM.norm>
0

>  <SCORE.heavy>
40

>  <SCORE.norm>
-0.483127

>  <RMSD>
8.600

$$$$
2g5q_lig
 OpenBabel11021811433D
libRbt.so/2013.1/901 2013/11/27
 40 42  0  0  0  0  0  0  0  0999 V2000
   -2.6783  -11.3702   18.1689 C   0  0  2  0  0  0  0  0  0  0  0  0
   -1.9148  -11.6432   17.0147 O   0  0  0  0  0  0  0  0  0  0  0  0
   -3.6958  -12.5293   18.3835 C   0  0  1  0  0  0  0  0  0  0  0  0
   -4.7686  -12.5787   17.2521 C   0  0  2  0  0  0  0  0  0  0  0  0
   -5.5171  -11.2205   17.2487 C   0  0  2  0  0  0  0  0  0  0  0  0
   -6.5324  -11.2348   16.2322 O   0  0  0  0  0  0  0  0  0  0  0  0
   -4.4607  -10.0726   16.9835 C   0  0  2  0  0  0  0  0  0  0  0  0
   -3.4156  -10.0851   18.0467 O   0  0  0  0  0  0  0  0  0  0  0  0
   -5.0892   -8.6831   16.9731 C   0  0  0  0  0  0  0  0  0  0  0  0
   -5.5517   -8.2860   15.6056 N   0  0  0  0  0  0  0  0  0  0  0  0
    1.7868  -10.3139   15.1152 C   0  0  2  0  0  0  0  0  0  0  0  0
    2.8600   -9.4512   14.6360 N   0  0  0  0  0  0  0  0  0  0  0  0
    0.4031   -9.8748   14.4761 C   0  0  0  0  0  0  0  0  0  0  0  0
   -0.7614  -10.8114   14.9871 C   0  0  2  0  0  0  0  0  0  0  0  0
   -2.0511  -10.3962   14.3720 N   0  0  0  0  0  0  0  0  0  0  0  0
   -0.8311  -10.7530   16.5650 C   0  0  2  0  0  0  0  0  0  0  0  0
    0.5636  -11.1921   17.1640 C   0  0  2  0  0  0  0  0  0  0  0  0
    0.5001  -11.1324   18.5924 O   0  0  0  0  0  0  0  0  0  0  0  0
    1.7082  -10.2357   16.6540 C   0  0  1  0  0  0  0  0  0  0  0  0
    2.9934  -10.6498   17.1973 O   0  0  0  0  0  0  0  0  0  0  0  0
    3.3523  -10.5352   18.5523 C   0  0  2  0  0  0  0  0  0  0  0  0
    3.4400   -9.0077   18.8873 C   0  0  2  0  0  0  0  0  0  0  0  0
    2.2045   -8.4098   18.6579 O   0  0  0  0  0  0  0  0  0  0  0  0
    4.5712   -8.3045   18.0455 C   0  0  1  0  0  0  0  0  0  0  0  0
    4.6661   -6.8414   18.3626 N   0  0  0  0  0  0  0  0  0  0  0  0
    5.9404   -9.0333   18.3476 C   0  0  2  0  0  0  0  0  0  0  0  0
    7.0103   -8.4326   17.6151 O   0  0  0  0  0  0  0  0  0  0  0  0
    5.7875  -10.5506   17.9912 C   0  0  2  0  0  0  0  0  0  0  0  0
    4.6621  -11.1757   18.7675 O   0  0  0  0  0  0  0  0  0  0  0  0
    7.0436  -11.3196   18.2818 C   0  0  0  0  0  0  0  0  0  0  0  0
    6.9244  -12.6900   17.8663 O   0  0  0  0  0  0  0  0  0  0  0  0
   -2.9485  -13.7919   18.4586 O   0  0  0  0  0  0  0  0  0  0  0  0
   -5.6473  -13.6105   17.4987 O   0  0  0  0  0  0  0  0  0  0  0  0
    5.9635   -6.2758   12.3402 N   0  0  0  0  0  0  0  0  0  0  0  0
    4.2053   -9.7906   14.6012 C   0  0  0  0  0  0  0  0  0  0  0  0
    4.6487  -10.8682   14.9828 O   0  0  0  0  0  0  0  0  0  0  0  0
    5.0874   -8.6503   14.0427 C   0  0  1  0  0  0  0  0  0  0  0  0
    4.8359   -8.4796   12.5308 C   0  0  0  0  0  0  0  0  0  0  0  0
    5.8576   -7.6203   11.7772 C   0  0  0  0  0  0  0  0  0  0  0  0
    4.7901   -7.4291   14.7566 O   0  0  0  0  0  0  0  0  0  0  0  0
  1  2  1  6  0  0  0
  1  3  1  0  0  0  0
  1  8  1  0  0  0  0
  3  4  1  0  0  0  0
  3 32  1  6  0  0  0
  4  5  1  0  0  0  0
  4 33  1  1  0  0  0
  5  6  1  6  0  0  0
  5  7  1  0  0  0  0
  7  8  1  0  0  0  0
  7  9  1  1  0  0  0
  9 10  1  0  0  0  0
 11 12  1  6  0  0  0
 11 13  1  0  0  0  0
 11 19  1  0  0  0  0
 12 35  1  0  0  0  0
 13 14  1  0  0  0  0
 14 15  1  6  0  0  0
 14 16  1  0  0  0  0
 16  2  1  1  0  0  0
 16 17  1  0  0  0  0
 17 18  1  1  0  0  0
 17 19  1  0  0  0  0
 19 20  1  1  0  0  0
 21 20  1  6  0  0  0
 21 22  1  0  0  0  0
 21 29  1  0  0  0  0
 22 23  1  6  0  0  0
 22 24  1  0  0  0  0
 24 25  1  1  0  0  0
 24 26  1  0  0  0  0
 26 27  1  6  0  0  0
 26 28  1  0  0  0  0
 28 29  1  0  0  0  0
 28 30  1  1  0  0  0
 30 31  1  0  0  0  0
 34 39  1  0  0  0  0
 35 36  2  0  0  0  0
 37 35  1  1  0  0  0
 37 38  1  0  0  0  0
 37 40  1  0  0  0  0
 38 39  1  0  0  0  0
M  END
>  <CHROM.1>
-177.99214033,-89.60053985,-156.66177161,-147.82199085,171.11542295,-66.34978953
-176.01910304,-70.38914326,-166.39926513,-57.31787825,1.14766572,-10.15859812
16.62687580,-2.94240290,-0.12961361,-1.00557473

>  <Name>
2g5q_lig

>  <RI>
2.90231e+07

>  <Rbt.Current_Directory>
/home/itssahil/PROJECTS/Mol_Feturizer/New_Systems/rnas/2g5q

>  <Rbt.Executable>
rbdock ($Id: //depot/dev/client3/rdock/2013.1/src/exe/rbdock.cxx#4 $)

>  <Rbt.Library>
libRbt.so (2013.1, Build901 2013/11/27)

>  <Rbt.Parameter_File>
/export/apps/rDock/src/rDock_2013.1_src/data/scripts/dock_solv.prm

>  <Rbt.Receptor>
prm/pocket_docking_6.prm

>  <SCORE>
-14.2267

>  <SCORE.INTER>
-8.32751

>  <SCORE.INTER.CONST>
1

>  <SCORE.INTER.POLAR>
-3.35271

>  <SCORE.INTER.ROT>
10

>  <SCORE.INTER.SOLV>
20.6584

>  <SCORE.INTER.VDW>
-11.5288

>  <SCORE.INTER.norm>
-0.208188

>  <SCORE.INTRA>
-5.91966

>  <SCORE.INTRA.DIHEDRAL>
-13.3639

>  <SCORE.INTRA.DIHEDRAL.0>
22.5778

>  <SCORE.INTRA.POLAR>
0

>  <SCORE.INTRA.POLAR.0>
0

>  <SCORE.INTRA.REPUL>
0

>  <SCORE.INTRA.REPUL.0>
0

>  <SCORE.INTRA.SOLV>
4.11851

>  <SCORE.INTRA.SOLV.lig_0>
-102.332

>  <SCORE.INTRA.VDW>
-1.29694

>  <SCORE.INTRA.VDW.0>
-5.08747

>  <SCORE.INTRA.norm>
-0.147991

>  <SCORE.RESTR>
0.0204731

>  <SCORE.RESTR.CAVITY>
0.0204731

>  <SCORE.RESTR.norm>
0.000511827

>  <SCORE.SYSTEM>
0

>  <SCORE.SYSTEM.CONST>
0

>  <SCORE.SYSTEM.DIHEDRAL>
0

>  <SCORE.SYSTEM.SOLV>
0

>  <SCORE.SYSTEM.norm>
0

>  <SCORE.heavy>
40

>  <SCORE.norm>
-0.355667

>  <RMSD>
8.606

$$$$
2g5q_lig
 OpenBabel11021811433D
libRbt.so/2013.1/901 2013/11/27
 40 42  0  0  0  0  0  0  0  0999 V2000
   -5.0137  -11.3843   15.5332 C   0  0  2  0  0  0  0  0  0  0  0  0
   -4.2746  -10.5680   16.4147 O   0  0  0  0  0  0  0  0  0  0  0  0
   -6.4025  -10.7255   15.2842 C   0  0  1  0  0  0  0  0  0  0  0  0
   -7.2795  -10.7116   16.5742 C   0  0  2  0  0  0  0  0  0  0  0  0
   -7.4727  -12.1806   17.0321 C   0  0  2  0  0  0  0  0  0  0  0  0
   -8.2972  -12.2119   18.2084 O   0  0  0  0  0  0  0  0  0  0  0  0
   -6.0462  -12.8025   17.3188 C   0  0  2  0  0  0  0  0  0  0  0  0
   -5.2095  -12.7504   16.0860 O   0  0  0  0  0  0  0  0  0  0  0  0
   -6.1164  -14.2590   17.7655 C   0  0  0  0  0  0  0  0  0  0  0  0
   -6.9494  -14.4291   18.9979 N   0  0  0  0  0  0  0  0  0  0  0  0
    0.0523   -9.9920   16.5677 C   0  0  2  0  0  0  0  0  0  0  0  0
    1.4635  -10.2036   16.8669 N   0  0  0  0  0  0  0  0  0  0  0  0
   -0.7804   -9.8647   17.9117 C   0  0  0  0  0  0  0  0  0  0  0  0
   -2.3089   -9.6281   17.5920 C   0  0  2  0  0  0  0  0  0  0  0  0
   -3.0767   -9.4993   18.8601 N   0  0  0  0  0  0  0  0  0  0  0  0
   -2.8535  -10.8197   16.7080 C   0  0  2  0  0  0  0  0  0  0  0  0
   -1.9982  -10.9175   15.3830 C   0  0  2  0  0  0  0  0  0  0  0  0
   -2.4890  -12.0010   14.5872 O   0  0  0  0  0  0  0  0  0  0  0  0
   -0.4799  -11.1690   15.7241 C   0  0  1  0  0  0  0  0  0  0  0  0
    0.3073  -11.2463   14.5024 O   0  0  0  0  0  0  0  0  0  0  0  0
    0.0477  -12.1432   13.4506 C   0  0  2  0  0  0  0  0  0  0  0  0
    0.4970  -13.5665   13.9255 C   0  0  2  0  0  0  0  0  0  0  0  0
   -0.2220  -13.9259   15.0614 O   0  0  0  0  0  0  0  0  0  0  0  0
    2.0474  -13.6109   14.2026 C   0  0  1  0  0  0  0  0  0  0  0  0
    2.4885  -14.9718   14.6538 N   0  0  0  0  0  0  0  0  0  0  0  0
    2.8004  -13.1880   12.8791 C   0  0  2  0  0  0  0  0  0  0  0  0
    4.2168  -13.2165   13.0670 O   0  0  0  0  0  0  0  0  0  0  0  0
    2.3100  -11.7610   12.4599 C   0  0  2  0  0  0  0  0  0  0  0  0
    0.8200  -11.7399   12.2618 O   0  0  0  0  0  0  0  0  0  0  0  0
    2.9604  -11.3007   11.1877 C   0  0  0  0  0  0  0  0  0  0  0  0
    4.3677  -11.0764   11.3726 O   0  0  0  0  0  0  0  0  0  0  0  0
   -6.1837   -9.3634   14.7792 O   0  0  0  0  0  0  0  0  0  0  0  0
   -8.4973  -10.1319   16.2940 O   0  0  0  0  0  0  0  0  0  0  0  0
    5.8960  -10.8009   18.9571 N   0  0  0  0  0  0  0  0  0  0  0  0
    2.5226   -9.7649   16.0847 C   0  0  0  0  0  0  0  0  0  0  0  0
    2.3868   -9.1471   15.0343 O   0  0  0  0  0  0  0  0  0  0  0  0
    3.8958  -10.1573   16.6769 C   0  0  1  0  0  0  0  0  0  0  0  0
    4.1885   -9.3158   17.9356 C   0  0  0  0  0  0  0  0  0  0  0  0
    5.6054   -9.4410   18.5075 C   0  0  0  0  0  0  0  0  0  0  0  0
    3.8907  -11.5686   16.9891 O   0  0  0  0  0  0  0  0  0  0  0  0
  1  2  1  1  0  0  0
  1  3  1  0  0  0  0
  1  8  1  0  0  0  0
  3  4  1  0  0  0  0
  3 32  1  1  0  0  0
  4  5  1  0  0  0  0
  4 33  1  6  0  0  0
  5  6  1  1  0  0  0
  5  7  1  0  0  0  0
  7  8  1  0  0  0  0
  7  9  1  6  0  0  0
  9 10  1  0  0  0  0
 11 12  1  1  0  0  0
 11 13  1  0  0  0  0
 11 19  1  0  0  0  0
 12 35  1  0  0  0  0
 13 14  1  0  0  0  0
 14 15  1  1  0  0  0
 14 16  1  0  0  0  0
 16  2  1  6  0  0  0
 16 17  1  0  0  0  0
 17 18  1  6  0  0  0
 17 19  1  0  0  0  0
 19 20  1  6  0  0  0
 21 20  1  1  0  0  0
 21 22  1  0  0  0  0
 21 29  1  0  0  0  0
 22 23  1  1  0  0  0
 22 24  1  0  0  0  0
 24 25  1  6  0  0  0
 24 26  1  0  0  0  0
 26 27  1  1  0  0  0
 26 28  1  0  0  0  0
 28 29  1  0  0  0  0
 28 30  1  6  0  0  0
 30 31  1  0  0  0  0
 34 39  1  0  0  0  0
 35 36  2  0  0  0  0
 37 35  1  1  0  0  0
 37 38  1  0  0  0  0
 37 40  1  0  0  0  0
 38 39  1  0  0  0  0
M  END
>  <CHROM.1>
-171.64835115,-58.00117932,-148.47912160,173.57313819,-175.47894345,-73.85408975
-67.33637406,-71.63991714,-170.98101919,-62.77214379,-0.99241418,-11.44248790
15.71432903,2.98136953,0.11495788,1.11564132

>  <Name>
2g5q_lig

>  <RI>
0

>  <Rbt.Current_Directory>
/home/itssahil/PROJECTS/Mol_Feturizer/New_Systems/rnas/2g5q

>  <Rbt.Executable>
rbdock ($Id: //depot/dev/client3/rdock/2013.1/src/exe/rbdock.cxx#4 $)

>  <Rbt.Library>
libRbt.so (2013.1, Build901 2013/11/27)

>  <Rbt.Parameter_File>
/export/apps/rDock/src/rDock_2013.1_src/data/scripts/dock_solv.prm

>  <Rbt.Receptor>
prm/pocket_docking_5.prm

>  <SCORE>
-17.3204

>  <SCORE.INTER>
-9.70973

>  <SCORE.INTER.CONST>
1

>  <SCORE.INTER.POLAR>
-1.2133

>  <SCORE.INTER.ROT>
10

>  <SCORE.INTER.SOLV>
8.7024

>  <SCORE.INTER.VDW>
-15.5963

>  <SCORE.INTER.norm>
-0.242743

>  <SCORE.INTRA>
-7.61069

>  <SCORE.INTRA.DIHEDRAL>
-18.9167

>  <SCORE.INTRA.DIHEDRAL.0>
22.5778

>  <SCORE.INTRA.POLAR>
0

>  <SCORE.INTRA.POLAR.0>
0

>  <SCORE.INTRA.REPUL>
0

>  <SCORE.INTRA.REPUL.0>
0

>  <SCORE.INTRA.SOLV>
2.2973

>  <SCORE.INTRA.SOLV.lig_0>
-102.332

>  <SCORE.INTRA.VDW>
0.699017

>  <SCORE.INTRA.VDW.0>
-5.08747

>  <SCORE.INTRA.norm>
-0.190267

>  <SCORE.RESTR>
0

>  <SCORE.RESTR.CAVITY>
0

>  <SCORE.RESTR.norm>
0

>  <SCORE.SYSTEM>
0

>  <SCORE.SYSTEM.CONST>
0

>  <SCORE.SYSTEM.DIHEDRAL>
0

>  <SCORE.SYSTEM.SOLV>
0

>  <SCORE.SYSTEM.norm>
0

>  <SCORE.heavy>
40

>  <SCORE.norm>
-0.43301

>  <RMSD>
8.613

$$$$
2g5q_lig
 OpenBabel11021811433D
libRbt.so/2013.1/901 2013/11/27
 40 42  0  0  0  0  0  0  0  0999 V2000
   -6.0875  -10.5274   16.4230 C   0  0  2  0  0  0  0  0  0  0  0  0
   -4.9446  -10.7747   15.6343 O   0  0  0  0  0  0  0  0  0  0  0  0
   -7.2261  -11.4894   15.9726 C   0  0  1  0  0  0  0  0  0  0  0  0
   -7.7177  -11.1722   14.5265 C   0  0  2  0  0  0  0  0  0  0  0  0
   -8.2329   -9.7096   14.5109 C   0  0  2  0  0  0  0  0  0  0  0  0
   -8.7174   -9.3856   13.1976 O   0  0  0  0  0  0  0  0  0  0  0  0
   -7.0393   -8.7587   14.9292 C   0  0  2  0  0  0  0  0  0  0  0  0
   -6.5508   -9.1210   16.2904 O   0  0  0  0  0  0  0  0  0  0  0  0
   -7.4400   -7.2876   14.9612 C   0  0  0  0  0  0  0  0  0  0  0  0
   -8.5112   -7.0191   15.9723 N   0  0  0  0  0  0  0  0  0  0  0  0
   -0.8610   -9.3600   16.2671 C   0  0  2  0  0  0  0  0  0  0  0  0
    0.4859   -9.2281   16.8094 N   0  0  0  0  0  0  0  0  0  0  0  0
   -1.9375   -9.1114   17.4052 C   0  0  0  0  0  0  0  0  0  0  0  0
   -3.3984   -9.2462   16.8202 C   0  0  2  0  0  0  0  0  0  0  0  0
   -4.3980   -8.9999   17.8945 N   0  0  0  0  0  0  0  0  0  0  0  0
   -3.5807  -10.6807   16.1822 C   0  0  2  0  0  0  0  0  0  0  0  0
   -2.4904  -10.8926   15.0584 C   0  0  2  0  0  0  0  0  0  0  0  0
   -2.6534  -12.1943   14.4866 O   0  0  0  0  0  0  0  0  0  0  0  0
   -1.0411  -10.7694   15.6661 C   0  0  1  0  0  0  0  0  0  0  0  0
   -0.0391  -10.9528   14.6266 O   0  0  0  0  0  0  0  0  0  0  0  0
    0.0546  -12.0956   13.8122 C   0  0  2  0  0  0  0  0  0  0  0  0
    0.7724  -13.2095   14.6471 C   0  0  2  0  0  0  0  0  0  0  0  0
    0.0287  -13.4853   15.7905 O   0  0  0  0  0  0  0  0  0  0  0  0
    2.2424  -12.7827   15.0204 C   0  0  1  0  0  0  0  0  0  0  0  0
    2.9401  -13.8455   15.8166 N   0  0  0  0  0  0  0  0  0  0  0  0
    3.0263  -12.4799   13.6820 C   0  0  2  0  0  0  0  0  0  0  0  0
    4.3742  -12.0930   13.9570 O   0  0  0  0  0  0  0  0  0  0  0  0
    2.2612  -11.3609   12.8977 C   0  0  2  0  0  0  0  0  0  0  0  0
    0.8454  -11.7764   12.6102 O   0  0  0  0  0  0  0  0  0  0  0  0
    2.9311  -11.0385   11.5935 C   0  0  0  0  0  0  0  0  0  0  0  0
    4.2095  -10.4167   11.8033 O   0  0  0  0  0  0  0  0  0  0  0  0
   -6.7313  -12.8691   16.0717 O   0  0  0  0  0  0  0  0  0  0  0  0
   -8.7304  -12.0417   14.1858 O   0  0  0  0  0  0  0  0  0  0  0  0
    5.2089   -9.5483   17.3817 N   0  0  0  0  0  0  0  0  0  0  0  0
    0.9187   -8.2025   17.6383 C   0  0  0  0  0  0  0  0  0  0  0  0
    0.2070   -7.2744   18.0063 O   0  0  0  0  0  0  0  0  0  0  0  0
    2.4061   -8.3508   18.0333 C   0  0  1  0  0  0  0  0  0  0  0  0
    3.3078   -8.0541   16.8179 C   0  0  0  0  0  0  0  0  0  0  0  0
    4.8165   -8.1776   17.0604 C   0  0  0  0  0  0  0  0  0  0  0  0
    2.6979   -7.4494   19.1249 O   0  0  0  0  0  0  0  0  0  0  0  0
  1  2  1  6  0  0  0
  1  3  1  0  0  0  0
  1  8  1  0  0  0  0
  3  4  1  0  0  0  0
  3 32  1  6  0  0  0
  4  5  1  0  0  0  0
  4 33  1  1  0  0  0
  5  6  1  6  0  0  0
  5  7  1  0  0  0  0
  7  8  1  0  0  0  0
  7  9  1  1  0  0  0
  9 10  1  0  0  0  0
 11 12  1  1  0  0  0
 11 13  1  0  0  0  0
 11 19  1  0  0  0  0
 12 35  1  0  0  0  0
 13 14  1  0  0  0  0
 14 15  1  1  0  0  0
 14 16  1  0  0  0  0
 16  2  1  6  0  0  0
 16 17  1  0  0  0  0
 17 18  1  1  0  0  0
 17 19  1  0  0  0  0
 19 20  1  6  0  0  0
 21 20  1  1  0  0  0
 21 22  1  0  0  0  0
 21 29  1  0  0  0  0
 22 23  1  1  0  0  0
 22 24  1  0  0  0  0
 24 25  1  6  0  0  0
 24 26  1  0  0  0  0
 26 27  1  1  0  0  0
 26 28  1  0  0  0  0
 28 29  1  0  0  0  0
 28 30  1  6  0  0  0
 30 31  1  0  0  0  0
 34 39  1  0  0  0  0
 35 36  2  0  0  0  0
 37 35  1  6  0  0  0
 37 38  1  0  0  0  0
 37 40  1  0  0  0  0
 38 39  1  0  0  0  0
M  END
>  <CHROM.1>
-144.49779620,62.20660125,-46.00415586,-55.22505908,-176.57594312,-79.48871760
-67.36305789,71.40149406,-179.39189686,64.46826476,-1.62172122,-10.34421451
15.46841083,-3.10361749,0.03881606,-2.40472436

>  <Name>
2g5q_lig

>  <RI>
9.52566e+06

>  <Rbt.Current_Directory>
/home/itssahil/PROJECTS/Mol_Feturizer/New_Systems/rnas/2g5q

>  <Rbt.Executable>
rbdock ($Id: //depot/dev/client3/rdock/2013.1/src/exe/rbdock.cxx#4 $)

>  <Rbt.Library>
libRbt.so (2013.1, Build901 2013/11/27)

>  <Rbt.Parameter_File>
/export/apps/rDock/src/rDock_2013.1_src/data/scripts/dock_solv.prm

>  <Rbt.Receptor>
prm/pocket_docking_4.prm

>  <SCORE>
-11.8784

>  <SCORE.INTER>
-8.80719

>  <SCORE.INTER.CONST>
1

>  <SCORE.INTER.POLAR>
-0.218635

>  <SCORE.INTER.ROT>
10

>  <SCORE.INTER.SOLV>
10.0983

>  <SCORE.INTER.VDW>
-18.7754

>  <SCORE.INTER.norm>
-0.22018

>  <SCORE.INTRA>
-3.08561

>  <SCORE.INTRA.DIHEDRAL>
-14.6636

>  <SCORE.INTRA.DIHEDRAL.0>
22.5778

>  <SCORE.INTRA.POLAR>
0

>  <SCORE.INTRA.POLAR.0>
0

>  <SCORE.INTRA.REPUL>
0

>  <SCORE.INTRA.REPUL.0>
0

>  <SCORE.INTRA.SOLV>
3.43817

>  <SCORE.INTRA.SOLV.lig_0>
-102.332

>  <SCORE.INTRA.VDW>
2.52709

>  <SCORE.INTRA.VDW.0>
-5.08747

>  <SCORE.INTRA.norm>
-0.0771402

>  <SCORE.RESTR>
0.0144332

>  <SCORE.RESTR.CAVITY>
0.0144332

>  <SCORE.RESTR.norm>
0.000360829

>  <SCORE.SYSTEM>
0

>  <SCORE.SYSTEM.CONST>
0

>  <SCORE.SYSTEM.DIHEDRAL>
0

>  <SCORE.SYSTEM.SOLV>
0

>  <SCORE.SYSTEM.norm>
0

>  <SCORE.heavy>
40

>  <SCORE.norm>
-0.296959

>  <RMSD>
8.614

$$$$
2g5q_lig
 OpenBabel11021811433D
libRbt.so/2013.1/901 2013/11/27
 40 42  0  0  0  0  0  0  0  0999 V2000
   -3.8849  -11.7132   20.7188 C   0  0  2  0  0  0  0  0  0  0  0  0
   -3.3062  -12.3597   19.6069 O   0  0  0  0  0  0  0  0  0  0  0  0
   -4.8931  -12.6869   21.3971 C   0  0  1  0  0  0  0  0  0  0  0  0
   -6.1205  -12.9844   20.4814 C   0  0  2  0  0  0  0  0  0  0  0  0
   -6.8221  -11.6356   20.1758 C   0  0  2  0  0  0  0  0  0  0  0  0
   -7.9748  -11.8705   19.3509 O   0  0  0  0  0  0  0  0  0  0  0  0
   -5.7831  -10.6897   19.4478 C   0  0  2  0  0  0  0  0  0  0  0  0
   -4.5948  -10.4691   20.3209 O   0  0  0  0  0  0  0  0  0  0  0  0
   -6.3661   -9.3215   19.1107 C   0  0  0  0  0  0  0  0  0  0  0  0
   -6.6664   -8.5205   20.3395 N   0  0  0  0  0  0  0  0  0  0  0  0
    0.3744  -11.5024   17.4170 C   0  0  2  0  0  0  0  0  0  0  0  0
    1.3309  -10.8631   16.5214 N   0  0  0  0  0  0  0  0  0  0  0  0
   -0.8995  -11.9855   16.6047 C   0  0  0  0  0  0  0  0  0  0  0  0
   -1.9353  -12.6852   17.5701 C   0  0  2  0  0  0  0  0  0  0  0  0
   -3.1196  -13.1434   16.7946 N   0  0  0  0  0  0  0  0  0  0  0  0
   -2.3515  -11.6790   18.7157 C   0  0  2  0  0  0  0  0  0  0  0  0
   -1.0584  -11.2177   19.4980 C   0  0  2  0  0  0  0  0  0  0  0  0
   -1.4370  -10.3018   20.5305 O   0  0  0  0  0  0  0  0  0  0  0  0
   -0.0458  -10.5087   18.5197 C   0  0  1  0  0  0  0  0  0  0  0  0
    1.1494  -10.0959   19.2404 O   0  0  0  0  0  0  0  0  0  0  0  0
    1.1517   -9.1797   20.3075 C   0  0  2  0  0  0  0  0  0  0  0  0
    1.5714   -7.7861   19.7287 C   0  0  2  0  0  0  0  0  0  0  0  0
    0.6606   -7.3949   18.7521 O   0  0  0  0  0  0  0  0  0  0  0  0
    3.0358   -7.8283   19.1487 C   0  0  1  0  0  0  0  0  0  0  0  0
    3.4489   -6.4964   18.5959 N   0  0  0  0  0  0  0  0  0  0  0  0
    4.0140   -8.2835   20.3034 C   0  0  2  0  0  0  0  0  0  0  0  0
    5.3641   -8.3337   19.8377 O   0  0  0  0  0  0  0  0  0  0  0  0
    3.5428   -9.6789   20.8357 C   0  0  2  0  0  0  0  0  0  0  0  0
    2.1230   -9.6172   21.3260 O   0  0  0  0  0  0  0  0  0  0  0  0
    4.4084  -10.1662   21.9612 C   0  0  0  0  0  0  0  0  0  0  0  0
    5.7687  -10.3445   21.5337 O   0  0  0  0  0  0  0  0  0  0  0  0
   -4.1795  -13.9237   21.7426 O   0  0  0  0  0  0  0  0  0  0  0  0
   -6.9831  -13.8372   21.1342 O   0  0  0  0  0  0  0  0  0  0  0  0
    3.5936   -9.0315   12.7125 N   0  0  0  0  0  0  0  0  0  0  0  0
    2.7072  -10.8464   16.6994 C   0  0  0  0  0  0  0  0  0  0  0  0
    3.2802  -11.3694   17.6489 O   0  0  0  0  0  0  0  0  0  0  0  0
    3.4386  -10.0785   15.5742 C   0  0  1  0  0  0  0  0  0  0  0  0
    3.4957  -10.9406   14.2969 C   0  0  0  0  0  0  0  0  0  0  0  0
    4.2015  -10.3047   13.0936 C   0  0  0  0  0  0  0  0  0  0  0  0
    2.7488   -8.8328   15.3259 O   0  0  0  0  0  0  0  0  0  0  0  0
  1  2  1  6  0  0  0
  1  3  1  0  0  0  0
  1  8  1  0  0  0  0
  3  4  1  0  0  0  0
  3 32  1  6  0  0  0
  4  5  1  0  0  0  0
  4 33  1  1  0  0  0
  5  6  1  6  0  0  0
  5  7  1  0  0  0  0
  7  8  1  0  0  0  0
  7  9  1  1  0  0  0
  9 10  1  0  0  0  0
 11 12  1  6  0  0  0
 11 13  1  0  0  0  0
 11 19  1  0  0  0  0
 12 35  1  0  0  0  0
 13 14  1  0  0  0  0
 14 15  1  6  0  0  0
 14 16  1  0  0  0  0
 16  2  1  1  0  0  0
 16 17  1  0  0  0  0
 17 18  1  1  0  0  0
 17 19  1  0  0  0  0
 19 20  1  1  0  0  0
 21 20  1  6  0  0  0
 21 22  1  0  0  0  0
 21 29  1  0  0  0  0
 22 23  1  6  0  0  0
 22 24  1  0  0  0  0
 24 25  1  1  0  0  0
 24 26  1  0  0  0  0
 26 27  1  6  0  0  0
 26 28  1  0  0  0  0
 28 29  1  0  0  0  0
 28 30  1  1  0  0  0
 30 31  1  0  0  0  0
 34 39  1  0  0  0  0
 35 36  2  0  0  0  0
 37 35  1  1  0  0  0
 37 38  1  0  0  0  0
 37 40  1  0  0  0  0
 38 39  1  0  0  0  0
M  END
>  <CHROM.1>
177.20046187,66.94884633,-150.38565343,-178.82121993,179.23145751,-98.82324526
-61.72083731,-76.20574888,-179.77153217,-57.42476436,-0.42696559,-10.51548956
18.85592959,-2.94713375,-0.29788337,-1.73742218

>  <Name>
2g5q_lig

>  <RI>
2.90231e+07

>  <Rbt.Current_Directory>
/home/itssahil/PROJECTS/Mol_Feturizer/New_Systems/rnas/2g5q

>  <Rbt.Executable>
rbdock ($Id: //depot/dev/client3/rdock/2013.1/src/exe/rbdock.cxx#4 $)

>  <Rbt.Library>
libRbt.so (2013.1, Build901 2013/11/27)

>  <Rbt.Parameter_File>
/export/apps/rDock/src/rDock_2013.1_src/data/scripts/dock_solv.prm

>  <Rbt.Receptor>
prm/pocket_docking_6.prm

>  <SCORE>
-9.11129

>  <SCORE.INTER>
-2.81136

>  <SCORE.INTER.CONST>
1

>  <SCORE.INTER.POLAR>
-2.60416

>  <SCORE.INTER.ROT>
10

>  <SCORE.INTER.SOLV>
13.0312

>  <SCORE.INTER.VDW>
-7.80409

>  <SCORE.INTER.norm>
-0.0702841

>  <SCORE.INTRA>
-6.29992

>  <SCORE.INTRA.DIHEDRAL>
-15.4469

>  <SCORE.INTRA.DIHEDRAL.0>
22.5778

>  <SCORE.INTRA.POLAR>
0

>  <SCORE.INTRA.POLAR.0>
0

>  <SCORE.INTRA.REPUL>
0

>  <SCORE.INTRA.REPUL.0>
0

>  <SCORE.INTRA.SOLV>
2.65222

>  <SCORE.INTRA.SOLV.lig_0>
-102.332

>  <SCORE.INTRA.VDW>
0.0974368

>  <SCORE.INTRA.VDW.0>
-5.08747

>  <SCORE.INTRA.norm>
-0.157498

>  <SCORE.RESTR>
0

>  <SCORE.RESTR.CAVITY>
0

>  <SCORE.RESTR.norm>
0

>  <SCORE.SYSTEM>
0

>  <SCORE.SYSTEM.CONST>
0

>  <SCORE.SYSTEM.DIHEDRAL>
0

>  <SCORE.SYSTEM.SOLV>
0

>  <SCORE.SYSTEM.norm>
0

>  <SCORE.heavy>
40

>  <SCORE.norm>
-0.227782

>  <RMSD>
8.625

$$$$
2g5q_lig
 OpenBabel11021811433D
libRbt.so/2013.1/901 2013/11/27
 40 42  0  0  0  0  0  0  0  0999 V2000
   -3.4439   -8.2779   16.7904 C   0  0  2  0  0  0  0  0  0  0  0  0
   -2.3400   -8.8175   17.4832 O   0  0  0  0  0  0  0  0  0  0  0  0
   -4.4231   -7.6443   17.8222 C   0  0  1  0  0  0  0  0  0  0  0  0
   -5.0746   -8.7214   18.7436 C   0  0  2  0  0  0  0  0  0  0  0  0
   -5.8433   -9.7180   17.8377 C   0  0  2  0  0  0  0  0  0  0  0  0
   -6.4787  -10.7158   18.6533 O   0  0  0  0  0  0  0  0  0  0  0  0
   -4.8106  -10.3746   16.8344 C   0  0  2  0  0  0  0  0  0  0  0  0
   -4.1608   -9.3183   16.0069 O   0  0  0  0  0  0  0  0  0  0  0  0
   -5.4650  -11.3681   15.8803 C   0  0  0  0  0  0  0  0  0  0  0  0
   -6.0753  -12.5263   16.6070 N   0  0  0  0  0  0  0  0  0  0  0  0
    1.5777  -10.4977   16.5317 C   0  0  2  0  0  0  0  0  0  0  0  0
    2.8755  -10.7026   15.8996 N   0  0  0  0  0  0  0  0  0  0  0  0
    0.4188  -10.6120   15.4549 C   0  0  0  0  0  0  0  0  0  0  0  0
   -0.9896  -10.3978   16.1369 C   0  0  2  0  0  0  0  0  0  0  0  0
   -2.0680  -10.5184   15.1188 N   0  0  0  0  0  0  0  0  0  0  0  0
   -1.0229   -8.9857   16.8460 C   0  0  2  0  0  0  0  0  0  0  0  0
    0.1462   -8.9083   17.9062 C   0  0  2  0  0  0  0  0  0  0  0  0
    0.1180   -7.6267   18.5424 O   0  0  0  0  0  0  0  0  0  0  0  0
    1.5426   -9.1090   17.2027 C   0  0  1  0  0  0  0  0  0  0  0  0
    2.6165   -9.0496   18.1832 O   0  0  0  0  0  0  0  0  0  0  0  0
    3.8372   -8.3815   17.9786 C   0  0  2  0  0  0  0  0  0  0  0  0
    4.8757   -8.9823   18.9854 C   0  0  2  0  0  0  0  0  0  0  0  0
    5.0199  -10.3456   18.7463 O   0  0  0  0  0  0  0  0  0  0  0  0
    4.4432   -8.7145   20.4767 C   0  0  1  0  0  0  0  0  0  0  0  0
    5.4343   -9.2824   21.4490 N   0  0  0  0  0  0  0  0  0  0  0  0
    4.2925   -7.1542   20.6772 C   0  0  2  0  0  0  0  0  0  0  0  0
    3.9072   -6.8474   22.0186 O   0  0  0  0  0  0  0  0  0  0  0  0
    3.2430   -6.6175   19.6461 C   0  0  2  0  0  0  0  0  0  0  0  0
    3.6566   -6.9419   18.2377 O   0  0  0  0  0  0  0  0  0  0  0  0
    3.0671   -5.1306   19.7542 C   0  0  0  0  0  0  0  0  0  0  0  0
    4.2975   -4.4387   19.4852 O   0  0  0  0  0  0  0  0  0  0  0  0
   -3.6827   -6.6512   18.6120 O   0  0  0  0  0  0  0  0  0  0  0  0
   -5.9383   -8.1088   19.6245 O   0  0  0  0  0  0  0  0  0  0  0  0
    5.2930   -9.5104   11.3665 N   0  0  0  0  0  0  0  0  0  0  0  0
    3.3616   -9.9826   14.8172 C   0  0  0  0  0  0  0  0  0  0  0  0
    2.7406   -9.0850   14.2587 O   0  0  0  0  0  0  0  0  0  0  0  0
    4.7694  -10.4505   14.3815 C   0  0  1  0  0  0  0  0  0  0  0  0
    4.6803  -11.2273   13.0523 C   0  0  0  0  0  0  0  0  0  0  0  0
    4.2404  -10.4116   11.8310 C   0  0  0  0  0  0  0  0  0  0  0  0
    5.6312   -9.2977   14.2491 O   0  0  0  0  0  0  0  0  0  0  0  0
  1  2  1  1  0  0  0
  1  3  1  0  0  0  0
  1  8  1  0  0  0  0
  3  4  1  0  0  0  0
  3 32  1  1  0  0  0
  4  5  1  0  0  0  0
  4 33  1  1  0  0  0
  5  6  1  1  0  0  0
  5  7  1  0  0  0  0
  7  8  1  0  0  0  0
  7  9  1  6  0  0  0
  9 10  1  0  0  0  0
 11 12  1  6  0  0  0
 11 13  1  0  0  0  0
 11 19  1  0  0  0  0
 12 35  1  0  0  0  0
 13 14  1  0  0  0  0
 14 15  1  6  0  0  0
 14 16  1  0  0  0  0
 16  2  1  1  0  0  0
 16 17  1  0  0  0  0
 17 18  1  6  0  0  0
 17 19  1  0  0  0  0
 19 20  1  1  0  0  0
 21 20  1  1  0  0  0
 21 22  1  0  0  0  0
 21 29  1  0  0  0  0
 22 23  1  1  0  0  0
 22 24  1  0  0  0  0
 24 25  1  1  0  0  0
 24 26  1  0  0  0  0
 26 27  1  1  0  0  0
 26 28  1  0  0  0  0
 28 29  1  0  0  0  0
 28 30  1  6  0  0  0
 30 31  1  0  0  0  0
 34 39  1  0  0  0  0
 35 36  2  0  0  0  0
 37 35  1  6  0  0  0
 37 38  1  0  0  0  0
 37 40  1  0  0  0  0
 38 39  1  0  0  0  0
M  END
>  <CHROM.1>
-154.55350672,-62.24861596,55.34239571,-87.90568598,102.39733089,-159.29464962
60.95996633,107.41789271,65.77975821,73.19772512,0.59988239,-9.00010619,17.28061326
-3.12173624,0.10656882,1.06880990

>  <Name>
2g5q_lig

>  <RI>
2.47104e+07

>  <Rbt.Current_Directory>
/home/itssahil/PROJECTS/Mol_Feturizer/New_Systems/rnas/2g5q

>  <Rbt.Executable>
rbdock ($Id: //depot/dev/client3/rdock/2013.1/src/exe/rbdock.cxx#4 $)

>  <Rbt.Library>
libRbt.so (2013.1, Build901 2013/11/27)

>  <Rbt.Parameter_File>
/export/apps/rDock/src/rDock_2013.1_src/data/scripts/dock_solv.prm

>  <Rbt.Receptor>
prm/pocket_docking_7.prm

>  <SCORE>
-14.0066

>  <SCORE.INTER>
-13.8763

>  <SCORE.INTER.CONST>
1

>  <SCORE.INTER.POLAR>
-2.38929

>  <SCORE.INTER.ROT>
10

>  <SCORE.INTER.SOLV>
15.94

>  <SCORE.INTER.VDW>
-16.8666

>  <SCORE.INTER.norm>
-0.346908

>  <SCORE.INTRA>
-0.130304

>  <SCORE.INTRA.DIHEDRAL>
-5.83689

>  <SCORE.INTRA.DIHEDRAL.0>
22.5778

>  <SCORE.INTRA.POLAR>
0

>  <SCORE.INTRA.POLAR.0>
0

>  <SCORE.INTRA.REPUL>
0

>  <SCORE.INTRA.REPUL.0>
0

>  <SCORE.INTRA.SOLV>
5.98537

>  <SCORE.INTRA.SOLV.lig_0>
-102.332

>  <SCORE.INTRA.VDW>
-0.204544

>  <SCORE.INTRA.VDW.0>
-5.08747

>  <SCORE.INTRA.norm>
-0.0032576

>  <SCORE.RESTR>
0

>  <SCORE.RESTR.CAVITY>
0

>  <SCORE.RESTR.norm>
0

>  <SCORE.SYSTEM>
0

>  <SCORE.SYSTEM.CONST>
0

>  <SCORE.SYSTEM.DIHEDRAL>
0

>  <SCORE.SYSTEM.SOLV>
0

>  <SCORE.SYSTEM.norm>
0

>  <SCORE.heavy>
40

>  <SCORE.norm>
-0.350166

>  <RMSD>
8.648

$$$$
2g5q_lig
 OpenBabel11021811433D
libRbt.so/2013.1/901 2013/11/27
 40 42  0  0  0  0  0  0  0  0999 V2000
   -5.7758   -9.6568   16.5793 C   0  0  2  0  0  0  0  0  0  0  0  0
   -4.6035   -9.7393   15.7993 O   0  0  0  0  0  0  0  0  0  0  0  0
   -6.2611  -11.0989   16.9102 C   0  0  1  0  0  0  0  0  0  0  0  0
   -6.7370  -11.8599   15.6342 C   0  0  2  0  0  0  0  0  0  0  0  0
   -7.8994  -11.0491   15.0046 C   0  0  2  0  0  0  0  0  0  0  0  0
   -8.3821  -11.7314   13.8359 O   0  0  0  0  0  0  0  0  0  0  0  0
   -7.3584   -9.6073   14.6405 C   0  0  2  0  0  0  0  0  0  0  0  0
   -6.8569   -8.9253   15.8678 O   0  0  0  0  0  0  0  0  0  0  0  0
   -8.4290   -8.7138   14.0231 C   0  0  0  0  0  0  0  0  0  0  0  0
   -8.9483   -9.2687   12.7331 N   0  0  0  0  0  0  0  0  0  0  0  0
   -0.3656   -9.1928   16.7038 C   0  0  2  0  0  0  0  0  0  0  0  0
    0.9519   -9.3679   17.3033 N   0  0  0  0  0  0  0  0  0  0  0  0
   -1.4341   -8.8386   17.8212 C   0  0  0  0  0  0  0  0  0  0  0  0
   -2.8616   -8.6409   17.1751 C   0  0  2  0  0  0  0  0  0  0  0  0
   -3.8519   -8.2984   18.2316 N   0  0  0  0  0  0  0  0  0  0  0  0
   -3.2769   -9.9550   16.4014 C   0  0  2  0  0  0  0  0  0  0  0  0
   -2.1886  -10.2772   15.3019 C   0  0  2  0  0  0  0  0  0  0  0  0
   -2.5634  -11.4708   14.6070 O   0  0  0  0  0  0  0  0  0  0  0  0
   -0.7758  -10.4859   15.9693 C   0  0  1  0  0  0  0  0  0  0  0  0
    0.2269  -10.7703   14.9534 O   0  0  0  0  0  0  0  0  0  0  0  0
    1.4999  -11.3021   15.2267 C   0  0  2  0  0  0  0  0  0  0  0  0
    2.5018  -10.6725   14.2005 C   0  0  2  0  0  0  0  0  0  0  0  0
    2.5096   -9.2887   14.3476 O   0  0  0  0  0  0  0  0  0  0  0  0
    2.1349  -11.0800   12.7234 C   0  0  1  0  0  0  0  0  0  0  0  0
    3.0919  -10.4853   11.7331 N   0  0  0  0  0  0  0  0  0  0  0  0
    2.1384  -12.6575   12.6284 C   0  0  2  0  0  0  0  0  0  0  0  0
    1.8183  -13.0891   11.3042 O   0  0  0  0  0  0  0  0  0  0  0  0
    1.1188  -13.2229   13.6740 C   0  0  2  0  0  0  0  0  0  0  0  0
    1.4638  -12.7665   15.0642 O   0  0  0  0  0  0  0  0  0  0  0  0
    1.0880  -14.7237   13.6655 C   0  0  0  0  0  0  0  0  0  0  0  0
    0.0790  -15.2299   14.5548 O   0  0  0  0  0  0  0  0  0  0  0  0
   -5.1632  -11.8149   17.5737 O   0  0  0  0  0  0  0  0  0  0  0  0
   -7.1662  -13.1206   15.9861 O   0  0  0  0  0  0  0  0  0  0  0  0
    2.4863  -10.9846   22.4990 N   0  0  0  0  0  0  0  0  0  0  0  0
    1.2761  -10.3188   18.2607 C   0  0  0  0  0  0  0  0  0  0  0  0
    0.4759  -11.1254   18.7217 O   0  0  0  0  0  0  0  0  0  0  0  0
    2.7576  -10.2372   18.6956 C   0  0  1  0  0  0  0  0  0  0  0  0
    2.9469  -10.9307   20.0599 C   0  0  0  0  0  0  0  0  0  0  0  0
    2.2537  -10.2599   21.2514 C   0  0  0  0  0  0  0  0  0  0  0  0
    3.5827  -10.8561   17.6829 O   0  0  0  0  0  0  0  0  0  0  0  0
  1  2  1  6  0  0  0
  1  3  1  0  0  0  0
  1  8  1  0  0  0  0
  3  4  1  0  0  0  0
  3 32  1  6  0  0  0
  4  5  1  0  0  0  0
  4 33  1  1  0  0  0
  5  6  1  6  0  0  0
  5  7  1  0  0  0  0
  7  8  1  0  0  0  0
  7  9  1  1  0  0  0
  9 10  1  0  0  0  0
 11 12  1  1  0  0  0
 11 13  1  0  0  0  0
 11 19  1  0  0  0  0
 12 35  1  0  0  0  0
 13 14  1  0  0  0  0
 14 15  1  1  0  0  0
 14 16  1  0  0  0  0
 16  2  1  6  0  0  0
 16 17  1  0  0  0  0
 17 18  1  1  0  0  0
 17 19  1  0  0  0  0
 19 20  1  6  0  0  0
 21 20  1  6  0  0  0
 21 22  1  0  0  0  0
 21 29  1  0  0  0  0
 22 23  1  6  0  0  0
 22 24  1  0  0  0  0
 24 25  1  6  0  0  0
 24 26  1  0  0  0  0
 26 27  1  6  0  0  0
 26 28  1  0  0  0  0
 28 29  1  0  0  0  0
 28 30  1  1  0  0  0
 30 31  1  0  0  0  0
 34 39  1  0  0  0  0
 35 36  2  0  0  0  0
 37 35  1  6  0  0  0
 37 38  1  0  0  0  0
 37 40  1  0  0  0  0
 38 39  1  0  0  0  0
M  END
>  <CHROM.1>
-81.89699514,-61.85375607,60.68060030,-70.51018210,75.84921242,-145.57768415
-175.64004925,160.07779891,-66.24223054,179.95120864,-1.62542663,-10.86567197
15.86554574,3.05617388,0.13024639,-1.90866504

>  <Name>
2g5q_lig

>  <RI>
0

>  <Rbt.Current_Directory>
/home/itssahil/PROJECTS/Mol_Feturizer/New_Systems/rnas/2g5q

>  <Rbt.Executable>
rbdock ($Id: //depot/dev/client3/rdock/2013.1/src/exe/rbdock.cxx#4 $)

>  <Rbt.Library>
libRbt.so (2013.1, Build901 2013/11/27)

>  <Rbt.Parameter_File>
/export/apps/rDock/src/rDock_2013.1_src/data/scripts/dock_solv.prm

>  <Rbt.Receptor>
prm/pocket_docking_5.prm

>  <SCORE>
-18.2814

>  <SCORE.INTER>
-13.766

>  <SCORE.INTER.CONST>
1

>  <SCORE.INTER.POLAR>
-1.92077

>  <SCORE.INTER.ROT>
10

>  <SCORE.INTER.SOLV>
14.709

>  <SCORE.INTER.VDW>
-17.9444

>  <SCORE.INTER.norm>
-0.344151

>  <SCORE.INTRA>
-4.51534

>  <SCORE.INTRA.DIHEDRAL>
-12.9072

>  <SCORE.INTRA.DIHEDRAL.0>
22.5778

>  <SCORE.INTRA.POLAR>
0

>  <SCORE.INTRA.POLAR.0>
0

>  <SCORE.INTRA.REPUL>
0

>  <SCORE.INTRA.REPUL.0>
0

>  <SCORE.INTRA.SOLV>
2.55989

>  <SCORE.INTRA.SOLV.lig_0>
-102.332

>  <SCORE.INTRA.VDW>
0.658335

>  <SCORE.INTRA.VDW.0>
-5.08747

>  <SCORE.INTRA.norm>
-0.112883

>  <SCORE.RESTR>
0

>  <SCORE.RESTR.CAVITY>
0

>  <SCORE.RESTR.norm>
0

>  <SCORE.SYSTEM>
0

>  <SCORE.SYSTEM.CONST>
0

>  <SCORE.SYSTEM.DIHEDRAL>
0

>  <SCORE.SYSTEM.SOLV>
0

>  <SCORE.SYSTEM.norm>
0

>  <SCORE.heavy>
40

>  <SCORE.norm>
-0.457034

>  <RMSD>
8.652

$$$$
2g5q_lig
 OpenBabel11021811433D
libRbt.so/2013.1/901 2013/11/27
 40 42  0  0  0  0  0  0  0  0999 V2000
   -1.7342  -11.5315   16.6073 C   0  0  2  0  0  0  0  0  0  0  0  0
   -1.5857  -10.2547   17.1880 O   0  0  0  0  0  0  0  0  0  0  0  0
   -2.8081  -11.4497   15.4827 C   0  0  1  0  0  0  0  0  0  0  0  0
   -4.2286  -11.1531   16.0552 C   0  0  2  0  0  0  0  0  0  0  0  0
   -4.5904  -12.2943   17.0409 C   0  0  2  0  0  0  0  0  0  0  0  0
   -5.9055  -12.0690   17.5739 O   0  0  0  0  0  0  0  0  0  0  0  0
   -3.5049  -12.3182   18.1921 C   0  0  2  0  0  0  0  0  0  0  0  0
   -2.1504  -12.5452   17.6119 O   0  0  0  0  0  0  0  0  0  0  0  0
   -3.7561  -13.4188   19.2174 C   0  0  0  0  0  0  0  0  0  0  0  0
   -3.6970  -14.7829   18.6030 N   0  0  0  0  0  0  0  0  0  0  0  0
    1.8492   -8.1405   18.8639 C   0  0  2  0  0  0  0  0  0  0  0  0
    2.9515   -7.7796   19.7473 N   0  0  0  0  0  0  0  0  0  0  0  0
    0.4774   -8.1148   19.6598 C   0  0  0  0  0  0  0  0  0  0  0  0
   -0.7206   -8.4983   18.7046 C   0  0  2  0  0  0  0  0  0  0  0  0
   -2.0019   -8.4596   19.4600 N   0  0  0  0  0  0  0  0  0  0  0  0
   -0.4621   -9.9280   18.0824 C   0  0  2  0  0  0  0  0  0  0  0  0
    0.9123   -9.9154   17.3030 C   0  0  2  0  0  0  0  0  0  0  0  0
    1.1472  -11.2125   16.7459 O   0  0  0  0  0  0  0  0  0  0  0  0
    2.0952   -9.5459   18.2772 C   0  0  1  0  0  0  0  0  0  0  0  0
    3.3581   -9.5230   17.5542 O   0  0  0  0  0  0  0  0  0  0  0  0
    4.6162   -9.3763   18.1657 C   0  0  2  0  0  0  0  0  0  0  0  0
    5.2866   -8.0972   17.5594 C   0  0  2  0  0  0  0  0  0  0  0  0
    4.4873   -6.9874   17.8161 O   0  0  0  0  0  0  0  0  0  0  0  0
    5.5379   -8.2650   16.0131 C   0  0  1  0  0  0  0  0  0  0  0  0
    6.1842   -7.0463   15.4237 N   0  0  0  0  0  0  0  0  0  0  0  0
    6.4434   -9.5413   15.7930 C   0  0  2  0  0  0  0  0  0  0  0  0
    6.7128   -9.7419   14.4040 O   0  0  0  0  0  0  0  0  0  0  0  0
    5.7187  -10.7812   16.4176 C   0  0  2  0  0  0  0  0  0  0  0  0
    5.4411  -10.5635   17.8789 O   0  0  0  0  0  0  0  0  0  0  0  0
    6.5352  -12.0329   16.2751 C   0  0  0  0  0  0  0  0  0  0  0  0
    5.8194  -13.1808   16.7597 O   0  0  0  0  0  0  0  0  0  0  0  0
   -2.3971  -10.4134   14.5260 O   0  0  0  0  0  0  0  0  0  0  0  0
   -5.1381  -11.1050   15.0218 O   0  0  0  0  0  0  0  0  0  0  0  0
    4.7585   -4.3819   23.3592 N   0  0  0  0  0  0  0  0  0  0  0  0
    3.3387   -8.4887   20.8757 C   0  0  0  0  0  0  0  0  0  0  0  0
    2.7830   -9.5098   21.2656 O   0  0  0  0  0  0  0  0  0  0  0  0
    4.5404   -7.8376   21.5985 C   0  0  1  0  0  0  0  0  0  0  0  0
    4.1750   -6.4089   22.0495 C   0  0  0  0  0  0  0  0  0  0  0  0
    5.2265   -5.6886   22.9015 C   0  0  0  0  0  0  0  0  0  0  0  0
    4.9127   -8.6567   22.7297 O   0  0  0  0  0  0  0  0  0  0  0  0
  1  2  1  1  0  0  0
  1  3  1  0  0  0  0
  1  8  1  0  0  0  0
  3  4  1  0  0  0  0
  3 32  1  6  0  0  0
  4  5  1  0  0  0  0
  4 33  1  6  0  0  0
  5  6  1  1  0  0  0
  5  7  1  0  0  0  0
  7  8  1  0  0  0  0
  7  9  1  1  0  0  0
  9 10  1  0  0  0  0
 11 12  1  1  0  0  0
 11 13  1  0  0  0  0
 11 19  1  0  0  0  0
 12 35  1  0  0  0  0
 13 14  1  0  0  0  0
 14 15  1  1  0  0  0
 14 16  1  0  0  0  0
 16  2  1  6  0  0  0
 16 17  1  0  0  0  0
 17 18  1  1  0  0  0
 17 19  1  0  0  0  0
 19 20  1  6  0  0  0
 21 20  1  6  0  0  0
 21 22  1  0  0  0  0
 21 29  1  0  0  0  0
 22 23  1  6  0  0  0
 22 24  1  0  0  0  0
 24 25  1  1  0  0  0
 24 26  1  0  0  0  0
 26 27  1  6  0  0  0
 26 28  1  0  0  0  0
 28 29  1  0  0  0  0
 28 30  1  1  0  0  0
 30 31  1  0  0  0  0
 34 39  1  0  0  0  0
 35 36  2  0  0  0  0
 37 35  1  1  0  0  0
 37 38  1  0  0  0  0
 37 40  1  0  0  0  0
 38 39  1  0  0  0  0
M  END
>  <CHROM.1>
-167.11155256,61.88100325,62.14586000,-172.04385332,68.06387705,-121.14588740
-175.63271252,60.12477278,174.28581366,-176.03997578,1.51090728,-9.80687472
18.09799643,-2.76066991,0.21986387,1.00532891

>  <Name>
2g5q_lig

>  <RI>
224

>  <Rbt.Current_Directory>
/home/itssahil/PROJECTS/Mol_Feturizer/New_Systems/rnas/2g5q

>  <Rbt.Executable>
rbdock ($Id: //depot/dev/client3/rdock/2013.1/src/exe/rbdock.cxx#4 $)

>  <Rbt.Library>
libRbt.so (2013.1, Build901 2013/11/27)

>  <Rbt.Parameter_File>
/export/apps/rDock/src/rDock_2013.1_src/data/scripts/dock_solv.prm

>  <Rbt.Receptor>
prm/pocket_docking_8.prm

>  <SCORE>
-10.5714

>  <SCORE.INTER>
-5.45229

>  <SCORE.INTER.CONST>
1

>  <SCORE.INTER.POLAR>
-1.19035

>  <SCORE.INTER.ROT>
10

>  <SCORE.INTER.SOLV>
17.2186

>  <SCORE.INTER.VDW>
-15.6732

>  <SCORE.INTER.norm>
-0.136307

>  <SCORE.INTRA>
-5.11914

>  <SCORE.INTRA.DIHEDRAL>
-12.8948

>  <SCORE.INTRA.DIHEDRAL.0>
22.5778

>  <SCORE.INTRA.POLAR>
0

>  <SCORE.INTRA.POLAR.0>
0

>  <SCORE.INTRA.REPUL>
0

>  <SCORE.INTRA.REPUL.0>
0

>  <SCORE.INTRA.SOLV>
0.75953

>  <SCORE.INTRA.SOLV.lig_0>
-102.332

>  <SCORE.INTRA.VDW>
0.948496

>  <SCORE.INTRA.VDW.0>
-5.08747

>  <SCORE.INTRA.norm>
-0.127979

>  <SCORE.RESTR>
0

>  <SCORE.RESTR.CAVITY>
0

>  <SCORE.RESTR.norm>
0

>  <SCORE.SYSTEM>
0

>  <SCORE.SYSTEM.CONST>
0

>  <SCORE.SYSTEM.DIHEDRAL>
0

>  <SCORE.SYSTEM.SOLV>
0

>  <SCORE.SYSTEM.norm>
0

>  <SCORE.heavy>
40

>  <SCORE.norm>
-0.264286

>  <RMSD>
8.652

$$$$
2g5q_lig
 OpenBabel11021811433D
libRbt.so/2013.1/901 2013/11/27
 40 42  0  0  0  0  0  0  0  0999 V2000
   -5.0256   -8.1052   17.7638 C   0  0  2  0  0  0  0  0  0  0  0  0
   -4.1994   -9.2350   17.5898 O   0  0  0  0  0  0  0  0  0  0  0  0
   -6.0773   -8.4177   18.8689 C   0  0  1  0  0  0  0  0  0  0  0  0
   -7.0806   -9.5251   18.4208 C   0  0  2  0  0  0  0  0  0  0  0  0
   -7.8000   -9.0237   17.1418 C   0  0  2  0  0  0  0  0  0  0  0  0
   -8.7522  -10.0090   16.7094 O   0  0  0  0  0  0  0  0  0  0  0  0
   -6.7067   -8.7600   16.0286 C   0  0  2  0  0  0  0  0  0  0  0  0
   -5.7282   -7.7411   16.5053 O   0  0  0  0  0  0  0  0  0  0  0  0
   -7.3054   -8.2469   14.7232 C   0  0  0  0  0  0  0  0  0  0  0  0
   -8.0967   -9.3024   14.0150 N   0  0  0  0  0  0  0  0  0  0  0  0
   -0.2222  -10.1592   16.0391 C   0  0  2  0  0  0  0  0  0  0  0  0
    0.9562  -10.1721   15.1807 N   0  0  0  0  0  0  0  0  0  0  0  0
   -1.4902  -10.6753   15.2381 C   0  0  0  0  0  0  0  0  0  0  0  0
   -2.7678  -10.6698   16.1666 C   0  0  2  0  0  0  0  0  0  0  0  0
   -3.9470  -11.1663   15.4071 N   0  0  0  0  0  0  0  0  0  0  0  0
   -3.0121   -9.2091   16.7187 C   0  0  2  0  0  0  0  0  0  0  0  0
   -1.7286   -8.7289   17.5053 C   0  0  2  0  0  0  0  0  0  0  0  0
   -1.9497   -7.4039   17.9988 O   0  0  0  0  0  0  0  0  0  0  0  0
   -0.4694   -8.7271   16.5569 C   0  0  1  0  0  0  0  0  0  0  0  0
    0.7136   -8.2962   17.2870 O   0  0  0  0  0  0  0  0  0  0  0  0
    1.1758   -8.9006   18.4700 C   0  0  2  0  0  0  0  0  0  0  0  0
    1.4912   -7.7548   19.4903 C   0  0  2  0  0  0  0  0  0  0  0  0
    0.3349   -7.0210   19.7372 O   0  0  0  0  0  0  0  0  0  0  0  0
    2.6471   -6.8239   18.9612 C   0  0  1  0  0  0  0  0  0  0  0  0
    2.9598   -5.7256   19.9340 N   0  0  0  0  0  0  0  0  0  0  0  0
    3.9229   -7.7183   18.6968 C   0  0  2  0  0  0  0  0  0  0  0  0
    5.0118   -6.9249   18.2203 O   0  0  0  0  0  0  0  0  0  0  0  0
    3.5429   -8.8390   17.6711 C   0  0  2  0  0  0  0  0  0  0  0  0
    2.3988   -9.6704   18.1807 O   0  0  0  0  0  0  0  0  0  0  0  0
    4.7007   -9.7528   17.3915 C   0  0  0  0  0  0  0  0  0  0  0  0
    5.1684  -10.3854   18.5940 O   0  0  0  0  0  0  0  0  0  0  0  0
   -5.3615   -8.8155   20.0885 O   0  0  0  0  0  0  0  0  0  0  0  0
   -7.9930   -9.7512   19.4276 O   0  0  0  0  0  0  0  0  0  0  0  0
    3.7363   -9.3616   11.1061 N   0  0  0  0  0  0  0  0  0  0  0  0
    1.2958  -11.1912   14.3018 C   0  0  0  0  0  0  0  0  0  0  0  0
    0.6358  -12.2137   14.1528 O   0  0  0  0  0  0  0  0  0  0  0  0
    2.6108  -10.9015   13.5421 C   0  0  1  0  0  0  0  0  0  0  0  0
    2.4509  -11.2638   12.0517 C   0  0  0  0  0  0  0  0  0  0  0  0
    3.5910  -10.8157   11.1299 C   0  0  0  0  0  0  0  0  0  0  0  0
    2.9512   -9.5057   13.7004 O   0  0  0  0  0  0  0  0  0  0  0  0
  1  2  1  6  0  0  0
  1  3  1  0  0  0  0
  1  8  1  0  0  0  0
  3  4  1  0  0  0  0
  3 32  1  1  0  0  0
  4  5  1  0  0  0  0
  4 33  1  1  0  0  0
  5  6  1  6  0  0  0
  5  7  1  0  0  0  0
  7  8  1  0  0  0  0
  7  9  1  6  0  0  0
  9 10  1  0  0  0  0
 11 12  1  6  0  0  0
 11 13  1  0  0  0  0
 11 19  1  0  0  0  0
 12 35  1  0  0  0  0
 13 14  1  0  0  0  0
 14 15  1  6  0  0  0
 14 16  1  0  0  0  0
 16  2  1  1  0  0  0
 16 17  1  0  0  0  0
 17 18  1  6  0  0  0
 17 19  1  0  0  0  0
 19 20  1  1  0  0  0
 21 20  1  6  0  0  0
 21 22  1  0  0  0  0
 21 29  1  0  0  0  0
 22 23  1  6  0  0  0
 22 24  1  0  0  0  0
 24 25  1  1  0  0  0
 24 26  1  0  0  0  0
 26 27  1  6  0  0  0
 26 28  1  0  0  0  0
 28 29  1  0  0  0  0
 28 30  1  1  0  0  0
 30 31  1  0  0  0  0
 34 39  1  0  0  0  0
 35 36  2  0  0  0  0
 37 35  1  1  0  0  0
 37 38  1  0  0  0  0
 37 40  1  0  0  0  0
 38 39  1  0  0  0  0
M  END
>  <CHROM.1>
-173.22576964,-69.80530098,-42.74440549,-151.49077018,-63.95041487,-133.03864547
58.93582111,-136.35288242,170.25462586,-62.04510146,-1.08872887,-9.16569857
16.69628927,-3.04955427,-0.03223867,-2.00835597

>  <Name>
2g5q_lig

>  <RI>
0

>  <Rbt.Current_Directory>
/home/itssahil/PROJECTS/Mol_Feturizer/New_Systems/rnas/2g5q

>  <Rbt.Executable>
rbdock ($Id: //depot/dev/client3/rdock/2013.1/src/exe/rbdock.cxx#4 $)

>  <Rbt.Library>
libRbt.so (2013.1, Build901 2013/11/27)

>  <Rbt.Parameter_File>
/export/apps/rDock/src/rDock_2013.1_src/data/scripts/dock_solv.prm

>  <Rbt.Receptor>
prm/pocket_docking_3.prm

>  <SCORE>
-11.8375

>  <SCORE.INTER>
-11.294

>  <SCORE.INTER.CONST>
1

>  <SCORE.INTER.POLAR>
-1.5636

>  <SCORE.INTER.ROT>
10

>  <SCORE.INTER.SOLV>
17.7469

>  <SCORE.INTER.VDW>
-18.4996

>  <SCORE.INTER.norm>
-0.28235

>  <SCORE.INTRA>
-1.86728

>  <SCORE.INTRA.DIHEDRAL>
-9.4629

>  <SCORE.INTRA.DIHEDRAL.0>
22.5778

>  <SCORE.INTRA.POLAR>
0

>  <SCORE.INTRA.POLAR.0>
0

>  <SCORE.INTRA.REPUL>
0

>  <SCORE.INTRA.REPUL.0>
0

>  <SCORE.INTRA.SOLV>
2.99069

>  <SCORE.INTRA.SOLV.lig_0>
-102.332

>  <SCORE.INTRA.VDW>
1.36882

>  <SCORE.INTRA.VDW.0>
-5.08747

>  <SCORE.INTRA.norm>
-0.0466821

>  <SCORE.RESTR>
1.32379

>  <SCORE.RESTR.CAVITY>
1.32379

>  <SCORE.RESTR.norm>
0.0330946

>  <SCORE.SYSTEM>
0

>  <SCORE.SYSTEM.CONST>
0

>  <SCORE.SYSTEM.DIHEDRAL>
0

>  <SCORE.SYSTEM.SOLV>
0

>  <SCORE.SYSTEM.norm>
0

>  <SCORE.heavy>
40

>  <SCORE.norm>
-0.295937

>  <RMSD>
8.669

$$$$
2g5q_lig
 OpenBabel11021811433D
libRbt.so/2013.1/901 2013/11/27
 40 42  0  0  0  0  0  0  0  0999 V2000
   -5.5268   -9.7956   16.7083 C   0  0  2  0  0  0  0  0  0  0  0  0
   -4.3734   -9.7067   15.9013 O   0  0  0  0  0  0  0  0  0  0  0  0
   -5.9236  -11.2943   16.8534 C   0  0  1  0  0  0  0  0  0  0  0  0
   -6.3919  -11.9062   15.4970 C   0  0  2  0  0  0  0  0  0  0  0  0
   -7.6134  -11.0877   15.0041 C   0  0  2  0  0  0  0  0  0  0  0  0
   -8.0899  -11.6363   13.7646 O   0  0  0  0  0  0  0  0  0  0  0  0
   -7.1618   -9.5817   14.8251 C   0  0  2  0  0  0  0  0  0  0  0  0
   -6.6651   -9.0400   16.1223 O   0  0  0  0  0  0  0  0  0  0  0  0
   -8.2959   -8.6776   14.3536 C   0  0  0  0  0  0  0  0  0  0  0  0
   -7.9387   -7.2274   14.4583 N   0  0  0  0  0  0  0  0  0  0  0  0
   -0.1736   -8.7984   16.6852 C   0  0  2  0  0  0  0  0  0  0  0  0
    1.1712   -8.8610   17.2449 N   0  0  0  0  0  0  0  0  0  0  0  0
   -1.2352   -8.5422   17.8355 C   0  0  0  0  0  0  0  0  0  0  0  0
   -2.6930   -8.4666   17.2325 C   0  0  2  0  0  0  0  0  0  0  0  0
   -3.6775   -8.2150   18.3195 N   0  0  0  0  0  0  0  0  0  0  0  0
   -3.0158   -9.8089   16.4631 C   0  0  2  0  0  0  0  0  0  0  0  0
   -1.9368  -10.0316   15.3304 C   0  0  2  0  0  0  0  0  0  0  0  0
   -2.2273  -11.2506   14.6393 O   0  0  0  0  0  0  0  0  0  0  0  0
   -0.4921  -10.1196   15.9550 C   0  0  1  0  0  0  0  0  0  0  0  0
    0.5009  -10.3123   14.9085 O   0  0  0  0  0  0  0  0  0  0  0  0
    1.8377  -10.6797   15.1456 C   0  0  2  0  0  0  0  0  0  0  0  0
    2.6075  -10.5527   13.7875 C   0  0  2  0  0  0  0  0  0  0  0  0
    2.5359   -9.2391   13.3338 O   0  0  0  0  0  0  0  0  0  0  0  0
    2.0341  -11.5520   12.7127 C   0  0  1  0  0  0  0  0  0  0  0  0
    2.7682  -11.4411   11.4092 N   0  0  0  0  0  0  0  0  0  0  0  0
    2.1397  -13.0184   13.2923 C   0  0  2  0  0  0  0  0  0  0  0  0
    1.6395  -13.9743   12.3551 O   0  0  0  0  0  0  0  0  0  0  0  0
    1.3510  -13.0790   14.6439 C   0  0  2  0  0  0  0  0  0  0  0  0
    1.8847  -12.0727   15.6248 O   0  0  0  0  0  0  0  0  0  0  0  0
    1.4313  -14.4391   15.2743 C   0  0  0  0  0  0  0  0  0  0  0  0
    0.7351  -15.4203   14.4886 O   0  0  0  0  0  0  0  0  0  0  0  0
   -4.7707  -12.0272   17.3937 O   0  0  0  0  0  0  0  0  0  0  0  0
   -6.7421  -13.2249   15.6859 O   0  0  0  0  0  0  0  0  0  0  0  0
    5.1486   -7.3059   21.6943 N   0  0  0  0  0  0  0  0  0  0  0  0
    1.7394   -7.9031   18.0730 C   0  0  0  0  0  0  0  0  0  0  0  0
    1.1670   -6.8777   18.4254 O   0  0  0  0  0  0  0  0  0  0  0  0
    3.1839   -8.2645   18.4890 C   0  0  1  0  0  0  0  0  0  0  0  0
    3.5311   -7.5915   19.8324 C   0  0  0  0  0  0  0  0  0  0  0  0
    4.9674   -7.7940   20.3287 C   0  0  0  0  0  0  0  0  0  0  0  0
    3.3029   -9.7018   18.5857 O   0  0  0  0  0  0  0  0  0  0  0  0
  1  2  1  6  0  0  0
  1  3  1  0  0  0  0
  1  8  1  0  0  0  0
  3  4  1  0  0  0  0
  3 32  1  6  0  0  0
  4  5  1  0  0  0  0
  4 33  1  1  0  0  0
  5  6  1  6  0  0  0
  5  7  1  0  0  0  0
  7  8  1  0  0  0  0
  7  9  1  1  0  0  0
  9 10  1  0  0  0  0
 11 12  1  1  0  0  0
 11 13  1  0  0  0  0
 11 19  1  0  0  0  0
 12 35  1  0  0  0  0
 13 14  1  0  0  0  0
 14 15  1  1  0  0  0
 14 16  1  0  0  0  0
 16  2  1  6  0  0  0
 16 17  1  0  0  0  0
 17 18  1  1  0  0  0
 17 19  1  0  0  0  0
 19 20  1  6  0  0  0
 21 20  1  6  0  0  0
 21 22  1  0  0  0  0
 21 29  1  0  0  0  0
 22 23  1  6  0  0  0
 22 24  1  0  0  0  0
 24 25  1  6  0  0  0
 24 26  1  0  0  0  0
 26 27  1  6  0  0  0
 26 28  1  0  0  0  0
 28 29  1  0  0  0  0
 28 30  1  1  0  0  0
 30 31  1  0  0  0  0
 34 39  1  0  0  0  0
 35 36  2  0  0  0  0
 37 35  1  1  0  0  0
 37 38  1  0  0  0  0
 37 40  1  0  0  0  0
 38 39  1  0  0  0  0
M  END
>  <CHROM.1>
-87.23712496,168.24837829,-52.18914003,-73.72845901,73.12345229,-171.05836012
-67.15242549,-154.28766911,-176.45589889,-171.05190336,-1.24571037,-10.30324904
15.94949658,2.97532803,0.07043515,-2.34464035

>  <Name>
2g5q_lig

>  <RI>
9.52566e+06

>  <Rbt.Current_Directory>
/home/itssahil/PROJECTS/Mol_Feturizer/New_Systems/rnas/2g5q

>  <Rbt.Executable>
rbdock ($Id: //depot/dev/client3/rdock/2013.1/src/exe/rbdock.cxx#4 $)

>  <Rbt.Library>
libRbt.so (2013.1, Build901 2013/11/27)

>  <Rbt.Parameter_File>
/export/apps/rDock/src/rDock_2013.1_src/data/scripts/dock_solv.prm

>  <Rbt.Receptor>
prm/pocket_docking_4.prm

>  <SCORE>
-18.5177

>  <SCORE.INTER>
-13.0542

>  <SCORE.INTER.CONST>
1

>  <SCORE.INTER.POLAR>
-1.76117

>  <SCORE.INTER.ROT>
10

>  <SCORE.INTER.SOLV>
21.2578

>  <SCORE.INTER.VDW>
-20.1848

>  <SCORE.INTER.norm>
-0.326354

>  <SCORE.INTRA>
-5.48865

>  <SCORE.INTRA.DIHEDRAL>
-14.8798

>  <SCORE.INTRA.DIHEDRAL.0>
22.5778

>  <SCORE.INTRA.POLAR>
0

>  <SCORE.INTRA.POLAR.0>
0

>  <SCORE.INTRA.REPUL>
0.0013708

>  <SCORE.INTRA.REPUL.0>
0

>  <SCORE.INTRA.SOLV>
0.352726

>  <SCORE.INTRA.SOLV.lig_0>
-102.332

>  <SCORE.INTRA.VDW>
1.76804

>  <SCORE.INTRA.VDW.0>
-5.08747

>  <SCORE.INTRA.norm>
-0.137216

>  <SCORE.RESTR>
0.0251592

>  <SCORE.RESTR.CAVITY>
0.0251592

>  <SCORE.RESTR.norm>
0.000628979

>  <SCORE.SYSTEM>
0

>  <SCORE.SYSTEM.CONST>
0

>  <SCORE.SYSTEM.DIHEDRAL>
0

>  <SCORE.SYSTEM.SOLV>
0

>  <SCORE.SYSTEM.norm>
0

>  <SCORE.heavy>
40

>  <SCORE.norm>
-0.462942

>  <RMSD>
8.672

$$$$
2g5q_lig
 OpenBabel11021811433D
libRbt.so/2013.1/901 2013/11/27
 40 42  0  0  0  0  0  0  0  0999 V2000
   -4.0562  -10.1132   18.1295 C   0  0  2  0  0  0  0  0  0  0  0  0
   -2.9051   -9.3660   18.4551 O   0  0  0  0  0  0  0  0  0  0  0  0
   -4.8494   -9.3570   17.0234 C   0  0  1  0  0  0  0  0  0  0  0  0
   -5.4372   -8.0100   17.5467 C   0  0  2  0  0  0  0  0  0  0  0  0
   -6.3785   -8.3336   18.7358 C   0  0  2  0  0  0  0  0  0  0  0  0
   -6.9596   -7.1170   19.2325 O   0  0  0  0  0  0  0  0  0  0  0  0
   -5.5300   -9.0597   19.8569 C   0  0  2  0  0  0  0  0  0  0  0  0
   -4.9327  -10.3130   19.3136 O   0  0  0  0  0  0  0  0  0  0  0  0
   -6.3644   -9.4389   21.0758 C   0  0  0  0  0  0  0  0  0  0  0  0
   -7.3678  -10.5044   20.7602 N   0  0  0  0  0  0  0  0  0  0  0  0
    1.2898  -10.2726   17.6434 C   0  0  2  0  0  0  0  0  0  0  0  0
    2.5498  -10.4580   16.9338 N   0  0  0  0  0  0  0  0  0  0  0  0
    0.1746  -11.2251   17.0393 C   0  0  0  0  0  0  0  0  0  0  0  0
   -1.1905  -11.0326   17.8100 C   0  0  2  0  0  0  0  0  0  0  0  0
   -2.2244  -11.9391   17.2414 N   0  0  0  0  0  0  0  0  0  0  0  0
   -1.6387   -9.5197   17.7190 C   0  0  2  0  0  0  0  0  0  0  0  0
   -0.5029   -8.6034   18.3251 C   0  0  2  0  0  0  0  0  0  0  0  0
   -0.9082   -7.2337   18.2359 O   0  0  0  0  0  0  0  0  0  0  0  0
    0.8453   -8.7994   17.5322 C   0  0  1  0  0  0  0  0  0  0  0  0
    1.8927   -7.9636   18.1002 O   0  0  0  0  0  0  0  0  0  0  0  0
    1.8139   -7.3460   19.3614 C   0  0  2  0  0  0  0  0  0  0  0  0
    3.2712   -6.9615   19.7877 C   0  0  2  0  0  0  0  0  0  0  0  0
    3.8147   -6.0884   18.8503 O   0  0  0  0  0  0  0  0  0  0  0  0
    4.1727   -8.2432   19.9530 C   0  0  1  0  0  0  0  0  0  0  0  0
    5.5698   -7.8855   20.3658 N   0  0  0  0  0  0  0  0  0  0  0  0
    3.4974   -9.1903   21.0227 C   0  0  2  0  0  0  0  0  0  0  0  0
    4.2766  -10.3716   21.2218 O   0  0  0  0  0  0  0  0  0  0  0  0
    2.0493   -9.5380   20.5383 C   0  0  2  0  0  0  0  0  0  0  0  0
    1.2356   -8.2907   20.3336 O   0  0  0  0  0  0  0  0  0  0  0  0
    1.3289  -10.4138   21.5220 C   0  0  0  0  0  0  0  0  0  0  0  0
    0.0093  -10.7434   21.0583 O   0  0  0  0  0  0  0  0  0  0  0  0
   -3.9518   -9.1338   15.8820 O   0  0  0  0  0  0  0  0  0  0  0  0
   -6.1375   -7.3917   16.5344 O   0  0  0  0  0  0  0  0  0  0  0  0
    7.6889  -10.0237   17.0767 N   0  0  0  0  0  0  0  0  0  0  0  0
    2.8716   -9.8870   15.7104 C   0  0  0  0  0  0  0  0  0  0  0  0
    2.1169   -9.1574   15.0768 O   0  0  0  0  0  0  0  0  0  0  0  0
    4.2840  -10.2874   15.2255 C   0  0  1  0  0  0  0  0  0  0  0  0
    5.3308   -9.9418   16.3039 C   0  0  0  0  0  0  0  0  0  0  0  0
    6.7819  -10.3019   15.9650 C   0  0  0  0  0  0  0  0  0  0  0  0
    4.2984  -11.7016   14.9265 O   0  0  0  0  0  0  0  0  0  0  0  0
  1  2  1  1  0  0  0
  1  3  1  0  0  0  0
  1  8  1  0  0  0  0
  3  4  1  0  0  0  0
  3 32  1  6  0  0  0
  4  5  1  0  0  0  0
  4 33  1  6  0  0  0
  5  6  1  1  0  0  0
  5  7  1  0  0  0  0
  7  8  1  0  0  0  0
  7  9  1  1  0  0  0
  9 10  1  0  0  0  0
 11 12  1  6  0  0  0
 11 13  1  0  0  0  0
 11 19  1  0  0  0  0
 12 35  1  0  0  0  0
 13 14  1  0  0  0  0
 14 15  1  6  0  0  0
 14 16  1  0  0  0  0
 16  2  1  1  0  0  0
 16 17  1  0  0  0  0
 17 18  1  6  0  0  0
 17 19  1  0  0  0  0
 19 20  1  1  0  0  0
 21 20  1  6  0  0  0
 21 22  1  0  0  0  0
 21 29  1  0  0  0  0
 22 23  1  6  0  0  0
 22 24  1  0  0  0  0
 24 25  1  1  0  0  0
 24 26  1  0  0  0  0
 26 27  1  6  0  0  0
 26 28  1  0  0  0  0
 28 29  1  0  0  0  0
 28 30  1  1  0  0  0
 30 31  1  0  0  0  0
 34 39  1  0  0  0  0
 35 36  2  0  0  0  0
 37 35  1  1  0  0  0
 37 38  1  0  0  0  0
 37 40  1  0  0  0  0
 38 39  1  0  0  0  0
M  END
>  <CHROM.1>
-87.31747666,67.48078508,80.59408508,-57.69948030,-104.37108911,161.48182453
-179.11367337,-55.03464225,179.25162721,-176.09034397,-0.02807835,-9.27328168
18.33593749,3.05161467,-0.01565725,1.29793788

>  <Name>
2g5q_lig

>  <RI>
0

>  <Rbt.Current_Directory>
/home/itssahil/PROJECTS/Mol_Feturizer/New_Systems/rnas/2g5q

>  <Rbt.Executable>
rbdock ($Id: //depot/dev/client3/rdock/2013.1/src/exe/rbdock.cxx#4 $)

>  <Rbt.Library>
libRbt.so (2013.1, Build901 2013/11/27)

>  <Rbt.Parameter_File>
/export/apps/rDock/src/rDock_2013.1_src/data/scripts/dock_solv.prm

>  <Rbt.Receptor>
prm/pocket_docking_5.prm

>  <SCORE>
-9.40509

>  <SCORE.INTER>
-7.69651

>  <SCORE.INTER.CONST>
1

>  <SCORE.INTER.POLAR>
-2.1801

>  <SCORE.INTER.ROT>
10

>  <SCORE.INTER.SOLV>
10.7516

>  <SCORE.INTER.VDW>
-11.7145

>  <SCORE.INTER.norm>
-0.192413

>  <SCORE.INTRA>
-1.70859

>  <SCORE.INTRA.DIHEDRAL>
-10.4027

>  <SCORE.INTRA.DIHEDRAL.0>
22.5778

>  <SCORE.INTRA.POLAR>
0

>  <SCORE.INTRA.POLAR.0>
0

>  <SCORE.INTRA.REPUL>
0

>  <SCORE.INTRA.REPUL.0>
0

>  <SCORE.INTRA.SOLV>
3.31234

>  <SCORE.INTRA.SOLV.lig_0>
-102.332

>  <SCORE.INTRA.VDW>
1.83659

>  <SCORE.INTRA.VDW.0>
-5.08747

>  <SCORE.INTRA.norm>
-0.0427147

>  <SCORE.RESTR>
0

>  <SCORE.RESTR.CAVITY>
0

>  <SCORE.RESTR.norm>
0

>  <SCORE.SYSTEM>
0

>  <SCORE.SYSTEM.CONST>
0

>  <SCORE.SYSTEM.DIHEDRAL>
0

>  <SCORE.SYSTEM.SOLV>
0

>  <SCORE.SYSTEM.norm>
0

>  <SCORE.heavy>
40

>  <SCORE.norm>
-0.235127

>  <RMSD>
8.677

$$$$
2g5q_lig
 OpenBabel11021811433D
libRbt.so/2013.1/901 2013/11/27
 40 42  0  0  0  0  0  0  0  0999 V2000
    2.3927  -11.6900   15.1896 C   0  0  2  0  0  0  0  0  0  0  0  0
    1.6244  -10.5550   14.8566 O   0  0  0  0  0  0  0  0  0  0  0  0
    2.7283  -12.4698   13.8842 C   0  0  1  0  0  0  0  0  0  0  0  0
    1.4527  -13.0846   13.2296 C   0  0  2  0  0  0  0  0  0  0  0  0
    0.8069  -14.0460   14.2610 C   0  0  2  0  0  0  0  0  0  0  0  0
   -0.3619  -14.6520   13.6856 O   0  0  0  0  0  0  0  0  0  0  0  0
    0.4388  -13.2116   15.5541 C   0  0  2  0  0  0  0  0  0  0  0  0
    1.6664  -12.5878   16.1258 O   0  0  0  0  0  0  0  0  0  0  0  0
   -0.1944  -14.0659   16.6472 C   0  0  0  0  0  0  0  0  0  0  0  0
    0.7611  -15.0832   17.1894 N   0  0  0  0  0  0  0  0  0  0  0  0
    1.8772   -8.1649   18.5036 C   0  0  2  0  0  0  0  0  0  0  0  0
    1.7308   -7.0590   19.4423 N   0  0  0  0  0  0  0  0  0  0  0  0
    2.6976   -7.6977   17.2291 C   0  0  0  0  0  0  0  0  0  0  0  0
    2.8648   -8.8948   16.2125 C   0  0  2  0  0  0  0  0  0  0  0  0
    3.6452   -8.4468   15.0275 N   0  0  0  0  0  0  0  0  0  0  0  0
    1.4394   -9.4334   15.7930 C   0  0  2  0  0  0  0  0  0  0  0  0
    0.6521   -9.8843   17.0867 C   0  0  2  0  0  0  0  0  0  0  0  0
   -0.6405  -10.3655   16.7050 O   0  0  0  0  0  0  0  0  0  0  0  0
    0.4831   -8.6717   18.0798 C   0  0  1  0  0  0  0  0  0  0  0  0
   -0.2315   -9.0928   19.2758 O   0  0  0  0  0  0  0  0  0  0  0  0
   -0.8716   -8.2112   20.1652 C   0  0  2  0  0  0  0  0  0  0  0  0
   -1.5566   -9.0790   21.2747 C   0  0  2  0  0  0  0  0  0  0  0  0
   -0.5916   -9.8282   21.9408 O   0  0  0  0  0  0  0  0  0  0  0  0
   -2.6696  -10.0109   20.6619 C   0  0  1  0  0  0  0  0  0  0  0  0
   -3.3351  -10.8432   21.7178 N   0  0  0  0  0  0  0  0  0  0  0  0
   -3.7255   -9.1001   19.9182 C   0  0  2  0  0  0  0  0  0  0  0  0
   -4.7682   -9.8919   19.3456 O   0  0  0  0  0  0  0  0  0  0  0  0
   -2.9801   -8.2628   18.8247 C   0  0  2  0  0  0  0  0  0  0  0  0
   -1.8867   -7.4310   19.4352 O   0  0  0  0  0  0  0  0  0  0  0  0
   -3.9160   -7.3455   18.0925 C   0  0  0  0  0  0  0  0  0  0  0  0
   -4.4123   -6.3092   18.9554 O   0  0  0  0  0  0  0  0  0  0  0  0
    3.4067  -11.5519   12.9593 O   0  0  0  0  0  0  0  0  0  0  0  0
    1.8086  -13.7718   12.0900 O   0  0  0  0  0  0  0  0  0  0  0  0
    1.9139   -1.1211   20.4905 N   0  0  0  0  0  0  0  0  0  0  0  0
    2.6143   -5.9966   19.5725 C   0  0  0  0  0  0  0  0  0  0  0  0
    3.6365   -5.8720   18.9069 O   0  0  0  0  0  0  0  0  0  0  0  0
    2.1749   -4.9940   20.6643 C   0  0  1  0  0  0  0  0  0  0  0  0
    2.2362   -3.5542   20.1152 C   0  0  0  0  0  0  0  0  0  0  0  0
    1.8620   -2.4457   21.1059 C   0  0  0  0  0  0  0  0  0  0  0  0
    0.8365   -5.3242   21.0990 O   0  0  0  0  0  0  0  0  0  0  0  0
  1  2  1  6  0  0  0
  1  3  1  0  0  0  0
  1  8  1  0  0  0  0
  3  4  1  0  0  0  0
  3 32  1  6  0  0  0
  4  5  1  0  0  0  0
  4 33  1  6  0  0  0
  5  6  1  6  0  0  0
  5  7  1  0  0  0  0
  7  8  1  0  0  0  0
  7  9  1  1  0  0  0
  9 10  1  0  0  0  0
 11 12  1  1  0  0  0
 11 13  1  0  0  0  0
 11 19  1  0  0  0  0
 12 35  1  0  0  0  0
 13 14  1  0  0  0  0
 14 15  1  6  0  0  0
 14 16  1  0  0  0  0
 16  2  1  6  0  0  0
 16 17  1  0  0  0  0
 17 18  1  6  0  0  0
 17 19  1  0  0  0  0
 19 20  1  1  0  0  0
 21 20  1  6  0  0  0
 21 22  1  0  0  0  0
 21 29  1  0  0  0  0
 22 23  1  6  0  0  0
 22 24  1  0  0  0  0
 24 25  1  1  0  0  0
 24 26  1  0  0  0  0
 26 27  1  6  0  0  0
 26 28  1  0  0  0  0
 28 29  1  0  0  0  0
 28 30  1  1  0  0  0
 30 31  1  0  0  0  0
 34 39  1  0  0  0  0
 35 36  2  0  0  0  0
 37 35  1  6  0  0  0
 37 38  1  0  0  0  0
 37 40  1  0  0  0  0
 38 39  1  0  0  0  0
M  END
>  <CHROM.1>
-163.80007780,65.38407979,-27.61012353,56.21926889,79.42427145,177.87498788
67.39516616,-131.53420544,-178.39308591,-178.48966480,0.36625065,-9.26852433
17.76547374,-1.42871969,0.53358130,0.59385658

>  <Name>
2g5q_lig

>  <RI>
0

>  <Rbt.Current_Directory>
/home/itssahil/PROJECTS/Mol_Feturizer/New_Systems/rnas/2g5q

>  <Rbt.Executable>
rbdock ($Id: //depot/dev/client3/rdock/2013.1/src/exe/rbdock.cxx#4 $)

>  <Rbt.Library>
libRbt.so (2013.1, Build901 2013/11/27)

>  <Rbt.Parameter_File>
/export/apps/rDock/src/rDock_2013.1_src/data/scripts/dock_solv.prm

>  <Rbt.Receptor>
prm/pocket_docking_5.prm

>  <SCORE>
-19.957

>  <SCORE.INTER>
-15.1758

>  <SCORE.INTER.CONST>
1

>  <SCORE.INTER.POLAR>
-1.02383

>  <SCORE.INTER.ROT>
10

>  <SCORE.INTER.SOLV>
16.0775

>  <SCORE.INTER.VDW>
-22.3302

>  <SCORE.INTER.norm>
-0.379394

>  <SCORE.INTRA>
-4.78125

>  <SCORE.INTRA.DIHEDRAL>
-16.2296

>  <SCORE.INTRA.DIHEDRAL.0>
22.5778

>  <SCORE.INTRA.POLAR>
0

>  <SCORE.INTRA.POLAR.0>
0

>  <SCORE.INTRA.REPUL>
0.0281716

>  <SCORE.INTRA.REPUL.0>
0

>  <SCORE.INTRA.SOLV>
1.36839

>  <SCORE.INTRA.SOLV.lig_0>
-102.332

>  <SCORE.INTRA.VDW>
2.50851

>  <SCORE.INTRA.VDW.0>
-5.08747

>  <SCORE.INTRA.norm>
-0.119531

>  <SCORE.RESTR>
0

>  <SCORE.RESTR.CAVITY>
0

>  <SCORE.RESTR.norm>
0

>  <SCORE.SYSTEM>
0

>  <SCORE.SYSTEM.CONST>
0

>  <SCORE.SYSTEM.DIHEDRAL>
0

>  <SCORE.SYSTEM.SOLV>
0

>  <SCORE.SYSTEM.norm>
0

>  <SCORE.heavy>
40

>  <SCORE.norm>
-0.498925

>  <RMSD>
8.685

$$$$
2g5q_lig
 OpenBabel11021811433D
libRbt.so/2013.1/901 2013/11/27
 40 42  0  0  0  0  0  0  0  0999 V2000
   -1.8578  -10.1697   16.8262 C   0  0  2  0  0  0  0  0  0  0  0  0
   -1.2564   -8.9623   16.4139 O   0  0  0  0  0  0  0  0  0  0  0  0
   -3.3523   -9.8955   17.1670 C   0  0  1  0  0  0  0  0  0  0  0  0
   -3.5046   -8.9776   18.4192 C   0  0  2  0  0  0  0  0  0  0  0  0
   -2.8183   -9.6885   19.6144 C   0  0  2  0  0  0  0  0  0  0  0  0
   -2.9574   -8.8828   20.7959 O   0  0  0  0  0  0  0  0  0  0  0  0
   -1.2941   -9.9098   19.2512 C   0  0  2  0  0  0  0  0  0  0  0  0
   -1.1784  -10.7409   18.0188 O   0  0  0  0  0  0  0  0  0  0  0  0
   -0.5206  -10.6187   20.3579 C   0  0  0  0  0  0  0  0  0  0  0  0
   -1.0408  -11.9997   20.6109 N   0  0  0  0  0  0  0  0  0  0  0  0
    2.9501  -10.0529   15.9747 C   0  0  2  0  0  0  0  0  0  0  0  0
    4.3492  -10.0208   15.5659 N   0  0  0  0  0  0  0  0  0  0  0  0
    2.0078  -10.1265   14.7009 C   0  0  0  0  0  0  0  0  0  0  0  0
    0.4912  -10.1688   15.1397 C   0  0  2  0  0  0  0  0  0  0  0  0
   -0.3812  -10.2490   13.9369 N   0  0  0  0  0  0  0  0  0  0  0  0
    0.1576   -8.8913   16.0084 C   0  0  2  0  0  0  0  0  0  0  0  0
    1.1174   -8.8504   17.2631 C   0  0  2  0  0  0  0  0  0  0  0  0
    0.8179   -7.6896   18.0447 O   0  0  0  0  0  0  0  0  0  0  0  0
    2.6240   -8.7929   16.8029 C   0  0  1  0  0  0  0  0  0  0  0  0
    3.5061   -8.7677   17.9603 O   0  0  0  0  0  0  0  0  0  0  0  0
    4.6630   -7.9734   18.0550 C   0  0  2  0  0  0  0  0  0  0  0  0
    5.5421   -8.5603   19.2108 C   0  0  2  0  0  0  0  0  0  0  0  0
    5.8781   -9.8781   18.9161 O   0  0  0  0  0  0  0  0  0  0  0  0
    4.7979   -8.4650   20.5964 C   0  0  1  0  0  0  0  0  0  0  0  0
    5.6340   -9.0207   21.7110 N   0  0  0  0  0  0  0  0  0  0  0  0
    4.4416   -6.9490   20.8652 C   0  0  2  0  0  0  0  0  0  0  0  0
    3.7687   -6.7976   22.1167 O   0  0  0  0  0  0  0  0  0  0  0  0
    3.5636   -6.4247   19.6792 C   0  0  2  0  0  0  0  0  0  0  0  0
    4.2793   -6.5851   18.3669 O   0  0  0  0  0  0  0  0  0  0  0  0
    3.2090   -4.9757   19.8477 C   0  0  0  0  0  0  0  0  0  0  0  0
    4.3832   -4.1474   19.8440 O   0  0  0  0  0  0  0  0  0  0  0  0
   -3.9915   -9.2930   15.9894 O   0  0  0  0  0  0  0  0  0  0  0  0
   -4.8422   -8.7796   18.6821 O   0  0  0  0  0  0  0  0  0  0  0  0
    9.0363   -6.9572   12.9726 N   0  0  0  0  0  0  0  0  0  0  0  0
    4.8695   -9.2272   14.5531 C   0  0  0  0  0  0  0  0  0  0  0  0
    4.1983   -8.4583   13.8738 O   0  0  0  0  0  0  0  0  0  0  0  0
    6.3902   -9.4334   14.3641 C   0  0  1  0  0  0  0  0  0  0  0  0
    7.0492   -8.1163   13.9068 C   0  0  0  0  0  0  0  0  0  0  0  0
    8.5379   -8.2035   13.5509 C   0  0  0  0  0  0  0  0  0  0  0  0
    6.9637   -9.8926   15.6089 O   0  0  0  0  0  0  0  0  0  0  0  0
  1  2  1  1  0  0  0
  1  3  1  0  0  0  0
  1  8  1  0  0  0  0
  3  4  1  0  0  0  0
  3 32  1  6  0  0  0
  4  5  1  0  0  0  0
  4 33  1  1  0  0  0
  5  6  1  1  0  0  0
  5  7  1  0  0  0  0
  7  8  1  0  0  0  0
  7  9  1  1  0  0  0
  9 10  1  0  0  0  0
 11 12  1  6  0  0  0
 11 13  1  0  0  0  0
 11 19  1  0  0  0  0
 12 35  1  0  0  0  0
 13 14  1  0  0  0  0
 14 15  1  6  0  0  0
 14 16  1  0  0  0  0
 16  2  1  1  0  0  0
 16 17  1  0  0  0  0
 17 18  1  6  0  0  0
 17 19  1  0  0  0  0
 19 20  1  1  0  0  0
 21 20  1  1  0  0  0
 21 22  1  0  0  0  0
 21 29  1  0  0  0  0
 22 23  1  6  0  0  0
 22 24  1  0  0  0  0
 24 25  1  1  0  0  0
 24 26  1  0  0  0  0
 26 27  1  1  0  0  0
 26 28  1  0  0  0  0
 28 29  1  0  0  0  0
 28 30  1  1  0  0  0
 30 31  1  0  0  0  0
 34 39  1  0  0  0  0
 35 36  2  0  0  0  0
 37 35  1  1  0  0  0
 37 38  1  0  0  0  0
 37 40  1  0  0  0  0
 38 39  1  0  0  0  0
M  END
>  <CHROM.1>
-179.38744070,62.88029508,45.57598038,40.82161885,100.83459144,-162.36370765
62.64345120,-147.72317700,-174.42937396,172.88054424,2.13532889,-8.76487236
17.56508521,2.96072253,0.22796386,1.27696352

>  <Name>
2g5q_lig

>  <RI>
2.47104e+07

>  <Rbt.Current_Directory>
/home/itssahil/PROJECTS/Mol_Feturizer/New_Systems/rnas/2g5q

>  <Rbt.Executable>
rbdock ($Id: //depot/dev/client3/rdock/2013.1/src/exe/rbdock.cxx#4 $)

>  <Rbt.Library>
libRbt.so (2013.1, Build901 2013/11/27)

>  <Rbt.Parameter_File>
/export/apps/rDock/src/rDock_2013.1_src/data/scripts/dock_solv.prm

>  <Rbt.Receptor>
prm/pocket_docking_7.prm

>  <SCORE>
-19.5102

>  <SCORE.INTER>
-15.0317

>  <SCORE.INTER.CONST>
1

>  <SCORE.INTER.POLAR>
-2.59237

>  <SCORE.INTER.ROT>
10

>  <SCORE.INTER.SOLV>
17.0522

>  <SCORE.INTER.VDW>
-17.3306

>  <SCORE.INTER.norm>
-0.375792

>  <SCORE.INTRA>
-4.47982

>  <SCORE.INTRA.DIHEDRAL>
-11.6663

>  <SCORE.INTRA.DIHEDRAL.0>
22.5778

>  <SCORE.INTRA.POLAR>
0

>  <SCORE.INTRA.POLAR.0>
0

>  <SCORE.INTRA.REPUL>
0

>  <SCORE.INTRA.REPUL.0>
0

>  <SCORE.INTRA.SOLV>
1.7453

>  <SCORE.INTRA.SOLV.lig_0>
-102.332

>  <SCORE.INTRA.VDW>
0.480689

>  <SCORE.INTRA.VDW.0>
-5.08747

>  <SCORE.INTRA.norm>
-0.111995

>  <SCORE.RESTR>
0.00130379

>  <SCORE.RESTR.CAVITY>
0.00130379

>  <SCORE.RESTR.norm>
3.25948e-05

>  <SCORE.SYSTEM>
0

>  <SCORE.SYSTEM.CONST>
0

>  <SCORE.SYSTEM.DIHEDRAL>
0

>  <SCORE.SYSTEM.SOLV>
0

>  <SCORE.SYSTEM.norm>
0

>  <SCORE.heavy>
40

>  <SCORE.norm>
-0.487754

>  <RMSD>
8.693

$$$$
2g5q_lig
 OpenBabel11021811433D
libRbt.so/2013.1/901 2013/11/27
 40 42  0  0  0  0  0  0  0  0999 V2000
   -5.6808   -9.3647   16.5803 C   0  0  2  0  0  0  0  0  0  0  0  0
   -4.4581   -9.5304   15.8969 O   0  0  0  0  0  0  0  0  0  0  0  0
   -6.1840  -10.7600   17.0543 C   0  0  1  0  0  0  0  0  0  0  0  0
   -6.5703  -11.6780   15.8536 C   0  0  2  0  0  0  0  0  0  0  0  0
   -7.6892  -10.9639   15.0516 C   0  0  2  0  0  0  0  0  0  0  0  0
   -8.0899  -11.7906   13.9469 O   0  0  0  0  0  0  0  0  0  0  0  0
   -7.1282   -9.5724   14.5486 C   0  0  2  0  0  0  0  0  0  0  0  0
   -6.7128   -8.7385   15.7126 O   0  0  0  0  0  0  0  0  0  0  0  0
   -8.1565   -8.7737   13.7547 C   0  0  0  0  0  0  0  0  0  0  0  0
   -9.3145   -8.3485   14.6032 N   0  0  0  0  0  0  0  0  0  0  0  0
   -0.3429   -8.6097   17.0348 C   0  0  2  0  0  0  0  0  0  0  0  0
    0.9348   -8.6384   17.7366 N   0  0  0  0  0  0  0  0  0  0  0  0
   -1.5121   -8.2351   18.0390 C   0  0  0  0  0  0  0  0  0  0  0  0
   -2.8973   -8.1958   17.2813 C   0  0  2  0  0  0  0  0  0  0  0  0
   -3.9833   -7.8326   18.2314 N   0  0  0  0  0  0  0  0  0  0  0  0
   -3.1688   -9.5986   16.6057 C   0  0  2  0  0  0  0  0  0  0  0  0
   -1.9834   -9.9385   15.6178 C   0  0  2  0  0  0  0  0  0  0  0  0
   -2.2282  -11.2118   15.0122 O   0  0  0  0  0  0  0  0  0  0  0  0
   -0.6137   -9.9879   16.3966 C   0  0  1  0  0  0  0  0  0  0  0  0
    0.4779  -10.2889   15.4823 O   0  0  0  0  0  0  0  0  0  0  0  0
    1.6942  -10.8787   15.8708 C   0  0  2  0  0  0  0  0  0  0  0  0
    2.6414  -10.8666   14.6234 C   0  0  2  0  0  0  0  0  0  0  0  0
    2.8466   -9.5543   14.2083 O   0  0  0  0  0  0  0  0  0  0  0  0
    2.0527  -11.7422   13.4533 C   0  0  1  0  0  0  0  0  0  0  0  0
    2.9553  -11.7407   12.2551 N   0  0  0  0  0  0  0  0  0  0  0  0
    1.8395  -13.2124   13.9923 C   0  0  2  0  0  0  0  0  0  0  0  0
    1.3119  -14.0591   12.9692 O   0  0  0  0  0  0  0  0  0  0  0  0
    0.8856  -13.1557   15.2330 C   0  0  2  0  0  0  0  0  0  0  0  0
    1.4487  -12.2654   16.3055 O   0  0  0  0  0  0  0  0  0  0  0  0
    0.6588  -14.5174   15.8230 C   0  0  0  0  0  0  0  0  0  0  0  0
   -0.3025  -14.4702   16.8900 O   0  0  0  0  0  0  0  0  0  0  0  0
   -5.1320  -11.3766   17.8737 O   0  0  0  0  0  0  0  0  0  0  0  0
   -7.0195  -12.8900   16.3295 O   0  0  0  0  0  0  0  0  0  0  0  0
    5.0371  -10.2542   19.9899 N   0  0  0  0  0  0  0  0  0  0  0  0
    2.1289   -8.1277   17.2473 C   0  0  0  0  0  0  0  0  0  0  0  0
    2.2455   -7.5937   16.1497 O   0  0  0  0  0  0  0  0  0  0  0  0
    3.3027   -8.3225   18.2347 C   0  0  1  0  0  0  0  0  0  0  0  0
    4.1832   -9.5048   17.7822 C   0  0  0  0  0  0  0  0  0  0  0  0
    5.4107   -9.7946   18.6538 C   0  0  0  0  0  0  0  0  0  0  0  0
    4.0728   -7.1010   18.3011 O   0  0  0  0  0  0  0  0  0  0  0  0
  1  2  1  6  0  0  0
  1  3  1  0  0  0  0
  1  8  1  0  0  0  0
  3  4  1  0  0  0  0
  3 32  1  6  0  0  0
  4  5  1  0  0  0  0
  4 33  1  1  0  0  0
  5  6  1  6  0  0  0
  5  7  1  0  0  0  0
  7  8  1  0  0  0  0
  7  9  1  1  0  0  0
  9 10  1  0  0  0  0
 11 12  1  1  0  0  0
 11 13  1  0  0  0  0
 11 19  1  0  0  0  0
 12 35  1  0  0  0  0
 13 14  1  0  0  0  0
 14 15  1  1  0  0  0
 14 16  1  0  0  0  0
 16  2  1  6  0  0  0
 16 17  1  0  0  0  0
 17 18  1  1  0  0  0
 17 19  1  0  0  0  0
 19 20  1  6  0  0  0
 21 20  1  6  0  0  0
 21 22  1  0  0  0  0
 21 29  1  0  0  0  0
 22 23  1  6  0  0  0
 22 24  1  0  0  0  0
 24 25  1  6  0  0  0
 24 26  1  0  0  0  0
 26 27  1  6  0  0  0
 26 28  1  0  0  0  0
 28 29  1  0  0  0  0
 28 30  1  1  0  0  0
 30 31  1  0  0  0  0
 34 39  1  0  0  0  0
 35 36  2  0  0  0  0
 37 35  1  6  0  0  0
 37 38  1  0  0  0  0
 37 40  1  0  0  0  0
 38 39  1  0  0  0  0
M  END
>  <CHROM.1>
-84.53839722,65.84055932,-138.16489641,-65.79797055,85.09077437,-173.33488654
-175.22965216,102.08404296,178.60857078,66.25327867,-1.33794834,-10.36509332
16.05468604,3.08448969,0.09020728,-2.54619497

>  <Name>
2g5q_lig

>  <RI>
2.90231e+07

>  <Rbt.Current_Directory>
/home/itssahil/PROJECTS/Mol_Feturizer/New_Systems/rnas/2g5q

>  <Rbt.Executable>
rbdock ($Id: //depot/dev/client3/rdock/2013.1/src/exe/rbdock.cxx#4 $)

>  <Rbt.Library>
libRbt.so (2013.1, Build901 2013/11/27)

>  <Rbt.Parameter_File>
/export/apps/rDock/src/rDock_2013.1_src/data/scripts/dock_solv.prm

>  <Rbt.Receptor>
prm/pocket_docking_6.prm

>  <SCORE>
-20.4206

>  <SCORE.INTER>
-14.8183

>  <SCORE.INTER.CONST>
1

>  <SCORE.INTER.POLAR>
-2.78544

>  <SCORE.INTER.ROT>
10

>  <SCORE.INTER.SOLV>
11.4583

>  <SCORE.INTER.VDW>
-14.6802

>  <SCORE.INTER.norm>
-0.370458

>  <SCORE.INTRA>
-5.60225

>  <SCORE.INTRA.DIHEDRAL>
-13.4731

>  <SCORE.INTRA.DIHEDRAL.0>
22.5778

>  <SCORE.INTRA.POLAR>
0

>  <SCORE.INTRA.POLAR.0>
0

>  <SCORE.INTRA.REPUL>
0

>  <SCORE.INTRA.REPUL.0>
0

>  <SCORE.INTRA.SOLV>
3.59978

>  <SCORE.INTRA.SOLV.lig_0>
-102.332

>  <SCORE.INTRA.VDW>
-0.665613

>  <SCORE.INTRA.VDW.0>
-5.08747

>  <SCORE.INTRA.norm>
-0.140056

>  <SCORE.RESTR>
0

>  <SCORE.RESTR.CAVITY>
0

>  <SCORE.RESTR.norm>
0

>  <SCORE.SYSTEM>
0

>  <SCORE.SYSTEM.CONST>
0

>  <SCORE.SYSTEM.DIHEDRAL>
0

>  <SCORE.SYSTEM.SOLV>
0

>  <SCORE.SYSTEM.norm>
0

>  <SCORE.heavy>
40

>  <SCORE.norm>
-0.510514

>  <RMSD>
8.695

$$$$
2g5q_lig
 OpenBabel11021811433D
libRbt.so/2013.1/901 2013/11/27
 40 42  0  0  0  0  0  0  0  0999 V2000
   -5.1268  -11.2941   15.3689 C   0  0  2  0  0  0  0  0  0  0  0  0
   -4.4481  -10.4661   16.2872 O   0  0  0  0  0  0  0  0  0  0  0  0
   -6.5183  -10.6667   15.0607 C   0  0  1  0  0  0  0  0  0  0  0  0
   -7.4528  -10.6816   16.3097 C   0  0  2  0  0  0  0  0  0  0  0  0
   -7.6314  -12.1576   16.7507 C   0  0  2  0  0  0  0  0  0  0  0  0
   -8.5072  -12.2157   17.8883 O   0  0  0  0  0  0  0  0  0  0  0  0
   -6.2048  -12.7475   17.0985 C   0  0  2  0  0  0  0  0  0  0  0  0
   -5.3148  -12.6679   15.9051 O   0  0  0  0  0  0  0  0  0  0  0  0
   -6.2603  -14.2080   17.5338 C   0  0  0  0  0  0  0  0  0  0  0  0
   -7.2891  -14.4385   18.5970 N   0  0  0  0  0  0  0  0  0  0  0  0
   -0.1399   -9.7706   16.4699 C   0  0  2  0  0  0  0  0  0  0  0  0
    1.2711   -9.9280   16.8017 N   0  0  0  0  0  0  0  0  0  0  0  0
   -0.9972   -9.5871   17.7918 C   0  0  0  0  0  0  0  0  0  0  0  0
   -2.5257   -9.4090   17.4364 C   0  0  2  0  0  0  0  0  0  0  0  0
   -3.3169   -9.2266   18.6833 N   0  0  0  0  0  0  0  0  0  0  0  0
   -3.0260  -10.6636   16.6157 C   0  0  2  0  0  0  0  0  0  0  0  0
   -2.1473  -10.8160   15.3113 C   0  0  2  0  0  0  0  0  0  0  0  0
   -2.5979  -11.9562   14.5730 O   0  0  0  0  0  0  0  0  0  0  0  0
   -0.6289  -11.0079   15.6889 C   0  0  1  0  0  0  0  0  0  0  0  0
    0.1797  -11.1357   14.4855 O   0  0  0  0  0  0  0  0  0  0  0  0
   -0.0627  -12.0744   13.4665 C   0  0  2  0  0  0  0  0  0  0  0  0
    0.3651  -13.4793   14.0110 C   0  0  2  0  0  0  0  0  0  0  0  0
   -0.3820  -13.7859   15.1443 O   0  0  0  0  0  0  0  0  0  0  0  0
    1.9085  -13.5220   14.3250 C   0  0  1  0  0  0  0  0  0  0  0  0
    2.3291  -14.8656   14.8429 N   0  0  0  0  0  0  0  0  0  0  0  0
    2.6943  -13.1602   13.0025 C   0  0  2  0  0  0  0  0  0  0  0  0
    4.1058  -13.1900   13.2238 O   0  0  0  0  0  0  0  0  0  0  0  0
    2.2241  -11.7490   12.5127 C   0  0  2  0  0  0  0  0  0  0  0  0
    0.7391  -11.7266   12.2799 O   0  0  0  0  0  0  0  0  0  0  0  0
    2.9065  -11.3469   11.2375 C   0  0  0  0  0  0  0  0  0  0  0  0
    4.3016  -11.0795   11.4541 O   0  0  0  0  0  0  0  0  0  0  0  0
   -6.3095   -9.2966   14.5733 O   0  0  0  0  0  0  0  0  0  0  0  0
   -8.6701  -10.1290   15.9776 O   0  0  0  0  0  0  0  0  0  0  0  0
    6.5052   -9.0081   16.6807 N   0  0  0  0  0  0  0  0  0  0  0  0
    2.0855   -8.9353   17.3284 C   0  0  0  0  0  0  0  0  0  0  0  0
    1.7047   -7.7952   17.5700 O   0  0  0  0  0  0  0  0  0  0  0  0
    3.5343   -9.4225   17.5612 C   0  0  1  0  0  0  0  0  0  0  0  0
    4.4575   -8.2197   17.8426 C   0  0  0  0  0  0  0  0  0  0  0  0
    5.9535   -8.5373   17.9495 C   0  0  0  0  0  0  0  0  0  0  0  0
    3.5485  -10.3538   18.6666 O   0  0  0  0  0  0  0  0  0  0  0  0
  1  2  1  1  0  0  0
  1  3  1  0  0  0  0
  1  8  1  0  0  0  0
  3  4  1  0  0  0  0
  3 32  1  1  0  0  0
  4  5  1  0  0  0  0
  4 33  1  6  0  0  0
  5  6  1  1  0  0  0
  5  7  1  0  0  0  0
  7  8  1  0  0  0  0
  7  9  1  6  0  0  0
  9 10  1  0  0  0  0
 11 12  1  1  0  0  0
 11 13  1  0  0  0  0
 11 19  1  0  0  0  0
 12 35  1  0  0  0  0
 13 14  1  0  0  0  0
 14 15  1  1  0  0  0
 14 16  1  0  0  0  0
 16  2  1  6  0  0  0
 16 17  1  0  0  0  0
 17 18  1  1  0  0  0
 17 19  1  0  0  0  0
 19 20  1  6  0  0  0
 21 20  1  1  0  0  0
 21 22  1  0  0  0  0
 21 29  1  0  0  0  0
 22 23  1  1  0  0  0
 22 24  1  0  0  0  0
 24 25  1  6  0  0  0
 24 26  1  0  0  0  0
 26 27  1  1  0  0  0
 26 28  1  0  0  0  0
 28 29  1  0  0  0  0
 28 30  1  6  0  0  0
 30 31  1  0  0  0  0
 34 39  1  0  0  0  0
 35 36  2  0  0  0  0
 37 35  1  1  0  0  0
 37 38  1  0  0  0  0
 37 40  1  0  0  0  0
 38 39  1  0  0  0  0
M  END
>  <CHROM.1>
-169.94855495,-49.84793737,-68.45343226,168.88647962,-173.64203903,-73.41523448
-69.32714427,167.46497562,-173.90488516,65.46194028,-1.13202187,-11.17104865
15.73730614,3.09157452,0.16022089,0.89589678

>  <Name>
2g5q_lig

>  <RI>
9.52566e+06

>  <Rbt.Current_Directory>
/home/itssahil/PROJECTS/Mol_Feturizer/New_Systems/rnas/2g5q

>  <Rbt.Executable>
rbdock ($Id: //depot/dev/client3/rdock/2013.1/src/exe/rbdock.cxx#4 $)

>  <Rbt.Library>
libRbt.so (2013.1, Build901 2013/11/27)

>  <Rbt.Parameter_File>
/export/apps/rDock/src/rDock_2013.1_src/data/scripts/dock_solv.prm

>  <Rbt.Receptor>
prm/pocket_docking_4.prm

>  <SCORE>
-13.9251

>  <SCORE.INTER>
-8.08472

>  <SCORE.INTER.CONST>
1

>  <SCORE.INTER.POLAR>
-0.390305

>  <SCORE.INTER.ROT>
10

>  <SCORE.INTER.SOLV>
10.5475

>  <SCORE.INTER.VDW>
-17.8713

>  <SCORE.INTER.norm>
-0.202118

>  <SCORE.INTRA>
-5.84034

>  <SCORE.INTRA.DIHEDRAL>
-18.5036

>  <SCORE.INTRA.DIHEDRAL.0>
22.5778

>  <SCORE.INTRA.POLAR>
0

>  <SCORE.INTRA.POLAR.0>
0

>  <SCORE.INTRA.REPUL>
0

>  <SCORE.INTRA.REPUL.0>
0

>  <SCORE.INTRA.SOLV>
1.07015

>  <SCORE.INTRA.SOLV.lig_0>
-102.332

>  <SCORE.INTRA.VDW>
2.87638

>  <SCORE.INTRA.VDW.0>
-5.08747

>  <SCORE.INTRA.norm>
-0.146008

>  <SCORE.RESTR>
0

>  <SCORE.RESTR.CAVITY>
0

>  <SCORE.RESTR.norm>
0

>  <SCORE.SYSTEM>
0

>  <SCORE.SYSTEM.CONST>
0

>  <SCORE.SYSTEM.DIHEDRAL>
0

>  <SCORE.SYSTEM.SOLV>
0

>  <SCORE.SYSTEM.norm>
0

>  <SCORE.heavy>
40

>  <SCORE.norm>
-0.348126

>  <RMSD>
8.702

$$$$
2g5q_lig
 OpenBabel11021811433D
libRbt.so/2013.1/901 2013/11/27
 40 42  0  0  0  0  0  0  0  0999 V2000
   -5.8707   -9.4263   16.4347 C   0  0  2  0  0  0  0  0  0  0  0  0
   -4.6646   -9.5773   15.7191 O   0  0  0  0  0  0  0  0  0  0  0  0
   -6.3878  -10.8352   16.8499 C   0  0  1  0  0  0  0  0  0  0  0  0
   -6.8130  -11.6865   15.6137 C   0  0  2  0  0  0  0  0  0  0  0  0
   -7.9353  -10.9161   14.8708 C   0  0  2  0  0  0  0  0  0  0  0  0
   -8.3715  -11.6808   13.7353 O   0  0  0  0  0  0  0  0  0  0  0  0
   -7.3610   -9.5105   14.4253 C   0  0  2  0  0  0  0  0  0  0  0  0
   -6.9089   -8.7418   15.6201 O   0  0  0  0  0  0  0  0  0  0  0  0
   -8.3912   -8.6574   13.6927 C   0  0  0  0  0  0  0  0  0  0  0  0
   -8.9259   -9.3448   12.4748 N   0  0  0  0  0  0  0  0  0  0  0  0
   -0.4747   -9.0552   16.8371 C   0  0  2  0  0  0  0  0  0  0  0  0
    0.8065   -9.2300   17.5106 N   0  0  0  0  0  0  0  0  0  0  0  0
   -1.5971   -8.6622   17.8867 C   0  0  0  0  0  0  0  0  0  0  0  0
   -2.9855   -8.4648   17.1602 C   0  0  2  0  0  0  0  0  0  0  0  0
   -4.0266   -8.0859   18.1534 N   0  0  0  0  0  0  0  0  0  0  0  0
   -3.3748   -9.7928   16.3967 C   0  0  2  0  0  0  0  0  0  0  0  0
   -2.2332  -10.1535   15.3654 C   0  0  2  0  0  0  0  0  0  0  0  0
   -2.5848  -11.3595   14.6798 O   0  0  0  0  0  0  0  0  0  0  0  0
   -0.8608  -10.3613   16.1125 C   0  0  1  0  0  0  0  0  0  0  0  0
    0.1912  -10.6813   15.1591 O   0  0  0  0  0  0  0  0  0  0  0  0
    1.4678  -11.1495   15.5186 C   0  0  2  0  0  0  0  0  0  0  0  0
    2.4079  -10.9457   14.2826 C   0  0  2  0  0  0  0  0  0  0  0  0
    2.4587   -9.5942   13.9551 O   0  0  0  0  0  0  0  0  0  0  0  0
    1.9263  -11.8056   13.0533 C   0  0  1  0  0  0  0  0  0  0  0  0
    2.8234  -11.6206   11.8653 N   0  0  0  0  0  0  0  0  0  0  0  0
    1.8860  -13.3226   13.4941 C   0  0  2  0  0  0  0  0  0  0  0  0
    1.4615  -14.1563   12.4138 O   0  0  0  0  0  0  0  0  0  0  0  0
    0.9311  -13.4587   14.7279 C   0  0  2  0  0  0  0  0  0  0  0  0
    1.3857  -12.5808   15.8604 O   0  0  0  0  0  0  0  0  0  0  0  0
    0.8645  -14.8731   15.2264 C   0  0  0  0  0  0  0  0  0  0  0  0
   -0.1178  -15.0143   16.2657 O   0  0  0  0  0  0  0  0  0  0  0  0
   -5.3304  -11.5080   17.6163 O   0  0  0  0  0  0  0  0  0  0  0  0
   -7.2730  -12.9133   16.0387 O   0  0  0  0  0  0  0  0  0  0  0  0
    1.7648   -6.3927   19.0789 N   0  0  0  0  0  0  0  0  0  0  0  0
    1.9866   -8.5857   17.1666 C   0  0  0  0  0  0  0  0  0  0  0  0
    2.0861   -7.7907   16.2384 O   0  0  0  0  0  0  0  0  0  0  0  0
    3.1690   -8.9953   18.0747 C   0  0  1  0  0  0  0  0  0  0  0  0
    2.8959   -8.5569   19.5278 C   0  0  0  0  0  0  0  0  0  0  0  0
    2.8724   -7.0441   19.7752 C   0  0  0  0  0  0  0  0  0  0  0  0
    3.3544  -10.4265   17.9934 O   0  0  0  0  0  0  0  0  0  0  0  0
  1  2  1  6  0  0  0
  1  3  1  0  0  0  0
  1  8  1  0  0  0  0
  3  4  1  0  0  0  0
  3 32  1  6  0  0  0
  4  5  1  0  0  0  0
  4 33  1  1  0  0  0
  5  6  1  6  0  0  0
  5  7  1  0  0  0  0
  7  8  1  0  0  0  0
  7  9  1  1  0  0  0
  9 10  1  0  0  0  0
 11 12  1  1  0  0  0
 11 13  1  0  0  0  0
 11 19  1  0  0  0  0
 12 35  1  0  0  0  0
 13 14  1  0  0  0  0
 14 15  1  1  0  0  0
 14 16  1  0  0  0  0
 16  2  1  6  0  0  0
 16 17  1  0  0  0  0
 17 18  1  1  0  0  0
 17 19  1  0  0  0  0
 19 20  1  6  0  0  0
 21 20  1  6  0  0  0
 21 22  1  0  0  0  0
 21 29  1  0  0  0  0
 22 23  1  6  0  0  0
 22 24  1  0  0  0  0
 24 25  1  6  0  0  0
 24 26  1  0  0  0  0
 26 27  1  6  0  0  0
 26 28  1  0  0  0  0
 28 29  1  0  0  0  0
 28 30  1  1  0  0  0
 30 31  1  0  0  0  0
 34 39  1  0  0  0  0
 35 36  2  0  0  0  0
 37 35  1  6  0  0  0
 37 38  1  0  0  0  0
 37 40  1  0  0  0  0
 38 39  1  0  0  0  0
M  END
>  <CHROM.1>
-80.27916189,-57.94881536,-126.06538681,-68.72767660,72.12779063,-162.77916822
-173.93466121,-63.82930453,-67.21684358,65.12994788,-1.65582485,-10.46171563
15.80875353,3.06727947,0.09248437,-2.44203285

>  <Name>
2g5q_lig

>  <RI>
0

>  <Rbt.Current_Directory>
/home/itssahil/PROJECTS/Mol_Feturizer/New_Systems/rnas/2g5q

>  <Rbt.Executable>
rbdock ($Id: //depot/dev/client3/rdock/2013.1/src/exe/rbdock.cxx#4 $)

>  <Rbt.Library>
libRbt.so (2013.1, Build901 2013/11/27)

>  <Rbt.Parameter_File>
/export/apps/rDock/src/rDock_2013.1_src/data/scripts/dock_solv.prm

>  <Rbt.Receptor>
prm/pocket_docking_5.prm

>  <SCORE>
-17.8078

>  <SCORE.INTER>
-13.0901

>  <SCORE.INTER.CONST>
1

>  <SCORE.INTER.POLAR>
-2.1785

>  <SCORE.INTER.ROT>
10

>  <SCORE.INTER.SOLV>
17.6909

>  <SCORE.INTER.VDW>
-17.6287

>  <SCORE.INTER.norm>
-0.327254

>  <SCORE.INTRA>
-4.71764

>  <SCORE.INTRA.DIHEDRAL>
-15.8666

>  <SCORE.INTRA.DIHEDRAL.0>
22.5778

>  <SCORE.INTRA.POLAR>
0

>  <SCORE.INTRA.POLAR.0>
0

>  <SCORE.INTRA.REPUL>
0

>  <SCORE.INTRA.REPUL.0>
0

>  <SCORE.INTRA.SOLV>
6.81521

>  <SCORE.INTRA.SOLV.lig_0>
-102.332

>  <SCORE.INTRA.VDW>
-0.191947

>  <SCORE.INTRA.VDW.0>
-5.08747

>  <SCORE.INTRA.norm>
-0.117941

>  <SCORE.RESTR>
0

>  <SCORE.RESTR.CAVITY>
0

>  <SCORE.RESTR.norm>
0

>  <SCORE.SYSTEM>
0

>  <SCORE.SYSTEM.CONST>
0

>  <SCORE.SYSTEM.DIHEDRAL>
0

>  <SCORE.SYSTEM.SOLV>
0

>  <SCORE.SYSTEM.norm>
0

>  <SCORE.heavy>
40

>  <SCORE.norm>
-0.445195

>  <RMSD>
8.714

$$$$
2g5q_lig
 OpenBabel11021811433D
libRbt.so/2013.1/901 2013/11/27
 40 42  0  0  0  0  0  0  0  0999 V2000
   -5.7954  -10.7094   16.5969 C   0  0  2  0  0  0  0  0  0  0  0  0
   -4.6404  -10.8320   15.7965 O   0  0  0  0  0  0  0  0  0  0  0  0
   -6.5681  -12.0611   16.5735 C   0  0  1  0  0  0  0  0  0  0  0  0
   -7.1479  -12.3755   15.1598 C   0  0  2  0  0  0  0  0  0  0  0  0
   -8.1061  -11.2193   14.7725 C   0  0  2  0  0  0  0  0  0  0  0  0
   -8.6802  -11.4840   13.4822 O   0  0  0  0  0  0  0  0  0  0  0  0
   -7.2779   -9.8710   14.7625 C   0  0  2  0  0  0  0  0  0  0  0  0
   -6.6873   -9.6247   16.1091 O   0  0  0  0  0  0  0  0  0  0  0  0
   -8.1300   -8.6577   14.4054 C   0  0  0  0  0  0  0  0  0  0  0  0
   -7.3792   -7.3737   14.5772 N   0  0  0  0  0  0  0  0  0  0  0  0
   -0.6257   -9.1992   16.3379 C   0  0  2  0  0  0  0  0  0  0  0  0
    0.7099   -8.9683   16.8751 N   0  0  0  0  0  0  0  0  0  0  0  0
   -1.7211   -8.9097   17.4480 C   0  0  0  0  0  0  0  0  0  0  0  0
   -3.1701   -9.1517   16.8680 C   0  0  2  0  0  0  0  0  0  0  0  0
   -4.1880   -8.8662   17.9150 N   0  0  0  0  0  0  0  0  0  0  0  0
   -3.2863  -10.6376   16.3423 C   0  0  2  0  0  0  0  0  0  0  0  0
   -2.1788  -10.8889   15.2436 C   0  0  2  0  0  0  0  0  0  0  0  0
   -2.2819  -12.2367   14.7737 O   0  0  0  0  0  0  0  0  0  0  0  0
   -0.7411  -10.6572   15.8471 C   0  0  1  0  0  0  0  0  0  0  0  0
    0.2764  -10.8772   14.8300 O   0  0  0  0  0  0  0  0  0  0  0  0
    1.6059  -11.2421   15.1082 C   0  0  2  0  0  0  0  0  0  0  0  0
    2.4748  -10.8278   13.8726 C   0  0  2  0  0  0  0  0  0  0  0  0
    2.3773   -9.4537   13.6755 O   0  0  0  0  0  0  0  0  0  0  0  0
    2.0373  -11.6149   12.5796 C   0  0  1  0  0  0  0  0  0  0  0  0
    2.8671  -11.2282   11.3912 N   0  0  0  0  0  0  0  0  0  0  0  0
    2.1661  -13.1623   12.8733 C   0  0  2  0  0  0  0  0  0  0  0  0
    1.7883  -13.9314   11.7296 O   0  0  0  0  0  0  0  0  0  0  0  0
    1.2757  -13.5108   14.1136 C   0  0  2  0  0  0  0  0  0  0  0  0
    1.6808  -12.6997   15.3127 O   0  0  0  0  0  0  0  0  0  0  0  0
    1.3700  -14.9647   14.4752 C   0  0  0  0  0  0  0  0  0  0  0  0
    0.7477  -15.7918   13.4784 O   0  0  0  0  0  0  0  0  0  0  0  0
   -5.6552  -13.1228   17.0183 O   0  0  0  0  0  0  0  0  0  0  0  0
   -7.8302  -13.5715   15.2001 O   0  0  0  0  0  0  0  0  0  0  0  0
    2.6693   -6.9930   20.7829 N   0  0  0  0  0  0  0  0  0  0  0  0
    1.2094   -9.5229   18.0452 C   0  0  0  0  0  0  0  0  0  0  0  0
    0.5700  -10.2746   18.7728 O   0  0  0  0  0  0  0  0  0  0  0  0
    2.6590   -9.0730   18.3396 C   0  0  1  0  0  0  0  0  0  0  0  0
    2.7405   -7.5331   18.3605 C   0  0  0  0  0  0  0  0  0  0  0  0
    1.9851   -6.8403   19.5005 C   0  0  0  0  0  0  0  0  0  0  0  0
    3.0793   -9.6294   19.6057 O   0  0  0  0  0  0  0  0  0  0  0  0
  1  2  1  6  0  0  0
  1  3  1  0  0  0  0
  1  8  1  0  0  0  0
  3  4  1  0  0  0  0
  3 32  1  6  0  0  0
  4  5  1  0  0  0  0
  4 33  1  1  0  0  0
  5  6  1  6  0  0  0
  5  7  1  0  0  0  0
  7  8  1  0  0  0  0
  7  9  1  1  0  0  0
  9 10  1  0  0  0  0
 11 12  1  1  0  0  0
 11 13  1  0  0  0  0
 11 19  1  0  0  0  0
 12 35  1  0  0  0  0
 13 14  1  0  0  0  0
 14 15  1  1  0  0  0
 14 16  1  0  0  0  0
 16  2  1  6  0  0  0
 16 17  1  0  0  0  0
 17 18  1  1  0  0  0
 17 19  1  0  0  0  0
 19 20  1  6  0  0  0
 21 20  1  6  0  0  0
 21 22  1  0  0  0  0
 21 29  1  0  0  0  0
 22 23  1  6  0  0  0
 22 24  1  0  0  0  0
 24 25  1  6  0  0  0
 24 26  1  0  0  0  0
 26 27  1  6  0  0  0
 26 28  1  0  0  0  0
 28 29  1  0  0  0  0
 28 30  1  1  0  0  0
 30 31  1  0  0  0  0
 34 39  1  0  0  0  0
 35 36  2  0  0  0  0
 37 35  1  1  0  0  0
 37 38  1  0  0  0  0
 37 40  1  0  0  0  0
 38 39  1  0  0  0  0
M  END
>  <CHROM.1>
-120.33848533,172.40558644,52.33900099,-62.00160453,85.30692662,-157.80182180
-69.03524847,54.89736890,66.43709103,73.95487779,-1.65740812,-10.78493885
15.71038810,3.06451516,0.02866413,-2.34569082

>  <Name>
2g5q_lig

>  <RI>
9.52566e+06

>  <Rbt.Current_Directory>
/home/itssahil/PROJECTS/Mol_Feturizer/New_Systems/rnas/2g5q

>  <Rbt.Executable>
rbdock ($Id: //depot/dev/client3/rdock/2013.1/src/exe/rbdock.cxx#4 $)

>  <Rbt.Library>
libRbt.so (2013.1, Build901 2013/11/27)

>  <Rbt.Parameter_File>
/export/apps/rDock/src/rDock_2013.1_src/data/scripts/dock_solv.prm

>  <Rbt.Receptor>
prm/pocket_docking_4.prm

>  <SCORE>
-13.1812

>  <SCORE.INTER>
-11.5791

>  <SCORE.INTER.CONST>
1

>  <SCORE.INTER.POLAR>
-1.45141

>  <SCORE.INTER.ROT>
10

>  <SCORE.INTER.SOLV>
20.0851

>  <SCORE.INTER.VDW>
-19.8431

>  <SCORE.INTER.norm>
-0.289478

>  <SCORE.INTRA>
-1.60212

>  <SCORE.INTRA.DIHEDRAL>
-8.24642

>  <SCORE.INTRA.DIHEDRAL.0>
22.5778

>  <SCORE.INTRA.POLAR>
0

>  <SCORE.INTRA.POLAR.0>
0

>  <SCORE.INTRA.REPUL>
0

>  <SCORE.INTRA.REPUL.0>
0

>  <SCORE.INTRA.SOLV>
3.05086

>  <SCORE.INTRA.SOLV.lig_0>
-102.332

>  <SCORE.INTRA.VDW>
0.995662

>  <SCORE.INTRA.VDW.0>
-5.08747

>  <SCORE.INTRA.norm>
-0.040053

>  <SCORE.RESTR>
0

>  <SCORE.RESTR.CAVITY>
0

>  <SCORE.RESTR.norm>
0

>  <SCORE.SYSTEM>
0

>  <SCORE.SYSTEM.CONST>
0

>  <SCORE.SYSTEM.DIHEDRAL>
0

>  <SCORE.SYSTEM.SOLV>
0

>  <SCORE.SYSTEM.norm>
0

>  <SCORE.heavy>
40

>  <SCORE.norm>
-0.329531

>  <RMSD>
8.717

$$$$
2g5q_lig
 OpenBabel11021811433D
libRbt.so/2013.1/901 2013/11/27
 40 42  0  0  0  0  0  0  0  0999 V2000
    4.4971  -11.2961   13.1043 C   0  0  2  0  0  0  0  0  0  0  0  0
    5.2061  -11.0350   14.2954 O   0  0  0  0  0  0  0  0  0  0  0  0
    4.7517  -12.7731   12.6821 C   0  0  1  0  0  0  0  0  0  0  0  0
    6.2372  -13.0128   12.2704 C   0  0  2  0  0  0  0  0  0  0  0  0
    6.5588  -12.0675   11.0839 C   0  0  2  0  0  0  0  0  0  0  0  0
    7.9157  -12.2752   10.6593 O   0  0  0  0  0  0  0  0  0  0  0  0
    6.3330  -10.5762   11.5624 C   0  0  2  0  0  0  0  0  0  0  0  0
    4.9213  -10.3902   12.0045 O   0  0  0  0  0  0  0  0  0  0  0  0
    6.6087   -9.5555   10.4634 C   0  0  0  0  0  0  0  0  0  0  0  0
    6.4839   -8.1484   10.9594 N   0  0  0  0  0  0  0  0  0  0  0  0
    4.7052   -8.3397   17.6957 C   0  0  2  0  0  0  0  0  0  0  0  0
    4.5456   -7.1205   18.4791 N   0  0  0  0  0  0  0  0  0  0  0  0
    6.0673   -8.2960   16.8841 C   0  0  0  0  0  0  0  0  0  0  0  0
    6.2477   -9.6184   16.0395 C   0  0  2  0  0  0  0  0  0  0  0  0
    7.5334   -9.5697   15.2922 N   0  0  0  0  0  0  0  0  0  0  0  0
    5.0190   -9.7904   15.0603 C   0  0  2  0  0  0  0  0  0  0  0  0
    3.6829   -9.8252   15.9031 C   0  0  2  0  0  0  0  0  0  0  0  0
    2.5715   -9.9746   15.0140 O   0  0  0  0  0  0  0  0  0  0  0  0
    3.5151   -8.4909   16.7257 C   0  0  1  0  0  0  0  0  0  0  0  0
    2.2900   -8.5308   17.5105 O   0  0  0  0  0  0  0  0  0  0  0  0
    1.0487   -8.9698   17.0159 C   0  0  2  0  0  0  0  0  0  0  0  0
   -0.0517   -8.5016   18.0274 C   0  0  2  0  0  0  0  0  0  0  0  0
   -0.0302   -7.1139   18.1284 O   0  0  0  0  0  0  0  0  0  0  0  0
    0.1501   -9.1724   19.4387 C   0  0  1  0  0  0  0  0  0  0  0  0
   -0.9021   -8.7337   20.4137 N   0  0  0  0  0  0  0  0  0  0  0  0
    0.1212  -10.7413   19.2513 C   0  0  2  0  0  0  0  0  0  0  0  0
    0.2927  -11.4077   20.5038 O   0  0  0  0  0  0  0  0  0  0  0  0
    1.2419  -11.1433   18.2340 C   0  0  2  0  0  0  0  0  0  0  0  0
    1.0531  -10.4404   16.9187 O   0  0  0  0  0  0  0  0  0  0  0  0
    1.2572  -12.6226   17.9790 C   0  0  0  0  0  0  0  0  0  0  0  0
    0.0371  -13.0574   17.3568 O   0  0  0  0  0  0  0  0  0  0  0  0
    4.3655  -13.6459   13.7989 O   0  0  0  0  0  0  0  0  0  0  0  0
    6.4020  -14.3278   11.8949 O   0  0  0  0  0  0  0  0  0  0  0  0
    2.9782   -2.6890   20.1773 N   0  0  0  0  0  0  0  0  0  0  0  0
    4.0323   -7.0575   19.7670 C   0  0  0  0  0  0  0  0  0  0  0  0
    3.6428   -8.0350   20.3963 O   0  0  0  0  0  0  0  0  0  0  0  0
    3.9898   -5.6125   20.3153 C   0  0  1  0  0  0  0  0  0  0  0  0
    2.5303   -5.1211   20.3976 C   0  0  0  0  0  0  0  0  0  0  0  0
    2.3302   -3.7196   20.9858 C   0  0  0  0  0  0  0  0  0  0  0  0
    4.6191   -5.5813   21.6162 O   0  0  0  0  0  0  0  0  0  0  0  0
  1  2  1  1  0  0  0
  1  3  1  0  0  0  0
  1  8  1  0  0  0  0
  3  4  1  0  0  0  0
  3 32  1  1  0  0  0
  4  5  1  0  0  0  0
  4 33  1  6  0  0  0
  5  6  1  1  0  0  0
  5  7  1  0  0  0  0
  7  8  1  0  0  0  0
  7  9  1  6  0  0  0
  9 10  1  0  0  0  0
 11 12  1  6  0  0  0
 11 13  1  0  0  0  0
 11 19  1  0  0  0  0
 12 35  1  0  0  0  0
 13 14  1  0  0  0  0
 14 15  1  6  0  0  0
 14 16  1  0  0  0  0
 16  2  1  1  0  0  0
 16 17  1  0  0  0  0
 17 18  1  6  0  0  0
 17 19  1  0  0  0  0
 19 20  1  1  0  0  0
 21 20  1  1  0  0  0
 21 22  1  0  0  0  0
 21 29  1  0  0  0  0
 22 23  1  1  0  0  0
 22 24  1  0  0  0  0
 24 25  1  1  0  0  0
 24 26  1  0  0  0  0
 26 27  1  1  0  0  0
 26 28  1  0  0  0  0
 28 29  1  0  0  0  0
 28 30  1  6  0  0  0
 30 31  1  0  0  0  0
 34 39  1  0  0  0  0
 35 36  2  0  0  0  0
 37 35  1  1  0  0  0
 37 38  1  0  0  0  0
 37 40  1  0  0  0  0
 38 39  1  0  0  0  0
M  END
>  <CHROM.1>
-170.90044913,-175.97866773,-140.53105004,-162.45948960,-164.37866965,-165.19466617
63.71487466,109.03296595,177.37327938,62.33993737,3.60510190,-9.49775989
16.39889436,1.00990026,-0.67401709,-2.47634688

>  <Name>
2g5q_lig

>  <RI>
224

>  <Rbt.Current_Directory>
/home/itssahil/PROJECTS/Mol_Feturizer/New_Systems/rnas/2g5q

>  <Rbt.Executable>
rbdock ($Id: //depot/dev/client3/rdock/2013.1/src/exe/rbdock.cxx#4 $)

>  <Rbt.Library>
libRbt.so (2013.1, Build901 2013/11/27)

>  <Rbt.Parameter_File>
/export/apps/rDock/src/rDock_2013.1_src/data/scripts/dock_solv.prm

>  <Rbt.Receptor>
prm/pocket_docking_8.prm

>  <SCORE>
-12.3015

>  <SCORE.INTER>
-5.83491

>  <SCORE.INTER.CONST>
1

>  <SCORE.INTER.POLAR>
-0.882611

>  <SCORE.INTER.ROT>
10

>  <SCORE.INTER.SOLV>
12.255

>  <SCORE.INTER.VDW>
-15.2996

>  <SCORE.INTER.norm>
-0.145873

>  <SCORE.INTRA>
-6.46663

>  <SCORE.INTRA.DIHEDRAL>
-15.2103

>  <SCORE.INTRA.DIHEDRAL.0>
22.5778

>  <SCORE.INTRA.POLAR>
0

>  <SCORE.INTRA.POLAR.0>
0

>  <SCORE.INTRA.REPUL>
0

>  <SCORE.INTRA.REPUL.0>
0

>  <SCORE.INTRA.SOLV>
0.416973

>  <SCORE.INTRA.SOLV.lig_0>
-102.332

>  <SCORE.INTRA.VDW>
0.930017

>  <SCORE.INTRA.VDW.0>
-5.08747

>  <SCORE.INTRA.norm>
-0.161666

>  <SCORE.RESTR>
0

>  <SCORE.RESTR.CAVITY>
0

>  <SCORE.RESTR.norm>
0

>  <SCORE.SYSTEM>
0

>  <SCORE.SYSTEM.CONST>
0

>  <SCORE.SYSTEM.DIHEDRAL>
0

>  <SCORE.SYSTEM.SOLV>
0

>  <SCORE.SYSTEM.norm>
0

>  <SCORE.heavy>
40

>  <SCORE.norm>
-0.307539

>  <RMSD>
8.723

$$$$
2g5q_lig
 OpenBabel11021811433D
libRbt.so/2013.1/901 2013/11/27
 40 42  0  0  0  0  0  0  0  0999 V2000
   -5.1313  -11.2076   15.1365 C   0  0  2  0  0  0  0  0  0  0  0  0
   -4.3976  -10.1414   15.6971 O   0  0  0  0  0  0  0  0  0  0  0  0
   -6.6207  -10.7744   14.9988 C   0  0  1  0  0  0  0  0  0  0  0  0
   -7.2981  -10.5701   16.3891 C   0  0  2  0  0  0  0  0  0  0  0  0
   -7.2138  -11.9133   17.1597 C   0  0  2  0  0  0  0  0  0  0  0  0
   -7.8494  -11.7723   18.4405 O   0  0  0  0  0  0  0  0  0  0  0  0
   -5.6873  -12.2984   17.3198 C   0  0  2  0  0  0  0  0  0  0  0  0
   -5.0507  -12.4304   15.9781 O   0  0  0  0  0  0  0  0  0  0  0  0
   -5.4859  -13.6186   18.0561 C   0  0  0  0  0  0  0  0  0  0  0  0
   -5.8854  -13.5254   19.4960 N   0  0  0  0  0  0  0  0  0  0  0  0
   -0.1155   -9.6202   16.3823 C   0  0  2  0  0  0  0  0  0  0  0  0
    1.2206   -9.7701   16.9462 N   0  0  0  0  0  0  0  0  0  0  0  0
   -1.1301   -9.1296   17.4985 C   0  0  0  0  0  0  0  0  0  0  0  0
   -2.5777   -8.9591   16.8902 C   0  0  2  0  0  0  0  0  0  0  0  0
   -3.5168   -8.4881   17.9439 N   0  0  0  0  0  0  0  0  0  0  0  0
   -3.0530  -10.3316   16.2672 C   0  0  2  0  0  0  0  0  0  0  0  0
   -2.0173  -10.7892   15.1651 C   0  0  2  0  0  0  0  0  0  0  0  0
   -2.4464  -12.0351   14.6070 O   0  0  0  0  0  0  0  0  0  0  0  0
   -0.5839  -10.9682   15.7961 C   0  0  1  0  0  0  0  0  0  0  0  0
    0.3706  -11.3776   14.7765 O   0  0  0  0  0  0  0  0  0  0  0  0
    1.6250  -11.9504   15.0528 C   0  0  2  0  0  0  0  0  0  0  0  0
    2.3695  -12.1318   13.6868 C   0  0  2  0  0  0  0  0  0  0  0  0
    2.5239  -10.8923   13.0733 O   0  0  0  0  0  0  0  0  0  0  0  0
    1.5978  -13.1335   12.7467 C   0  0  1  0  0  0  0  0  0  0  0  0
    2.3057  -13.3175   11.4370 N   0  0  0  0  0  0  0  0  0  0  0  0
    1.4527  -14.5130   13.5039 C   0  0  2  0  0  0  0  0  0  0  0  0
    0.7643  -15.4688   12.6948 O   0  0  0  0  0  0  0  0  0  0  0  0
    0.7014  -14.2641   14.8553 C   0  0  2  0  0  0  0  0  0  0  0  0
    1.4330  -13.2598   15.7014 O   0  0  0  0  0  0  0  0  0  0  0  0
    0.5519  -15.5290   15.6498 C   0  0  0  0  0  0  0  0  0  0  0  0
   -0.2121  -15.3064   16.8462 O   0  0  0  0  0  0  0  0  0  0  0  0
   -6.6715   -9.5425   14.2002 O   0  0  0  0  0  0  0  0  0  0  0  0
   -8.6131  -10.2020   16.2084 O   0  0  0  0  0  0  0  0  0  0  0  0
    6.2587   -8.9625   18.5484 N   0  0  0  0  0  0  0  0  0  0  0  0
    2.4024   -9.4148   16.3110 C   0  0  0  0  0  0  0  0  0  0  0  0
    2.4553   -8.9347   15.1841 O   0  0  0  0  0  0  0  0  0  0  0  0
    3.6491   -9.7082   17.1771 C   0  0  1  0  0  0  0  0  0  0  0  0
    3.8193   -8.6109   18.2472 C   0  0  0  0  0  0  0  0  0  0  0  0
    4.9760   -8.8137   19.2328 C   0  0  0  0  0  0  0  0  0  0  0  0
    3.5040  -11.0091   17.7901 O   0  0  0  0  0  0  0  0  0  0  0  0
  1  2  1  1  0  0  0
  1  3  1  0  0  0  0
  1  8  1  0  0  0  0
  3  4  1  0  0  0  0
  3 32  1  6  0  0  0
  4  5  1  0  0  0  0
  4 33  1  6  0  0  0
  5  6  1  1  0  0  0
  5  7  1  0  0  0  0
  7  8  1  0  0  0  0
  7  9  1  6  0  0  0
  9 10  1  0  0  0  0
 11 12  1  1  0  0  0
 11 13  1  0  0  0  0
 11 19  1  0  0  0  0
 12 35  1  0  0  0  0
 13 14  1  0  0  0  0
 14 15  1  1  0  0  0
 14 16  1  0  0  0  0
 16  2  1  6  0  0  0
 16 17  1  0  0  0  0
 17 18  1  1  0  0  0
 17 19  1  0  0  0  0
 19 20  1  6  0  0  0
 21 20  1  6  0  0  0
 21 22  1  0  0  0  0
 21 29  1  0  0  0  0
 22 23  1  6  0  0  0
 22 24  1  0  0  0  0
 24 25  1  6  0  0  0
 24 26  1  0  0  0  0
 26 27  1  6  0  0  0
 26 28  1  0  0  0  0
 28 29  1  0  0  0  0
 28 30  1  1  0  0  0
 30 31  1  0  0  0  0
 34 39  1  0  0  0  0
 35 36  2  0  0  0  0
 37 35  1  1  0  0  0
 37 38  1  0  0  0  0
 37 40  1  0  0  0  0
 38 39  1  0  0  0  0
M  END
>  <CHROM.1>
164.29262756,-67.98591661,-140.10755873,-176.09135410,77.84562293,-175.60255413
-176.31912858,-78.55645514,176.73719398,56.26161746,-1.21515694,-11.38789026
15.96597897,3.10940786,0.07814763,0.67056974

>  <Name>
2g5q_lig

>  <RI>
2.90231e+07

>  <Rbt.Current_Directory>
/home/itssahil/PROJECTS/Mol_Feturizer/New_Systems/rnas/2g5q

>  <Rbt.Executable>
rbdock ($Id: //depot/dev/client3/rdock/2013.1/src/exe/rbdock.cxx#4 $)

>  <Rbt.Library>
libRbt.so (2013.1, Build901 2013/11/27)

>  <Rbt.Parameter_File>
/export/apps/rDock/src/rDock_2013.1_src/data/scripts/dock_solv.prm

>  <Rbt.Receptor>
prm/pocket_docking_6.prm

>  <SCORE>
-15.1847

>  <SCORE.INTER>
-7.31325

>  <SCORE.INTER.CONST>
1

>  <SCORE.INTER.POLAR>
-1.15239

>  <SCORE.INTER.ROT>
10

>  <SCORE.INTER.SOLV>
18.6727

>  <SCORE.INTER.VDW>
-17.5251

>  <SCORE.INTER.norm>
-0.182831

>  <SCORE.INTRA>
-7.87148

>  <SCORE.INTRA.DIHEDRAL>
-17.3774

>  <SCORE.INTRA.DIHEDRAL.0>
22.5778

>  <SCORE.INTRA.POLAR>
0

>  <SCORE.INTRA.POLAR.0>
0

>  <SCORE.INTRA.REPUL>
0

>  <SCORE.INTRA.REPUL.0>
0

>  <SCORE.INTRA.SOLV>
2.01218

>  <SCORE.INTRA.SOLV.lig_0>
-102.332

>  <SCORE.INTRA.VDW>
-0.188882

>  <SCORE.INTRA.VDW.0>
-5.08747

>  <SCORE.INTRA.norm>
-0.196787

>  <SCORE.RESTR>
0

>  <SCORE.RESTR.CAVITY>
0

>  <SCORE.RESTR.norm>
0

>  <SCORE.SYSTEM>
0

>  <SCORE.SYSTEM.CONST>
0

>  <SCORE.SYSTEM.DIHEDRAL>
0

>  <SCORE.SYSTEM.SOLV>
0

>  <SCORE.SYSTEM.norm>
0

>  <SCORE.heavy>
40

>  <SCORE.norm>
-0.379618

>  <RMSD>
8.727

$$$$
2g5q_lig
 OpenBabel11021811433D
libRbt.so/2013.1/901 2013/11/27
 40 42  0  0  0  0  0  0  0  0999 V2000
   -5.9838  -11.3199   16.4294 C   0  0  2  0  0  0  0  0  0  0  0  0
   -4.7087  -11.2355   17.0265 O   0  0  0  0  0  0  0  0  0  0  0  0
   -6.5330   -9.8789   16.2129 C   0  0  1  0  0  0  0  0  0  0  0  0
   -6.8217   -9.1570   17.5654 C   0  0  2  0  0  0  0  0  0  0  0  0
   -7.8649  -10.0027   18.3410 C   0  0  2  0  0  0  0  0  0  0  0  0
   -8.1756   -9.3570   19.5863 O   0  0  0  0  0  0  0  0  0  0  0  0
   -7.2557  -11.4431   18.5818 C   0  0  2  0  0  0  0  0  0  0  0  0
   -6.9354  -12.0868   17.2757 O   0  0  0  0  0  0  0  0  0  0  0  0
   -8.2089  -12.3696   19.3293 C   0  0  0  0  0  0  0  0  0  0  0  0
   -9.4092  -12.7228   18.5070 N   0  0  0  0  0  0  0  0  0  0  0  0
   -1.1791  -13.6435   17.9329 C   0  0  2  0  0  0  0  0  0  0  0  0
   -0.3042  -14.7946   18.1205 N   0  0  0  0  0  0  0  0  0  0  0  0
   -2.4398  -13.7509   18.8894 C   0  0  0  0  0  0  0  0  0  0  0  0
   -3.3868  -12.5020   18.6946 C   0  0  2  0  0  0  0  0  0  0  0  0
   -4.5590  -12.6092   19.6049 N   0  0  0  0  0  0  0  0  0  0  0  0
   -3.8386  -12.4135   17.1826 C   0  0  2  0  0  0  0  0  0  0  0  0
   -2.5581  -12.3124   16.2622 C   0  0  2  0  0  0  0  0  0  0  0  0
   -2.9693  -12.2388   14.8934 O   0  0  0  0  0  0  0  0  0  0  0  0
   -1.6354  -13.5749   16.4607 C   0  0  1  0  0  0  0  0  0  0  0  0
   -0.4509  -13.4732   15.6211 O   0  0  0  0  0  0  0  0  0  0  0  0
   -0.4817  -13.2102   14.2398 C   0  0  2  0  0  0  0  0  0  0  0  0
    0.8778  -13.7026   13.6377 C   0  0  2  0  0  0  0  0  0  0  0  0
    1.0228  -15.0667   13.8712 O   0  0  0  0  0  0  0  0  0  0  0  0
    2.0912  -12.8962   14.2377 C   0  0  1  0  0  0  0  0  0  0  0  0
    3.3981  -13.3575   13.6636 N   0  0  0  0  0  0  0  0  0  0  0  0
    1.8608  -11.3607   13.9435 C   0  0  2  0  0  0  0  0  0  0  0  0
    2.9373  -10.5754   14.4598 O   0  0  0  0  0  0  0  0  0  0  0  0
    0.4912  -10.9323   14.5708 C   0  0  2  0  0  0  0  0  0  0  0  0
   -0.6360  -11.7610   14.0209 O   0  0  0  0  0  0  0  0  0  0  0  0
    0.1857   -9.4867   14.3051 C   0  0  0  0  0  0  0  0  0  0  0  0
    0.9098   -8.6273   15.2006 O   0  0  0  0  0  0  0  0  0  0  0  0
   -5.5573   -9.1284   15.4111 O   0  0  0  0  0  0  0  0  0  0  0  0
   -7.3163   -7.8960   17.3151 O   0  0  0  0  0  0  0  0  0  0  0  0
    3.9926  -17.9311   19.0769 N   0  0  0  0  0  0  0  0  0  0  0  0
    0.5152  -15.0069   19.2204 C   0  0  0  0  0  0  0  0  0  0  0  0
    0.6013  -14.2339   20.1682 O   0  0  0  0  0  0  0  0  0  0  0  0
    1.3224  -16.3210   19.1100 C   0  0  1  0  0  0  0  0  0  0  0  0
    2.5481  -16.1132   18.1976 C   0  0  0  0  0  0  0  0  0  0  0  0
    3.3657  -17.3710   17.8815 C   0  0  0  0  0  0  0  0  0  0  0  0
    1.7284  -16.7394   20.4326 O   0  0  0  0  0  0  0  0  0  0  0  0
  1  2  1  1  0  0  0
  1  3  1  0  0  0  0
  1  8  1  0  0  0  0
  3  4  1  0  0  0  0
  3 32  1  1  0  0  0
  4  5  1  0  0  0  0
  4 33  1  6  0  0  0
  5  6  1  1  0  0  0
  5  7  1  0  0  0  0
  7  8  1  0  0  0  0
  7  9  1  6  0  0  0
  9 10  1  0  0  0  0
 11 12  1  6  0  0  0
 11 13  1  0  0  0  0
 11 19  1  0  0  0  0
 12 35  1  0  0  0  0
 13 14  1  0  0  0  0
 14 15  1  1  0  0  0
 14 16  1  0  0  0  0
 16  2  1  1  0  0  0
 16 17  1  0  0  0  0
 17 18  1  6  0  0  0
 17 19  1  0  0  0  0
 19 20  1  6  0  0  0
 21 20  1  1  0  0  0
 21 22  1  0  0  0  0
 21 29  1  0  0  0  0
 22 23  1  1  0  0  0
 22 24  1  0  0  0  0
 24 25  1  6  0  0  0
 24 26  1  0  0  0  0
 26 27  1  1  0  0  0
 26 28  1  0  0  0  0
 28 29  1  0  0  0  0
 28 30  1  6  0  0  0
 30 31  1  0  0  0  0
 34 39  1  0  0  0  0
 35 36  2  0  0  0  0
 37 35  1  1  0  0  0
 37 38  1  0  0  0  0
 37 40  1  0  0  0  0
 38 39  1  0  0  0  0
M  END
>  <CHROM.1>
-170.92061152,67.82109574,-73.42244567,-127.78501794,-171.05335565,-159.20441621
-79.21246141,79.98287314,-174.06832672,-64.62908813,-2.03916366,-12.52950214
16.87590338,-2.94772419,-0.39107080,2.34541216

>  <Name>
2g5q_lig

>  <RI>
2.47104e+07

>  <Rbt.Current_Directory>
/home/itssahil/PROJECTS/Mol_Feturizer/New_Systems/rnas/2g5q

>  <Rbt.Executable>
rbdock ($Id: //depot/dev/client3/rdock/2013.1/src/exe/rbdock.cxx#4 $)

>  <Rbt.Library>
libRbt.so (2013.1, Build901 2013/11/27)

>  <Rbt.Parameter_File>
/export/apps/rDock/src/rDock_2013.1_src/data/scripts/dock_solv.prm

>  <Rbt.Receptor>
prm/pocket_docking_7.prm

>  <SCORE>
-6.60469

>  <SCORE.INTER>
-4.30542

>  <SCORE.INTER.CONST>
1

>  <SCORE.INTER.POLAR>
-0.916515

>  <SCORE.INTER.ROT>
10

>  <SCORE.INTER.SOLV>
7.22569

>  <SCORE.INTER.VDW>
-12.4905

>  <SCORE.INTER.norm>
-0.107636

>  <SCORE.INTRA>
-2.29927

>  <SCORE.INTRA.DIHEDRAL>
-9.93456

>  <SCORE.INTRA.DIHEDRAL.0>
22.5778

>  <SCORE.INTRA.POLAR>
0

>  <SCORE.INTRA.POLAR.0>
0

>  <SCORE.INTRA.REPUL>
0

>  <SCORE.INTRA.REPUL.0>
0

>  <SCORE.INTRA.SOLV>
3.73358

>  <SCORE.INTRA.SOLV.lig_0>
-102.332

>  <SCORE.INTRA.VDW>
0.801222

>  <SCORE.INTRA.VDW.0>
-5.08747

>  <SCORE.INTRA.norm>
-0.0574817

>  <SCORE.RESTR>
0

>  <SCORE.RESTR.CAVITY>
0

>  <SCORE.RESTR.norm>
0

>  <SCORE.SYSTEM>
0

>  <SCORE.SYSTEM.CONST>
0

>  <SCORE.SYSTEM.DIHEDRAL>
0

>  <SCORE.SYSTEM.SOLV>
0

>  <SCORE.SYSTEM.norm>
0

>  <SCORE.heavy>
40

>  <SCORE.norm>
-0.165117

>  <RMSD>
8.751

$$$$
2g5q_lig
 OpenBabel11021811433D
libRbt.so/2013.1/901 2013/11/27
 40 42  0  0  0  0  0  0  0  0999 V2000
   -2.6292   -8.6894   19.8922 C   0  0  2  0  0  0  0  0  0  0  0  0
   -1.9058   -9.4381   18.9405 O   0  0  0  0  0  0  0  0  0  0  0  0
   -3.5093   -9.6614   20.7320 C   0  0  1  0  0  0  0  0  0  0  0  0
   -4.6316  -10.3205   19.8719 C   0  0  2  0  0  0  0  0  0  0  0  0
   -5.5143   -9.1844   19.2931 C   0  0  2  0  0  0  0  0  0  0  0  0
   -6.5767   -9.7536   18.5110 O   0  0  0  0  0  0  0  0  0  0  0  0
   -4.5971   -8.2441   18.4107 C   0  0  2  0  0  0  0  0  0  0  0  0
   -3.4998   -7.6739   19.2435 O   0  0  0  0  0  0  0  0  0  0  0  0
   -5.3643   -7.0766   17.7992 C   0  0  0  0  0  0  0  0  0  0  0  0
   -6.4561   -7.5391   16.8849 N   0  0  0  0  0  0  0  0  0  0  0  0
    1.9913   -9.0800   17.0012 C   0  0  2  0  0  0  0  0  0  0  0  0
    3.1045   -8.5423   16.2283 N   0  0  0  0  0  0  0  0  0  0  0  0
    0.6965   -9.1935   16.0922 C   0  0  0  0  0  0  0  0  0  0  0  0
   -0.5102   -9.7824   16.9238 C   0  0  2  0  0  0  0  0  0  0  0  0
   -1.7147   -9.8942   16.0574 N   0  0  0  0  0  0  0  0  0  0  0  0
   -0.7866   -8.8603   18.1774 C   0  0  2  0  0  0  0  0  0  0  0  0
    0.5245   -8.7682   19.0545 C   0  0  2  0  0  0  0  0  0  0  0  0
    0.2739   -7.9278   20.1854 O   0  0  0  0  0  0  0  0  0  0  0  0
    1.7111   -8.1641   18.2106 C   0  0  1  0  0  0  0  0  0  0  0  0
    2.9204   -8.0918   19.0171 O   0  0  0  0  0  0  0  0  0  0  0  0
    4.0993   -7.4376   18.6167 C   0  0  2  0  0  0  0  0  0  0  0  0
    5.2567   -7.9489   19.5398 C   0  0  2  0  0  0  0  0  0  0  0  0
    5.3910   -9.3266   19.3970 O   0  0  0  0  0  0  0  0  0  0  0  0
    4.9978   -7.5611   21.0449 C   0  0  1  0  0  0  0  0  0  0  0  0
    6.1036   -8.0427   21.9368 N   0  0  0  0  0  0  0  0  0  0  0  0
    4.8498   -5.9903   21.1342 C   0  0  2  0  0  0  0  0  0  0  0  0
    4.6197   -5.5757   22.4823 O   0  0  0  0  0  0  0  0  0  0  0  0
    3.6795   -5.5449   20.1936 C   0  0  2  0  0  0  0  0  0  0  0  0
    3.9302   -5.9824   18.7774 O   0  0  0  0  0  0  0  0  0  0  0  0
    3.4967   -4.0549   20.2005 C   0  0  0  0  0  0  0  0  0  0  0  0
    3.0370   -3.5915   21.4807 O   0  0  0  0  0  0  0  0  0  0  0  0
   -2.6337  -10.6794   21.3279 O   0  0  0  0  0  0  0  0  0  0  0  0
   -5.3851  -11.1572   20.6653 O   0  0  0  0  0  0  0  0  0  0  0  0
    6.8829   -7.8458   12.3458 N   0  0  0  0  0  0  0  0  0  0  0  0
    4.0375   -9.2999   15.5341 C   0  0  0  0  0  0  0  0  0  0  0  0
    4.0334  -10.5255   15.4995 O   0  0  0  0  0  0  0  0  0  0  0  0
    5.0953   -8.4258   14.8218 C   0  0  1  0  0  0  0  0  0  0  0  0
    6.2038   -9.3175   14.2266 C   0  0  0  0  0  0  0  0  0  0  0  0
    7.3475   -8.5792   13.5215 C   0  0  0  0  0  0  0  0  0  0  0  0
    4.4487   -7.6477   13.7894 O   0  0  0  0  0  0  0  0  0  0  0  0
  1  2  1  6  0  0  0
  1  3  1  0  0  0  0
  1  8  1  0  0  0  0
  3  4  1  0  0  0  0
  3 32  1  6  0  0  0
  4  5  1  0  0  0  0
  4 33  1  1  0  0  0
  5  6  1  6  0  0  0
  5  7  1  0  0  0  0
  7  8  1  0  0  0  0
  7  9  1  1  0  0  0
  9 10  1  0  0  0  0
 11 12  1  6  0  0  0
 11 13  1  0  0  0  0
 11 19  1  0  0  0  0
 12 35  1  0  0  0  0
 13 14  1  0  0  0  0
 14 15  1  6  0  0  0
 14 16  1  0  0  0  0
 16  2  1  1  0  0  0
 16 17  1  0  0  0  0
 17 18  1  1  0  0  0
 17 19  1  0  0  0  0
 19 20  1  1  0  0  0
 21 20  1  1  0  0  0
 21 22  1  0  0  0  0
 21 29  1  0  0  0  0
 22 23  1  1  0  0  0
 22 24  1  0  0  0  0
 24 25  1  1  0  0  0
 24 26  1  0  0  0  0
 26 27  1  1  0  0  0
 26 28  1  0  0  0  0
 28 29  1  0  0  0  0
 28 30  1  6  0  0  0
 30 31  1  0  0  0  0
 34 39  1  0  0  0  0
 35 36  2  0  0  0  0
 37 35  1  6  0  0  0
 37 38  1  0  0  0  0
 37 40  1  0  0  0  0
 38 39  1  0  0  0  0
M  END
>  <CHROM.1>
-167.38338365,-61.26752687,-91.75519492,-162.55675101,69.50396341,-163.32127214
-66.94644553,172.58873827,-178.30912619,-63.59631422,1.05909213,-8.25409056
18.35799747,-3.02396163,-0.21180584,-1.94729640

>  <Name>
2g5q_lig

>  <RI>
0

>  <Rbt.Current_Directory>
/home/itssahil/PROJECTS/Mol_Feturizer/New_Systems/rnas/2g5q

>  <Rbt.Executable>
rbdock ($Id: //depot/dev/client3/rdock/2013.1/src/exe/rbdock.cxx#4 $)

>  <Rbt.Library>
libRbt.so (2013.1, Build901 2013/11/27)

>  <Rbt.Parameter_File>
/export/apps/rDock/src/rDock_2013.1_src/data/scripts/dock_solv.prm

>  <Rbt.Receptor>
prm/pocket_docking_5.prm

>  <SCORE>
-20.9824

>  <SCORE.INTER>
-14.4413

>  <SCORE.INTER.CONST>
1

>  <SCORE.INTER.POLAR>
-1.32203

>  <SCORE.INTER.ROT>
10

>  <SCORE.INTER.SOLV>
17.3898

>  <SCORE.INTER.VDW>
-21.284

>  <SCORE.INTER.norm>
-0.361032

>  <SCORE.INTRA>
-6.54117

>  <SCORE.INTRA.DIHEDRAL>
-16.941

>  <SCORE.INTRA.DIHEDRAL.0>
22.5778

>  <SCORE.INTRA.POLAR>
0

>  <SCORE.INTRA.POLAR.0>
0

>  <SCORE.INTRA.REPUL>
0

>  <SCORE.INTRA.REPUL.0>
0

>  <SCORE.INTRA.SOLV>
1.73405

>  <SCORE.INTRA.SOLV.lig_0>
-102.332

>  <SCORE.INTRA.VDW>
1.06232

>  <SCORE.INTRA.VDW.0>
-5.08747

>  <SCORE.INTRA.norm>
-0.163529

>  <SCORE.RESTR>
0

>  <SCORE.RESTR.CAVITY>
0

>  <SCORE.RESTR.norm>
0

>  <SCORE.SYSTEM>
0

>  <SCORE.SYSTEM.CONST>
0

>  <SCORE.SYSTEM.DIHEDRAL>
0

>  <SCORE.SYSTEM.SOLV>
0

>  <SCORE.SYSTEM.norm>
0

>  <SCORE.heavy>
40

>  <SCORE.norm>
-0.524561

>  <RMSD>
8.762

$$$$
2g5q_lig
 OpenBabel11021811433D
libRbt.so/2013.1/901 2013/11/27
 40 42  0  0  0  0  0  0  0  0999 V2000
   -5.6931  -11.0539   15.1842 C   0  0  2  0  0  0  0  0  0  0  0  0
   -4.9383   -9.9552   15.6453 O   0  0  0  0  0  0  0  0  0  0  0  0
   -7.1043  -10.5508   14.7598 C   0  0  1  0  0  0  0  0  0  0  0  0
   -7.9310  -10.0396   15.9799 C   0  0  2  0  0  0  0  0  0  0  0  0
   -8.0748  -11.2150   16.9812 C   0  0  2  0  0  0  0  0  0  0  0  0
   -8.8524  -10.7895   18.1120 O   0  0  0  0  0  0  0  0  0  0  0  0
   -6.6253  -11.6694   17.4243 C   0  0  2  0  0  0  0  0  0  0  0  0
   -5.8381  -12.0977   16.2328 O   0  0  0  0  0  0  0  0  0  0  0  0
   -6.6469  -12.8372   18.4049 C   0  0  0  0  0  0  0  0  0  0  0  0
   -5.2758  -13.1823   18.8977 N   0  0  0  0  0  0  0  0  0  0  0  0
   -0.7222   -9.3617   16.6200 C   0  0  2  0  0  0  0  0  0  0  0  0
    0.5755   -9.4911   17.2718 N   0  0  0  0  0  0  0  0  0  0  0  0
   -1.8184   -8.8963   17.6677 C   0  0  0  0  0  0  0  0  0  0  0  0
   -3.2246   -8.7479   16.9641 C   0  0  2  0  0  0  0  0  0  0  0  0
   -4.2409   -8.3004   17.9545 N   0  0  0  0  0  0  0  0  0  0  0  0
   -3.6318  -10.1249   16.3038 C   0  0  2  0  0  0  0  0  0  0  0  0
   -2.5161  -10.5569   15.2716 C   0  0  2  0  0  0  0  0  0  0  0  0
   -2.8838  -11.8069   14.6797 O   0  0  0  0  0  0  0  0  0  0  0  0
   -1.1253  -10.7142   15.9969 C   0  0  1  0  0  0  0  0  0  0  0  0
   -0.0972  -11.1001   15.0418 O   0  0  0  0  0  0  0  0  0  0  0  0
    1.1564  -11.6276   15.4003 C   0  0  2  0  0  0  0  0  0  0  0  0
    1.9693  -11.8453   14.0793 C   0  0  2  0  0  0  0  0  0  0  0  0
    2.1223  -10.6285   13.4218 O   0  0  0  0  0  0  0  0  0  0  0  0
    1.2681  -12.9049   13.1477 C   0  0  1  0  0  0  0  0  0  0  0  0
    2.0418  -13.1239   11.8813 N   0  0  0  0  0  0  0  0  0  0  0  0
    1.1209  -14.2555   13.9550 C   0  0  2  0  0  0  0  0  0  0  0  0
    0.4955  -15.2616   13.1559 O   0  0  0  0  0  0  0  0  0  0  0  0
    0.3002  -13.9711   15.2582 C   0  0  2  0  0  0  0  0  0  0  0  0
    0.9658  -12.9138   16.0942 O   0  0  0  0  0  0  0  0  0  0  0  0
    0.1441  -15.2058   16.0977 C   0  0  0  0  0  0  0  0  0  0  0  0
    1.4167  -15.6861   16.5609 O   0  0  0  0  0  0  0  0  0  0  0  0
   -6.9344   -9.4920   13.7557 O   0  0  0  0  0  0  0  0  0  0  0  0
   -9.1708   -9.6206   15.5501 O   0  0  0  0  0  0  0  0  0  0  0  0
    5.5531   -9.4813   17.8752 N   0  0  0  0  0  0  0  0  0  0  0  0
    1.2200   -8.4861   17.9796 C   0  0  0  0  0  0  0  0  0  0  0  0
    0.7657   -7.3575   18.1314 O   0  0  0  0  0  0  0  0  0  0  0  0
    2.5856   -8.9432   18.5423 C   0  0  1  0  0  0  0  0  0  0  0  0
    3.6702   -7.8981   18.2111 C   0  0  0  0  0  0  0  0  0  0  0  0
    5.1058   -8.2847   18.5851 C   0  0  0  0  0  0  0  0  0  0  0  0
    2.4697   -9.1319   19.9706 O   0  0  0  0  0  0  0  0  0  0  0  0
  1  2  1  1  0  0  0
  1  3  1  0  0  0  0
  1  8  1  0  0  0  0
  3  4  1  0  0  0  0
  3 32  1  6  0  0  0
  4  5  1  0  0  0  0
  4 33  1  6  0  0  0
  5  6  1  1  0  0  0
  5  7  1  0  0  0  0
  7  8  1  0  0  0  0
  7  9  1  1  0  0  0
  9 10  1  0  0  0  0
 11 12  1  1  0  0  0
 11 13  1  0  0  0  0
 11 19  1  0  0  0  0
 12 35  1  0  0  0  0
 13 14  1  0  0  0  0
 14 15  1  1  0  0  0
 14 16  1  0  0  0  0
 16  2  1  6  0  0  0
 16 17  1  0  0  0  0
 17 18  1  1  0  0  0
 17 19  1  0  0  0  0
 19 20  1  6  0  0  0
 21 20  1  6  0  0  0
 21 22  1  0  0  0  0
 21 29  1  0  0  0  0
 22 23  1  6  0  0  0
 22 24  1  0  0  0  0
 24 25  1  6  0  0  0
 24 26  1  0  0  0  0
 26 27  1  6  0  0  0
 26 28  1  0  0  0  0
 28 29  1  0  0  0  0
 28 30  1  1  0  0  0
 30 31  1  0  0  0  0
 34 39  1  0  0  0  0
 35 36  2  0  0  0  0
 37 35  1  1  0  0  0
 37 38  1  0  0  0  0
 37 40  1  0  0  0  0
 38 39  1  0  0  0  0
M  END
>  <CHROM.1>
170.80156861,-175.41879128,-56.04621194,-167.73403930,76.54098675,-177.64924131
63.12609921,131.63820848,-174.08926839,61.49873935,-1.72994090,-10.98173960
16.21769091,3.13374176,-0.00695608,0.64192234

>  <Name>
2g5q_lig

>  <RI>
2.47104e+07

>  <Rbt.Current_Directory>
/home/itssahil/PROJECTS/Mol_Feturizer/New_Systems/rnas/2g5q

>  <Rbt.Executable>
rbdock ($Id: //depot/dev/client3/rdock/2013.1/src/exe/rbdock.cxx#4 $)

>  <Rbt.Library>
libRbt.so (2013.1, Build901 2013/11/27)

>  <Rbt.Parameter_File>
/export/apps/rDock/src/rDock_2013.1_src/data/scripts/dock_solv.prm

>  <Rbt.Receptor>
prm/pocket_docking_7.prm

>  <SCORE>
-14.9819

>  <SCORE.INTER>
-6.8783

>  <SCORE.INTER.CONST>
1

>  <SCORE.INTER.POLAR>
-0.666457

>  <SCORE.INTER.ROT>
10

>  <SCORE.INTER.SOLV>
13.6078

>  <SCORE.INTER.VDW>
-17.1666

>  <SCORE.INTER.norm>
-0.171957

>  <SCORE.INTRA>
-8.1036

>  <SCORE.INTRA.DIHEDRAL>
-17.5901

>  <SCORE.INTRA.DIHEDRAL.0>
22.5778

>  <SCORE.INTRA.POLAR>
0

>  <SCORE.INTRA.POLAR.0>
0

>  <SCORE.INTRA.REPUL>
0

>  <SCORE.INTRA.REPUL.0>
0

>  <SCORE.INTRA.SOLV>
-0.146885

>  <SCORE.INTRA.SOLV.lig_0>
-102.332

>  <SCORE.INTRA.VDW>
0.764871

>  <SCORE.INTRA.VDW.0>
-5.08747

>  <SCORE.INTRA.norm>
-0.20259

>  <SCORE.RESTR>
0

>  <SCORE.RESTR.CAVITY>
0

>  <SCORE.RESTR.norm>
0

>  <SCORE.SYSTEM>
0

>  <SCORE.SYSTEM.CONST>
0

>  <SCORE.SYSTEM.DIHEDRAL>
0

>  <SCORE.SYSTEM.SOLV>
0

>  <SCORE.SYSTEM.norm>
0

>  <SCORE.heavy>
40

>  <SCORE.norm>
-0.374548

>  <RMSD>
8.771

$$$$
2g5q_lig
 OpenBabel11021811433D
libRbt.so/2013.1/901 2013/11/27
 40 42  0  0  0  0  0  0  0  0999 V2000
   -3.3894  -11.7880   16.6890 C   0  0  2  0  0  0  0  0  0  0  0  0
   -3.2456  -10.9742   17.8320 O   0  0  0  0  0  0  0  0  0  0  0  0
   -4.3792  -11.0994   15.7037 C   0  0  1  0  0  0  0  0  0  0  0  0
   -5.8272  -11.0393   16.2809 C   0  0  2  0  0  0  0  0  0  0  0  0
   -6.2896  -12.4942   16.5540 C   0  0  2  0  0  0  0  0  0  0  0  0
   -7.6318  -12.4828   17.0665 O   0  0  0  0  0  0  0  0  0  0  0  0
   -5.2885  -13.1463   17.5916 C   0  0  2  0  0  0  0  0  0  0  0  0
   -3.9037  -13.1382   17.0391 O   0  0  0  0  0  0  0  0  0  0  0  0
   -5.6422  -14.5919   17.9243 C   0  0  0  0  0  0  0  0  0  0  0  0
   -6.9083  -14.6922   18.7172 N   0  0  0  0  0  0  0  0  0  0  0  0
    0.3469   -9.4543   19.7972 C   0  0  2  0  0  0  0  0  0  0  0  0
    1.5636   -9.3991   20.5986 N   0  0  0  0  0  0  0  0  0  0  0  0
   -0.8824   -9.8980   20.6960 C   0  0  0  0  0  0  0  0  0  0  0  0
   -2.2042   -9.9522   19.8332 C   0  0  2  0  0  0  0  0  0  0  0  0
   -3.3510  -10.3585   20.6899 N   0  0  0  0  0  0  0  0  0  0  0  0
   -2.0051  -10.9524   18.6257 C   0  0  2  0  0  0  0  0  0  0  0  0
   -0.7717  -10.4810   17.7577 C   0  0  2  0  0  0  0  0  0  0  0  0
   -0.5895  -11.3915   16.6688 O   0  0  0  0  0  0  0  0  0  0  0  0
    0.5386  -10.4488   18.6335 C   0  0  1  0  0  0  0  0  0  0  0  0
    1.6705  -10.0026   17.8348 O   0  0  0  0  0  0  0  0  0  0  0  0
    1.7560   -8.7395   17.2219 C   0  0  2  0  0  0  0  0  0  0  0  0
    2.8165   -8.8455   16.0742 C   0  0  2  0  0  0  0  0  0  0  0  0
    2.4111   -9.8075   15.1540 O   0  0  0  0  0  0  0  0  0  0  0  0
    4.2448   -9.1816   16.6483 C   0  0  1  0  0  0  0  0  0  0  0  0
    5.2689   -9.2807   15.5566 N   0  0  0  0  0  0  0  0  0  0  0  0
    4.6396   -8.0575   17.6865 C   0  0  2  0  0  0  0  0  0  0  0  0
    5.9344   -8.3049   18.2382 O   0  0  0  0  0  0  0  0  0  0  0  0
    3.5446   -8.0041   18.8048 C   0  0  2  0  0  0  0  0  0  0  0  0
    2.1863   -7.7410   18.2169 O   0  0  0  0  0  0  0  0  0  0  0  0
    3.8347   -6.9338   19.8167 C   0  0  0  0  0  0  0  0  0  0  0  0
    4.0184   -5.6556   19.1862 O   0  0  0  0  0  0  0  0  0  0  0  0
   -3.8727   -9.7529   15.4061 O   0  0  0  0  0  0  0  0  0  0  0  0
   -6.6604  -10.4346   15.3657 O   0  0  0  0  0  0  0  0  0  0  0  0
    1.2790  -11.2311   23.8459 N   0  0  0  0  0  0  0  0  0  0  0  0
    2.2360  -10.4999   21.1106 C   0  0  0  0  0  0  0  0  0  0  0  0
    1.8715  -11.6594   20.9495 O   0  0  0  0  0  0  0  0  0  0  0  0
    3.4893  -10.1005   21.9232 C   0  0  1  0  0  0  0  0  0  0  0  0
    3.0749   -9.5989   23.3213 C   0  0  0  0  0  0  0  0  0  0  0  0
    2.5541  -10.6696   24.2871 C   0  0  0  0  0  0  0  0  0  0  0  0
    4.3711  -11.2413   22.0244 O   0  0  0  0  0  0  0  0  0  0  0  0
  1  2  1  1  0  0  0
  1  3  1  0  0  0  0
  1  8  1  0  0  0  0
  3  4  1  0  0  0  0
  3 32  1  1  0  0  0
  4  5  1  0  0  0  0
  4 33  1  6  0  0  0
  5  6  1  1  0  0  0
  5  7  1  0  0  0  0
  7  8  1  0  0  0  0
  7  9  1  6  0  0  0
  9 10  1  0  0  0  0
 11 12  1  1  0  0  0
 11 13  1  0  0  0  0
 11 19  1  0  0  0  0
 12 35  1  0  0  0  0
 13 14  1  0  0  0  0
 14 15  1  1  0  0  0
 14 16  1  0  0  0  0
 16  2  1  6  0  0  0
 16 17  1  0  0  0  0
 17 18  1  6  0  0  0
 17 19  1  0  0  0  0
 19 20  1  6  0  0  0
 21 20  1  1  0  0  0
 21 22  1  0  0  0  0
 21 29  1  0  0  0  0
 22 23  1  6  0  0  0
 22 24  1  0  0  0  0
 24 25  1  6  0  0  0
 24 26  1  0  0  0  0
 26 27  1  1  0  0  0
 26 28  1  0  0  0  0
 28 29  1  0  0  0  0
 28 30  1  1  0  0  0
 30 31  1  0  0  0  0
 34 39  1  0  0  0  0
 35 36  2  0  0  0  0
 37 35  1  6  0  0  0
 37 38  1  0  0  0  0
 37 40  1  0  0  0  0
 38 39  1  0  0  0  0
M  END
>  <CHROM.1>
-150.57209594,-69.07363248,70.56338318,-179.23923159,-57.81883264,-159.56563712
54.14305693,77.73037987,71.10382589,-66.91589872,-0.23103309,-10.33402923
18.55870592,-2.98843648,0.39812803,1.84609684

>  <Name>
2g5q_lig

>  <RI>
224

>  <Rbt.Current_Directory>
/home/itssahil/PROJECTS/Mol_Feturizer/New_Systems/rnas/2g5q

>  <Rbt.Executable>
rbdock ($Id: //depot/dev/client3/rdock/2013.1/src/exe/rbdock.cxx#4 $)

>  <Rbt.Library>
libRbt.so (2013.1, Build901 2013/11/27)

>  <Rbt.Parameter_File>
/export/apps/rDock/src/rDock_2013.1_src/data/scripts/dock_solv.prm

>  <Rbt.Receptor>
prm/pocket_docking_8.prm

>  <SCORE>
-19.379

>  <SCORE.INTER>
-14.3229

>  <SCORE.INTER.CONST>
1

>  <SCORE.INTER.POLAR>
-2.24796

>  <SCORE.INTER.ROT>
10

>  <SCORE.INTER.SOLV>
9.86857

>  <SCORE.INTER.VDW>
-15.6116

>  <SCORE.INTER.norm>
-0.358073

>  <SCORE.INTRA>
-5.05605

>  <SCORE.INTRA.DIHEDRAL>
-14.9283

>  <SCORE.INTRA.DIHEDRAL.0>
22.5778

>  <SCORE.INTRA.POLAR>
0

>  <SCORE.INTRA.POLAR.0>
0

>  <SCORE.INTRA.REPUL>
0

>  <SCORE.INTRA.REPUL.0>
0

>  <SCORE.INTRA.SOLV>
5.03402

>  <SCORE.INTRA.SOLV.lig_0>
-102.332

>  <SCORE.INTRA.VDW>
-0.108909

>  <SCORE.INTRA.VDW.0>
-5.08747

>  <SCORE.INTRA.norm>
-0.126401

>  <SCORE.RESTR>
0

>  <SCORE.RESTR.CAVITY>
0

>  <SCORE.RESTR.norm>
0

>  <SCORE.SYSTEM>
0

>  <SCORE.SYSTEM.CONST>
0

>  <SCORE.SYSTEM.DIHEDRAL>
0

>  <SCORE.SYSTEM.SOLV>
0

>  <SCORE.SYSTEM.norm>
0

>  <SCORE.heavy>
40

>  <SCORE.norm>
-0.484474

>  <RMSD>
8.779

$$$$
2g5q_lig
 OpenBabel11021811433D
libRbt.so/2013.1/901 2013/11/27
 40 42  0  0  0  0  0  0  0  0999 V2000
   -6.3284  -11.1691   16.6036 C   0  0  2  0  0  0  0  0  0  0  0  0
   -5.6917  -10.7015   17.7722 O   0  0  0  0  0  0  0  0  0  0  0  0
   -6.3123  -10.0360   15.5356 C   0  0  1  0  0  0  0  0  0  0  0  0
   -7.1969   -8.8233   15.9605 C   0  0  2  0  0  0  0  0  0  0  0  0
   -8.6467   -9.3386   16.1537 C   0  0  2  0  0  0  0  0  0  0  0  0
   -9.4997   -8.2433   16.5242 O   0  0  0  0  0  0  0  0  0  0  0  0
   -8.6314  -10.4544   17.2756 C   0  0  2  0  0  0  0  0  0  0  0  0
   -7.7339  -11.5737   16.8701 O   0  0  0  0  0  0  0  0  0  0  0  0
  -10.0123  -11.0450   17.5395 C   0  0  0  0  0  0  0  0  0  0  0  0
   -9.9913  -12.0483   18.6507 N   0  0  0  0  0  0  0  0  0  0  0  0
   -1.4688  -10.0818   16.8445 C   0  0  2  0  0  0  0  0  0  0  0  0
   -0.0169  -10.0504   16.9744 N   0  0  0  0  0  0  0  0  0  0  0  0
   -2.1398   -9.1881   17.9700 C   0  0  0  0  0  0  0  0  0  0  0  0
   -3.7127   -9.2136   17.8285 C   0  0  2  0  0  0  0  0  0  0  0  0
   -4.3291   -8.3631   18.8824 N   0  0  0  0  0  0  0  0  0  0  0  0
   -4.2263  -10.7056   17.9195 C   0  0  2  0  0  0  0  0  0  0  0  0
   -3.5339  -11.5640   16.7878 C   0  0  2  0  0  0  0  0  0  0  0  0
   -3.9956  -12.9157   16.8761 O   0  0  0  0  0  0  0  0  0  0  0  0
   -1.9669  -11.5376   16.9568 C   0  0  1  0  0  0  0  0  0  0  0  0
   -1.3312  -12.3188   15.9061 O   0  0  0  0  0  0  0  0  0  0  0  0
   -1.5772  -13.6848   15.6784 C   0  0  2  0  0  0  0  0  0  0  0  0
   -1.0453  -14.4715   16.9239 C   0  0  2  0  0  0  0  0  0  0  0  0
   -1.7126  -14.0398   18.0661 O   0  0  0  0  0  0  0  0  0  0  0  0
    0.5129  -14.2997   17.0827 C   0  0  1  0  0  0  0  0  0  0  0  0
    1.0328  -15.0536   18.2708 N   0  0  0  0  0  0  0  0  0  0  0  0
    1.2056  -14.8012   15.7539 C   0  0  2  0  0  0  0  0  0  0  0  0
    2.6265  -14.6764   15.8411 O   0  0  0  0  0  0  0  0  0  0  0  0
    0.6341  -13.9769   14.5512 C   0  0  2  0  0  0  0  0  0  0  0  0
   -0.8603  -14.1154   14.4647 O   0  0  0  0  0  0  0  0  0  0  0  0
    1.2241  -14.4189   13.2435 C   0  0  0  0  0  0  0  0  0  0  0  0
    0.7756  -15.7369   12.8878 O   0  0  0  0  0  0  0  0  0  0  0  0
   -4.9188   -9.6239   15.3203 O   0  0  0  0  0  0  0  0  0  0  0  0
   -7.1567   -7.8601   14.9766 O   0  0  0  0  0  0  0  0  0  0  0  0
    5.1875   -9.2736   15.5773 N   0  0  0  0  0  0  0  0  0  0  0  0
    0.8168   -9.0934   16.4131 C   0  0  0  0  0  0  0  0  0  0  0  0
    0.4194   -8.1573   15.7282 O   0  0  0  0  0  0  0  0  0  0  0  0
    2.3077   -9.3487   16.7332 C   0  0  1  0  0  0  0  0  0  0  0  0
    3.1461   -8.1055   16.3728 C   0  0  0  0  0  0  0  0  0  0  0  0
    4.6656   -8.2660   16.4983 C   0  0  0  0  0  0  0  0  0  0  0  0
    2.4418   -9.6729   18.1355 O   0  0  0  0  0  0  0  0  0  0  0  0
  1  2  1  1  0  0  0
  1  3  1  0  0  0  0
  1  8  1  0  0  0  0
  3  4  1  0  0  0  0
  3 32  1  1  0  0  0
  4  5  1  0  0  0  0
  4 33  1  6  0  0  0
  5  6  1  1  0  0  0
  5  7  1  0  0  0  0
  7  8  1  0  0  0  0
  7  9  1  6  0  0  0
  9 10  1  0  0  0  0
 11 12  1  1  0  0  0
 11 13  1  0  0  0  0
 11 19  1  0  0  0  0
 12 35  1  0  0  0  0
 13 14  1  0  0  0  0
 14 15  1  1  0  0  0
 14 16  1  0  0  0  0
 16  2  1  6  0  0  0
 16 17  1  0  0  0  0
 17 18  1  1  0  0  0
 17 19  1  0  0  0  0
 19 20  1  6  0  0  0
 21 20  1  1  0  0  0
 21 22  1  0  0  0  0
 21 29  1  0  0  0  0
 22 23  1  1  0  0  0
 22 24  1  0  0  0  0
 24 25  1  1  0  0  0
 24 26  1  0  0  0  0
 26 27  1  1  0  0  0
 26 28  1  0  0  0  0
 28 29  1  0  0  0  0
 28 30  1  6  0  0  0
 30 31  1  0  0  0  0
 34 39  1  0  0  0  0
 35 36  2  0  0  0  0
 37 35  1  1  0  0  0
 37 38  1  0  0  0  0
 37 40  1  0  0  0  0
 38 39  1  0  0  0  0
M  END
>  <CHROM.1>
-82.05118009,-177.10394092,-86.48994193,107.70919876,-178.15814751,-65.71859121
68.77098256,-167.03509643,-173.78229682,63.12319495,-2.43553964,-11.21507310
16.48991392,2.93810345,0.06457966,0.16641916

>  <Name>
2g5q_lig

>  <RI>
0

>  <Rbt.Current_Directory>
/home/itssahil/PROJECTS/Mol_Feturizer/New_Systems/rnas/2g5q

>  <Rbt.Executable>
rbdock ($Id: //depot/dev/client3/rdock/2013.1/src/exe/rbdock.cxx#4 $)

>  <Rbt.Library>
libRbt.so (2013.1, Build901 2013/11/27)

>  <Rbt.Parameter_File>
/export/apps/rDock/src/rDock_2013.1_src/data/scripts/dock_solv.prm

>  <Rbt.Receptor>
prm/pocket_docking_5.prm

>  <SCORE>
-9.21349

>  <SCORE.INTER>
-7.17909

>  <SCORE.INTER.CONST>
1

>  <SCORE.INTER.POLAR>
-1.49508

>  <SCORE.INTER.ROT>
10

>  <SCORE.INTER.SOLV>
9.53541

>  <SCORE.INTER.VDW>
-13.2476

>  <SCORE.INTER.norm>
-0.179477

>  <SCORE.INTRA>
-2.0344

>  <SCORE.INTRA.DIHEDRAL>
-11.7913

>  <SCORE.INTRA.DIHEDRAL.0>
22.5778

>  <SCORE.INTRA.POLAR>
0

>  <SCORE.INTRA.POLAR.0>
0

>  <SCORE.INTRA.REPUL>
0

>  <SCORE.INTRA.REPUL.0>
0

>  <SCORE.INTRA.SOLV>
1.79105

>  <SCORE.INTRA.SOLV.lig_0>
-102.332

>  <SCORE.INTRA.VDW>
2.96573

>  <SCORE.INTRA.VDW.0>
-5.08747

>  <SCORE.INTRA.norm>
-0.0508599

>  <SCORE.RESTR>
0

>  <SCORE.RESTR.CAVITY>
0

>  <SCORE.RESTR.norm>
0

>  <SCORE.SYSTEM>
0

>  <SCORE.SYSTEM.CONST>
0

>  <SCORE.SYSTEM.DIHEDRAL>
0

>  <SCORE.SYSTEM.SOLV>
0

>  <SCORE.SYSTEM.norm>
0

>  <SCORE.heavy>
40

>  <SCORE.norm>
-0.230337

>  <RMSD>
8.780

$$$$
2g5q_lig
 OpenBabel11021811433D
libRbt.so/2013.1/901 2013/11/27
 40 42  0  0  0  0  0  0  0  0999 V2000
   -6.1761   -9.7153   16.5168 C   0  0  2  0  0  0  0  0  0  0  0  0
   -5.0132   -9.7667   15.7202 O   0  0  0  0  0  0  0  0  0  0  0  0
   -6.6914  -11.1666   16.7472 C   0  0  1  0  0  0  0  0  0  0  0  0
   -7.1962  -11.8216   15.4244 C   0  0  2  0  0  0  0  0  0  0  0  0
   -8.3454  -10.9414   14.8680 C   0  0  2  0  0  0  0  0  0  0  0  0
   -8.8544  -11.5257   13.6580 O   0  0  0  0  0  0  0  0  0  0  0  0
   -7.7748   -9.4892   14.6039 C   0  0  2  0  0  0  0  0  0  0  0  0
   -7.2466   -8.9100   15.8721 O   0  0  0  0  0  0  0  0  0  0  0  0
   -8.8302   -8.5295   14.0648 C   0  0  0  0  0  0  0  0  0  0  0  0
   -9.2885   -8.9123   12.6917 N   0  0  0  0  0  0  0  0  0  0  0  0
   -0.7282   -9.3427   16.4526 C   0  0  2  0  0  0  0  0  0  0  0  0
    0.5995   -9.5288   17.0257 N   0  0  0  0  0  0  0  0  0  0  0  0
   -1.7432   -8.8512   17.5679 C   0  0  0  0  0  0  0  0  0  0  0  0
   -3.1814   -8.6414   16.9498 C   0  0  2  0  0  0  0  0  0  0  0  0
   -4.1207   -8.1700   18.0030 N   0  0  0  0  0  0  0  0  0  0  0  0
   -3.6780   -9.9934   16.2990 C   0  0  2  0  0  0  0  0  0  0  0  0
   -2.6413  -10.4526   15.1984 C   0  0  2  0  0  0  0  0  0  0  0  0
   -3.0898  -11.6800   14.6150 O   0  0  0  0  0  0  0  0  0  0  0  0
   -1.2176  -10.6709   15.8390 C   0  0  1  0  0  0  0  0  0  0  0  0
   -0.2621  -11.0818   14.8210 O   0  0  0  0  0  0  0  0  0  0  0  0
   -0.4020  -12.2325   14.0244 C   0  0  2  0  0  0  0  0  0  0  0  0
    0.1787  -13.4392   14.8367 C   0  0  2  0  0  0  0  0  0  0  0  0
   -0.5279  -13.5813   16.0271 O   0  0  0  0  0  0  0  0  0  0  0  0
    1.7181  -13.2501   15.1144 C   0  0  1  0  0  0  0  0  0  0  0  0
    2.2848  -14.4035   15.8883 N   0  0  0  0  0  0  0  0  0  0  0  0
    2.4568  -13.0896   13.7267 C   0  0  2  0  0  0  0  0  0  0  0  0
    3.8634  -12.9213   13.9143 O   0  0  0  0  0  0  0  0  0  0  0  0
    1.8334  -11.8698   12.9676 C   0  0  2  0  0  0  0  0  0  0  0  0
    0.3545  -12.0556   12.7720 O   0  0  0  0  0  0  0  0  0  0  0  0
    2.4649  -11.6714   11.6202 C   0  0  0  0  0  0  0  0  0  0  0  0
    2.1385  -12.7488   10.7272 O   0  0  0  0  0  0  0  0  0  0  0  0
   -5.6042  -11.9532   17.3449 O   0  0  0  0  0  0  0  0  0  0  0  0
   -7.6511  -13.0947   15.6882 O   0  0  0  0  0  0  0  0  0  0  0  0
    4.6638   -9.3612   19.8918 N   0  0  0  0  0  0  0  0  0  0  0  0
    1.7966   -9.3663   16.3425 C   0  0  0  0  0  0  0  0  0  0  0  0
    1.8717   -9.0505   15.1602 O   0  0  0  0  0  0  0  0  0  0  0  0
    3.0279   -9.6452   17.2350 C   0  0  1  0  0  0  0  0  0  0  0  0
    3.4476   -8.3581   17.9736 C   0  0  0  0  0  0  0  0  0  0  0  0
    4.7599   -8.4390   18.7621 C   0  0  0  0  0  0  0  0  0  0  0  0
    2.7042  -10.6963   18.1729 O   0  0  0  0  0  0  0  0  0  0  0  0
  1  2  1  6  0  0  0
  1  3  1  0  0  0  0
  1  8  1  0  0  0  0
  3  4  1  0  0  0  0
  3 32  1  6  0  0  0
  4  5  1  0  0  0  0
  4 33  1  1  0  0  0
  5  6  1  6  0  0  0
  5  7  1  0  0  0  0
  7  8  1  0  0  0  0
  7  9  1  1  0  0  0
  9 10  1  0  0  0  0
 11 12  1  1  0  0  0
 11 13  1  0  0  0  0
 11 19  1  0  0  0  0
 12 35  1  0  0  0  0
 13 14  1  0  0  0  0
 14 15  1  1  0  0  0
 14 16  1  0  0  0  0
 16  2  1  6  0  0  0
 16 17  1  0  0  0  0
 17 18  1  1  0  0  0
 17 19  1  0  0  0  0
 19 20  1  6  0  0  0
 21 20  1  1  0  0  0
 21 22  1  0  0  0  0
 21 29  1  0  0  0  0
 22 23  1  1  0  0  0
 22 24  1  0  0  0  0
 24 25  1  6  0  0  0
 24 26  1  0  0  0  0
 26 27  1  1  0  0  0
 26 28  1  0  0  0  0
 28 29  1  0  0  0  0
 28 30  1  6  0  0  0
 30 31  1  0  0  0  0
 34 39  1  0  0  0  0
 35 36  2  0  0  0  0
 37 35  1  1  0  0  0
 37 38  1  0  0  0  0
 37 40  1  0  0  0  0
 38 39  1  0  0  0  0
M  END
>  <CHROM.1>
-84.78844145,-66.76651125,-149.78889698,-77.65275342,-178.21947503,-84.89572069
67.81087532,-87.75117375,-172.70591095,-66.15812628,-1.76180948,-10.79101466
15.50245638,3.13610535,0.09365616,-2.23324577

>  <Name>
2g5q_lig

>  <RI>
2.90231e+07

>  <Rbt.Current_Directory>
/home/itssahil/PROJECTS/Mol_Feturizer/New_Systems/rnas/2g5q

>  <Rbt.Executable>
rbdock ($Id: //depot/dev/client3/rdock/2013.1/src/exe/rbdock.cxx#4 $)

>  <Rbt.Library>
libRbt.so (2013.1, Build901 2013/11/27)

>  <Rbt.Parameter_File>
/export/apps/rDock/src/rDock_2013.1_src/data/scripts/dock_solv.prm

>  <Rbt.Receptor>
prm/pocket_docking_6.prm

>  <SCORE>
-18.5256

>  <SCORE.INTER>
-13.6929

>  <SCORE.INTER.CONST>
1

>  <SCORE.INTER.POLAR>
-1.57714

>  <SCORE.INTER.ROT>
10

>  <SCORE.INTER.SOLV>
12.6828

>  <SCORE.INTER.VDW>
-18.3657

>  <SCORE.INTER.norm>
-0.342323

>  <SCORE.INTRA>
-4.83269

>  <SCORE.INTRA.DIHEDRAL>
-13.0107

>  <SCORE.INTRA.DIHEDRAL.0>
22.5778

>  <SCORE.INTRA.POLAR>
0

>  <SCORE.INTRA.POLAR.0>
0

>  <SCORE.INTRA.REPUL>
0

>  <SCORE.INTRA.REPUL.0>
0

>  <SCORE.INTRA.SOLV>
3.68045

>  <SCORE.INTRA.SOLV.lig_0>
-102.332

>  <SCORE.INTRA.VDW>
-0.16759

>  <SCORE.INTRA.VDW.0>
-5.08747

>  <SCORE.INTRA.norm>
-0.120817

>  <SCORE.RESTR>
0

>  <SCORE.RESTR.CAVITY>
0

>  <SCORE.RESTR.norm>
0

>  <SCORE.SYSTEM>
0

>  <SCORE.SYSTEM.CONST>
0

>  <SCORE.SYSTEM.DIHEDRAL>
0

>  <SCORE.SYSTEM.SOLV>
0

>  <SCORE.SYSTEM.norm>
0

>  <SCORE.heavy>
40

>  <SCORE.norm>
-0.46314

>  <RMSD>
8.783

$$$$
2g5q_lig
 OpenBabel11021811433D
libRbt.so/2013.1/901 2013/11/27
 40 42  0  0  0  0  0  0  0  0999 V2000
   -4.9640   -8.0309   16.7920 C   0  0  2  0  0  0  0  0  0  0  0  0
   -4.9870   -8.3055   18.1753 O   0  0  0  0  0  0  0  0  0  0  0  0
   -6.4295   -7.9089   16.2799 C   0  0  1  0  0  0  0  0  0  0  0  0
   -7.1885   -9.2695   16.3588 C   0  0  2  0  0  0  0  0  0  0  0  0
   -6.4152  -10.2950   15.4898 C   0  0  2  0  0  0  0  0  0  0  0  0
   -7.0976  -11.5590   15.5180 O   0  0  0  0  0  0  0  0  0  0  0  0
   -4.9472  -10.4264   16.0659 C   0  0  2  0  0  0  0  0  0  0  0  0
   -4.2652   -9.1010   16.0325 O   0  0  0  0  0  0  0  0  0  0  0  0
   -4.0877  -11.4056   15.2734 C   0  0  0  0  0  0  0  0  0  0  0  0
   -2.7633  -11.6479   15.9283 N   0  0  0  0  0  0  0  0  0  0  0  0
   -1.8772   -9.0451   21.1517 C   0  0  2  0  0  0  0  0  0  0  0  0
   -0.7730   -9.6723   21.8681 N   0  0  0  0  0  0  0  0  0  0  0  0
   -3.1196  -10.0291   21.0885 C   0  0  0  0  0  0  0  0  0  0  0  0
   -4.3207   -9.3507   20.3193 C   0  0  2  0  0  0  0  0  0  0  0  0
   -5.4827  -10.2791   20.2768 N   0  0  0  0  0  0  0  0  0  0  0  0
   -3.8539   -8.9458   18.8646 C   0  0  2  0  0  0  0  0  0  0  0  0
   -2.6148   -7.9709   18.9684 C   0  0  2  0  0  0  0  0  0  0  0  0
   -2.1900   -7.6107   17.6501 O   0  0  0  0  0  0  0  0  0  0  0  0
   -1.4232   -8.6726   19.7251 C   0  0  1  0  0  0  0  0  0  0  0  0
   -0.2876   -7.7682   19.8301 O   0  0  0  0  0  0  0  0  0  0  0  0
    0.6123   -7.5049   18.7818 C   0  0  2  0  0  0  0  0  0  0  0  0
    1.5424   -8.7566   18.6360 C   0  0  2  0  0  0  0  0  0  0  0  0
    0.7708   -9.8778   18.3461 O   0  0  0  0  0  0  0  0  0  0  0  0
    2.3993   -8.9838   19.9386 C   0  0  1  0  0  0  0  0  0  0  0  0
    3.2971  -10.1783   19.8069 N   0  0  0  0  0  0  0  0  0  0  0  0
    3.2432   -7.6759   20.2119 C   0  0  2  0  0  0  0  0  0  0  0  0
    4.0499   -7.8250   21.3820 O   0  0  0  0  0  0  0  0  0  0  0  0
    2.2583   -6.4660   20.3492 C   0  0  2  0  0  0  0  0  0  0  0  0
    1.4154   -6.3145   19.1138 O   0  0  0  0  0  0  0  0  0  0  0  0
    2.9907   -5.1761   20.5803 C   0  0  0  0  0  0  0  0  0  0  0  0
    3.7293   -5.2091   21.8125 O   0  0  0  0  0  0  0  0  0  0  0  0
   -7.1113   -6.8768   17.0724 O   0  0  0  0  0  0  0  0  0  0  0  0
   -8.4708   -9.1070   15.8827 O   0  0  0  0  0  0  0  0  0  0  0  0
    0.7151  -13.7998   21.3707 N   0  0  0  0  0  0  0  0  0  0  0  0
   -0.7888  -10.0304   23.2089 C   0  0  0  0  0  0  0  0  0  0  0  0
   -1.7458   -9.8493   23.9537 O   0  0  0  0  0  0  0  0  0  0  0  0
    0.5434  -10.6688   23.6649 C   0  0  1  0  0  0  0  0  0  0  0  0
    0.6036  -12.1432   23.2167 C   0  0  0  0  0  0  0  0  0  0  0  0
    0.6054  -12.3807   21.7022 C   0  0  0  0  0  0  0  0  0  0  0  0
    1.6442   -9.9149   23.1090 O   0  0  0  0  0  0  0  0  0  0  0  0
  1  2  1  1  0  0  0
  1  3  1  0  0  0  0
  1  8  1  0  0  0  0
  3  4  1  0  0  0  0
  3 32  1  1  0  0  0
  4  5  1  0  0  0  0
  4 33  1  6  0  0  0
  5  6  1  1  0  0  0
  5  7  1  0  0  0  0
  7  8  1  0  0  0  0
  7  9  1  6  0  0  0
  9 10  1  0  0  0  0
 11 12  1  6  0  0  0
 11 13  1  0  0  0  0
 11 19  1  0  0  0  0
 12 35  1  0  0  0  0
 13 14  1  0  0  0  0
 14 15  1  6  0  0  0
 14 16  1  0  0  0  0
 16  2  1  1  0  0  0
 16 17  1  0  0  0  0
 17 18  1  6  0  0  0
 17 19  1  0  0  0  0
 19 20  1  1  0  0  0
 21 20  1  1  0  0  0
 21 22  1  0  0  0  0
 21 29  1  0  0  0  0
 22 23  1  1  0  0  0
 22 24  1  0  0  0  0
 24 25  1  6  0  0  0
 24 26  1  0  0  0  0
 26 27  1  1  0  0  0
 26 28  1  0  0  0  0
 28 29  1  0  0  0  0
 28 30  1  6  0  0  0
 30 31  1  0  0  0  0
 34 39  1  0  0  0  0
 35 36  2  0  0  0  0
 37 35  1  6  0  0  0
 37 38  1  0  0  0  0
 37 40  1  0  0  0  0
 38 39  1  0  0  0  0
M  END
>  <CHROM.1>
157.46040802,-172.84987741,-64.48583817,-169.25906862,161.92057127,-74.68844771
-62.44785854,-79.02087574,63.63330756,177.83523077,-1.67078990,-9.12531742
19.33265664,-2.87447391,0.48055426,2.43892807

>  <Name>
2g5q_lig

>  <RI>
224

>  <Rbt.Current_Directory>
/home/itssahil/PROJECTS/Mol_Feturizer/New_Systems/rnas/2g5q

>  <Rbt.Executable>
rbdock ($Id: //depot/dev/client3/rdock/2013.1/src/exe/rbdock.cxx#4 $)

>  <Rbt.Library>
libRbt.so (2013.1, Build901 2013/11/27)

>  <Rbt.Parameter_File>
/export/apps/rDock/src/rDock_2013.1_src/data/scripts/dock_solv.prm

>  <Rbt.Receptor>
prm/pocket_docking_8.prm

>  <SCORE>
-18.6511

>  <SCORE.INTER>
-11.3584

>  <SCORE.INTER.CONST>
1

>  <SCORE.INTER.POLAR>
-0.866203

>  <SCORE.INTER.ROT>
10

>  <SCORE.INTER.SOLV>
10.5984

>  <SCORE.INTER.VDW>
-18.4844

>  <SCORE.INTER.norm>
-0.28396

>  <SCORE.INTRA>
-7.29266

>  <SCORE.INTRA.DIHEDRAL>
-15.8227

>  <SCORE.INTRA.DIHEDRAL.0>
22.5778

>  <SCORE.INTRA.POLAR>
0

>  <SCORE.INTRA.POLAR.0>
0

>  <SCORE.INTRA.REPUL>
0

>  <SCORE.INTRA.REPUL.0>
0

>  <SCORE.INTRA.SOLV>
1.18618

>  <SCORE.INTRA.SOLV.lig_0>
-102.332

>  <SCORE.INTRA.VDW>
0.0255976

>  <SCORE.INTRA.VDW.0>
-5.08747

>  <SCORE.INTRA.norm>
-0.182317

>  <SCORE.RESTR>
0

>  <SCORE.RESTR.CAVITY>
0

>  <SCORE.RESTR.norm>
0

>  <SCORE.SYSTEM>
0

>  <SCORE.SYSTEM.CONST>
0

>  <SCORE.SYSTEM.DIHEDRAL>
0

>  <SCORE.SYSTEM.SOLV>
0

>  <SCORE.SYSTEM.norm>
0

>  <SCORE.heavy>
40

>  <SCORE.norm>
-0.466276

>  <RMSD>
8.812

$$$$
2g5q_lig
 OpenBabel11021811433D
libRbt.so/2013.1/901 2013/11/27
 40 42  0  0  0  0  0  0  0  0999 V2000
   -5.2523  -12.3922   19.1658 C   0  0  2  0  0  0  0  0  0  0  0  0
   -4.7212  -13.6985   19.1987 O   0  0  0  0  0  0  0  0  0  0  0  0
   -6.8067  -12.4814   19.1916 C   0  0  1  0  0  0  0  0  0  0  0  0
   -7.3741  -13.1279   17.8902 C   0  0  2  0  0  0  0  0  0  0  0  0
   -6.9208  -12.2555   16.6908 C   0  0  2  0  0  0  0  0  0  0  0  0
   -7.4443  -12.8067   15.4716 O   0  0  0  0  0  0  0  0  0  0  0  0
   -5.3388  -12.2246   16.6697 C   0  0  2  0  0  0  0  0  0  0  0  0
   -4.8222  -11.6565   17.9477 O   0  0  0  0  0  0  0  0  0  0  0  0
   -4.7802  -11.3777   15.5312 C   0  0  0  0  0  0  0  0  0  0  0  0
   -5.1016   -9.9253   15.7014 N   0  0  0  0  0  0  0  0  0  0  0  0
   -0.4285  -12.9573   18.8817 C   0  0  2  0  0  0  0  0  0  0  0  0
    1.0112  -13.1818   18.8312 N   0  0  0  0  0  0  0  0  0  0  0  0
   -1.0138  -13.4597   20.2677 C   0  0  0  0  0  0  0  0  0  0  0  0
   -2.5723  -13.2117   20.3296 C   0  0  2  0  0  0  0  0  0  0  0  0
   -3.1068  -13.6767   21.6381 N   0  0  0  0  0  0  0  0  0  0  0  0
   -3.2730  -13.9562   19.1243 C   0  0  2  0  0  0  0  0  0  0  0  0
   -2.6621  -13.4335   17.7641 C   0  0  2  0  0  0  0  0  0  0  0  0
   -3.2935  -14.1135   16.6746 O   0  0  0  0  0  0  0  0  0  0  0  0
   -1.1099  -13.7046   17.7167 C   0  0  1  0  0  0  0  0  0  0  0  0
   -0.5477  -13.2111   16.4682 O   0  0  0  0  0  0  0  0  0  0  0  0
   -0.8254  -13.7621   15.2043 C   0  0  2  0  0  0  0  0  0  0  0  0
   -0.0853  -15.1399   15.1199 C   0  0  2  0  0  0  0  0  0  0  0  0
   -0.5477  -15.9785   16.1296 O   0  0  0  0  0  0  0  0  0  0  0  0
    1.4765  -14.9537   15.2132 C   0  0  1  0  0  0  0  0  0  0  0  0
    2.1948  -16.2680   15.1287 N   0  0  0  0  0  0  0  0  0  0  0  0
    1.9320  -13.9901   14.0465 C   0  0  2  0  0  0  0  0  0  0  0  0
    3.3465  -13.7883   14.0749 O   0  0  0  0  0  0  0  0  0  0  0  0
    1.1602  -12.6349   14.1883 C   0  0  2  0  0  0  0  0  0  0  0  0
   -0.3264  -12.8554   14.1550 O   0  0  0  0  0  0  0  0  0  0  0  0
    1.5180  -11.6736   13.0921 C   0  0  0  0  0  0  0  0  0  0  0  0
    1.2454  -12.2339   11.7973 O   0  0  0  0  0  0  0  0  0  0  0  0
   -7.2057  -13.2480   20.3796 O   0  0  0  0  0  0  0  0  0  0  0  0
   -8.7491  -13.1694   17.9611 O   0  0  0  0  0  0  0  0  0  0  0  0
    6.2942  -12.5738   18.1143 N   0  0  0  0  0  0  0  0  0  0  0  0
    1.9663  -12.4021   19.4684 C   0  0  0  0  0  0  0  0  0  0  0  0
    1.7015  -11.4175   20.1495 O   0  0  0  0  0  0  0  0  0  0  0  0
    3.4058  -12.9033   19.2097 C   0  0  1  0  0  0  0  0  0  0  0  0
    3.8354  -12.5564   17.7698 C   0  0  0  0  0  0  0  0  0  0  0  0
    5.1910  -13.1171   17.3245 C   0  0  0  0  0  0  0  0  0  0  0  0
    4.2975  -12.2999   20.1741 O   0  0  0  0  0  0  0  0  0  0  0  0
  1  2  1  6  0  0  0
  1  3  1  0  0  0  0
  1  8  1  0  0  0  0
  3  4  1  0  0  0  0
  3 32  1  1  0  0  0
  4  5  1  0  0  0  0
  4 33  1  1  0  0  0
  5  6  1  6  0  0  0
  5  7  1  0  0  0  0
  7  8  1  0  0  0  0
  7  9  1  6  0  0  0
  9 10  1  0  0  0  0
 11 12  1  1  0  0  0
 11 13  1  0  0  0  0
 11 19  1  0  0  0  0
 12 35  1  0  0  0  0
 13 14  1  0  0  0  0
 14 15  1  1  0  0  0
 14 16  1  0  0  0  0
 16  2  1  6  0  0  0
 16 17  1  0  0  0  0
 17 18  1  6  0  0  0
 17 19  1  0  0  0  0
 19 20  1  6  0  0  0
 21 20  1  1  0  0  0
 21 22  1  0  0  0  0
 21 29  1  0  0  0  0
 22 23  1  1  0  0  0
 22 24  1  0  0  0  0
 24 25  1  6  0  0  0
 24 26  1  0  0  0  0
 26 27  1  1  0  0  0
 26 28  1  0  0  0  0
 28 29  1  0  0  0  0
 28 30  1  6  0  0  0
 30 31  1  0  0  0  0
 34 39  1  0  0  0  0
 35 36  2  0  0  0  0
 37 35  1  1  0  0  0
 37 38  1  0  0  0  0
 37 40  1  0  0  0  0
 38 39  1  0  0  0  0
M  END
>  <CHROM.1>
177.20054976,66.38416579,-77.26345652,58.61512497,172.94345243,-72.45296029
57.88676758,73.85821509,-174.09715102,-63.40702374,-1.36529626,-13.09233849
17.22501612,-2.98162072,0.04736566,-1.60504382

>  <Name>
2g5q_lig

>  <RI>
2.47104e+07

>  <Rbt.Current_Directory>
/home/itssahil/PROJECTS/Mol_Feturizer/New_Systems/rnas/2g5q

>  <Rbt.Executable>
rbdock ($Id: //depot/dev/client3/rdock/2013.1/src/exe/rbdock.cxx#4 $)

>  <Rbt.Library>
libRbt.so (2013.1, Build901 2013/11/27)

>  <Rbt.Parameter_File>
/export/apps/rDock/src/rDock_2013.1_src/data/scripts/dock_solv.prm

>  <Rbt.Receptor>
prm/pocket_docking_7.prm

>  <SCORE>
-11.4531

>  <SCORE.INTER>
-3.31586

>  <SCORE.INTER.CONST>
1

>  <SCORE.INTER.POLAR>
-1.30388

>  <SCORE.INTER.ROT>
10

>  <SCORE.INTER.SOLV>
11.6866

>  <SCORE.INTER.VDW>
-12.0265

>  <SCORE.INTER.norm>
-0.0828965

>  <SCORE.INTRA>
-8.13722

>  <SCORE.INTRA.DIHEDRAL>
-19.9513

>  <SCORE.INTRA.DIHEDRAL.0>
22.5778

>  <SCORE.INTRA.POLAR>
0

>  <SCORE.INTRA.POLAR.0>
0

>  <SCORE.INTRA.REPUL>
0

>  <SCORE.INTRA.REPUL.0>
0

>  <SCORE.INTRA.SOLV>
2.89775

>  <SCORE.INTRA.SOLV.lig_0>
-102.332

>  <SCORE.INTRA.VDW>
0.389558

>  <SCORE.INTRA.VDW.0>
-5.08747

>  <SCORE.INTRA.norm>
-0.20343

>  <SCORE.RESTR>
0

>  <SCORE.RESTR.CAVITY>
0

>  <SCORE.RESTR.norm>
0

>  <SCORE.SYSTEM>
0

>  <SCORE.SYSTEM.CONST>
0

>  <SCORE.SYSTEM.DIHEDRAL>
0

>  <SCORE.SYSTEM.SOLV>
0

>  <SCORE.SYSTEM.norm>
0

>  <SCORE.heavy>
40

>  <SCORE.norm>
-0.286327

>  <RMSD>
8.814

$$$$
2g5q_lig
 OpenBabel11021811433D
libRbt.so/2013.1/901 2013/11/27
 40 42  0  0  0  0  0  0  0  0999 V2000
   -5.4022   -8.8688   16.7688 C   0  0  2  0  0  0  0  0  0  0  0  0
   -4.3018   -8.4452   17.5429 O   0  0  0  0  0  0  0  0  0  0  0  0
   -6.5838   -7.8795   16.9922 C   0  0  1  0  0  0  0  0  0  0  0  0
   -7.1303   -7.9460   18.4518 C   0  0  2  0  0  0  0  0  0  0  0  0
   -7.6081   -9.3980   18.7135 C   0  0  2  0  0  0  0  0  0  0  0  0
   -8.1415   -9.4951   20.0441 O   0  0  0  0  0  0  0  0  0  0  0  0
   -6.3733  -10.3688   18.5218 C   0  0  2  0  0  0  0  0  0  0  0  0
   -5.8348  -10.2426   17.1373 O   0  0  0  0  0  0  0  0  0  0  0  0
   -6.7345  -11.8338   18.7427 C   0  0  0  0  0  0  0  0  0  0  0  0
   -7.7331  -12.3235   17.7403 N   0  0  0  0  0  0  0  0  0  0  0  0
   -0.0573   -9.4668   17.4098 C   0  0  2  0  0  0  0  0  0  0  0  0
    1.3158   -9.6031   16.9387 N   0  0  0  0  0  0  0  0  0  0  0  0
   -1.0515  -10.2156   16.4266 C   0  0  0  0  0  0  0  0  0  0  0  0
   -2.5396  -10.0765   16.9371 C   0  0  2  0  0  0  0  0  0  0  0  0
   -3.4603  -10.7921   16.0129 N   0  0  0  0  0  0  0  0  0  0  0  0
   -2.9163   -8.5460   17.0538 C   0  0  2  0  0  0  0  0  0  0  0  0
   -1.9034   -7.8344   18.0360 C   0  0  2  0  0  0  0  0  0  0  0  0
   -2.2425   -6.4476   18.1351 O   0  0  0  0  0  0  0  0  0  0  0  0
   -0.4273   -7.9718   17.5001 C   0  0  1  0  0  0  0  0  0  0  0  0
    0.5047   -7.3263   18.4128 O   0  0  0  0  0  0  0  0  0  0  0  0
    0.3537   -7.3036   19.8110 C   0  0  2  0  0  0  0  0  0  0  0  0
    1.6374   -6.6363   20.4110 C   0  0  2  0  0  0  0  0  0  0  0  0
    1.7650   -5.3431   19.9133 O   0  0  0  0  0  0  0  0  0  0  0  0
    2.9232   -7.4907   20.0959 C   0  0  1  0  0  0  0  0  0  0  0  0
    4.1579   -6.8619   20.6706 N   0  0  0  0  0  0  0  0  0  0  0  0
    2.7098   -8.9431   20.6810 C   0  0  2  0  0  0  0  0  0  0  0  0
    3.8511   -9.7661   20.4315 O   0  0  0  0  0  0  0  0  0  0  0  0
    1.4167   -9.5535   20.0423 C   0  0  2  0  0  0  0  0  0  0  0  0
    0.2206   -8.6835   20.3112 O   0  0  0  0  0  0  0  0  0  0  0  0
    1.1286  -10.9273   20.5745 C   0  0  0  0  0  0  0  0  0  0  0  0
    2.1645  -11.8549   20.2125 O   0  0  0  0  0  0  0  0  0  0  0  0
   -6.1205   -6.5248   16.6628 O   0  0  0  0  0  0  0  0  0  0  0  0
   -8.1789   -7.0634   18.5891 O   0  0  0  0  0  0  0  0  0  0  0  0
    3.3637  -11.6757   13.3160 N   0  0  0  0  0  0  0  0  0  0  0  0
    1.9975  -10.8033   16.7943 C   0  0  0  0  0  0  0  0  0  0  0  0
    1.5155  -11.8994   17.0581 O   0  0  0  0  0  0  0  0  0  0  0  0
    3.4414  -10.6036   16.2789 C   0  0  1  0  0  0  0  0  0  0  0  0
    3.4254   -9.8121   14.9555 C   0  0  0  0  0  0  0  0  0  0  0  0
    2.6802  -10.4744   13.7908 C   0  0  0  0  0  0  0  0  0  0  0  0
    4.2116   -9.9096   17.2862 O   0  0  0  0  0  0  0  0  0  0  0  0
  1  2  1  1  0  0  0
  1  3  1  0  0  0  0
  1  8  1  0  0  0  0
  3  4  1  0  0  0  0
  3 32  1  1  0  0  0
  4  5  1  0  0  0  0
  4 33  1  6  0  0  0
  5  6  1  1  0  0  0
  5  7  1  0  0  0  0
  7  8  1  0  0  0  0
  7  9  1  6  0  0  0
  9 10  1  0  0  0  0
 11 12  1  6  0  0  0
 11 13  1  0  0  0  0
 11 19  1  0  0  0  0
 12 35  1  0  0  0  0
 13 14  1  0  0  0  0
 14 15  1  6  0  0  0
 14 16  1  0  0  0  0
 16  2  1  1  0  0  0
 16 17  1  0  0  0  0
 17 18  1  6  0  0  0
 17 19  1  0  0  0  0
 19 20  1  1  0  0  0
 21 20  1  6  0  0  0
 21 22  1  0  0  0  0
 21 29  1  0  0  0  0
 22 23  1  6  0  0  0
 22 24  1  0  0  0  0
 24 25  1  1  0  0  0
 24 26  1  0  0  0  0
 26 27  1  6  0  0  0
 26 28  1  0  0  0  0
 28 29  1  0  0  0  0
 28 30  1  1  0  0  0
 30 31  1  0  0  0  0
 34 39  1  0  0  0  0
 35 36  2  0  0  0  0
 37 35  1  1  0  0  0
 37 38  1  0  0  0  0
 37 40  1  0  0  0  0
 38 39  1  0  0  0  0
M  END
>  <CHROM.1>
-142.19855934,63.30877938,-61.59733023,-67.11310825,-84.43084046,174.51904282
-64.28950112,-55.61411569,-61.33181451,-68.13415221,-1.26064051,-9.16650658
18.05586245,3.13769055,-0.03000982,0.85342487

>  <Name>
2g5q_lig

>  <RI>
0

>  <Rbt.Current_Directory>
/home/itssahil/PROJECTS/Mol_Feturizer/New_Systems/rnas/2g5q

>  <Rbt.Executable>
rbdock ($Id: //depot/dev/client3/rdock/2013.1/src/exe/rbdock.cxx#4 $)

>  <Rbt.Library>
libRbt.so (2013.1, Build901 2013/11/27)

>  <Rbt.Parameter_File>
/export/apps/rDock/src/rDock_2013.1_src/data/scripts/dock_solv.prm

>  <Rbt.Receptor>
prm/pocket_docking_5.prm

>  <SCORE>
-4.25514

>  <SCORE.INTER>
-0.046825

>  <SCORE.INTER.CONST>
1

>  <SCORE.INTER.POLAR>
0

>  <SCORE.INTER.ROT>
10

>  <SCORE.INTER.SOLV>
8.7918

>  <SCORE.INTER.VDW>
-13.2285

>  <SCORE.INTER.norm>
-0.00117063

>  <SCORE.INTRA>
-4.20832

>  <SCORE.INTRA.DIHEDRAL>
-13.39

>  <SCORE.INTRA.DIHEDRAL.0>
22.5778

>  <SCORE.INTRA.POLAR>
0

>  <SCORE.INTRA.POLAR.0>
0

>  <SCORE.INTRA.REPUL>
0

>  <SCORE.INTRA.REPUL.0>
0

>  <SCORE.INTRA.SOLV>
5.42717

>  <SCORE.INTRA.SOLV.lig_0>
-102.332

>  <SCORE.INTRA.VDW>
-0.226902

>  <SCORE.INTRA.VDW.0>
-5.08747

>  <SCORE.INTRA.norm>
-0.105208

>  <SCORE.RESTR>
0

>  <SCORE.RESTR.CAVITY>
0

>  <SCORE.RESTR.norm>
0

>  <SCORE.SYSTEM>
0

>  <SCORE.SYSTEM.CONST>
0

>  <SCORE.SYSTEM.DIHEDRAL>
0

>  <SCORE.SYSTEM.SOLV>
0

>  <SCORE.SYSTEM.norm>
0

>  <SCORE.heavy>
40

>  <SCORE.norm>
-0.106379

>  <RMSD>
8.825

$$$$
2g5q_lig
 OpenBabel11021811433D
libRbt.so/2013.1/901 2013/11/27
 40 42  0  0  0  0  0  0  0  0999 V2000
   -2.6198   -8.6501   19.8055 C   0  0  2  0  0  0  0  0  0  0  0  0
   -1.8700   -9.3631   18.8469 O   0  0  0  0  0  0  0  0  0  0  0  0
   -3.4885   -9.6580   20.6145 C   0  0  1  0  0  0  0  0  0  0  0  0
   -4.5866  -10.3222   19.7277 C   0  0  2  0  0  0  0  0  0  0  0  0
   -5.4868   -9.1930   19.1625 C   0  0  2  0  0  0  0  0  0  0  0  0
   -6.5280   -9.7678   18.3563 O   0  0  0  0  0  0  0  0  0  0  0  0
   -4.5800   -8.2152   18.3107 C   0  0  2  0  0  0  0  0  0  0  0  0
   -3.5046   -7.6397   19.1680 O   0  0  0  0  0  0  0  0  0  0  0  0
   -5.3650   -7.0514   17.7148 C   0  0  0  0  0  0  0  0  0  0  0  0
   -6.3717   -7.5108   16.7062 N   0  0  0  0  0  0  0  0  0  0  0  0
    2.0856   -8.9256   17.0472 C   0  0  2  0  0  0  0  0  0  0  0  0
    3.2190   -8.3598   16.3254 N   0  0  0  0  0  0  0  0  0  0  0  0
    0.8222   -9.0255   16.0933 C   0  0  0  0  0  0  0  0  0  0  0  0
   -0.4061   -9.6448   16.8693 C   0  0  2  0  0  0  0  0  0  0  0  0
   -1.5805   -9.7433   15.9609 N   0  0  0  0  0  0  0  0  0  0  0  0
   -0.7312   -8.7574   18.1361 C   0  0  2  0  0  0  0  0  0  0  0  0
    0.5496   -8.6779   19.0582 C   0  0  2  0  0  0  0  0  0  0  0  0
    0.2548   -7.8689   20.2012 O   0  0  0  0  0  0  0  0  0  0  0  0
    1.7580   -8.0433   18.2696 C   0  0  1  0  0  0  0  0  0  0  0  0
    2.9396   -7.9827   19.1172 O   0  0  0  0  0  0  0  0  0  0  0  0
    4.1430   -7.3532   18.7515 C   0  0  2  0  0  0  0  0  0  0  0  0
    5.2621   -7.8882   19.7078 C   0  0  2  0  0  0  0  0  0  0  0  0
    5.3719   -9.2684   19.5686 O   0  0  0  0  0  0  0  0  0  0  0  0
    4.9676   -7.4945   21.2048 C   0  0  1  0  0  0  0  0  0  0  0  0
    6.0367   -7.9986   22.1284 N   0  0  0  0  0  0  0  0  0  0  0  0
    4.8496   -5.9209   21.2902 C   0  0  2  0  0  0  0  0  0  0  0  0
    4.5890   -5.5012   22.6311 O   0  0  0  0  0  0  0  0  0  0  0  0
    3.7167   -5.4517   20.3160 C   0  0  2  0  0  0  0  0  0  0  0  0
    3.9994   -5.8948   18.9076 O   0  0  0  0  0  0  0  0  0  0  0  0
    3.5647   -3.9582   20.3179 C   0  0  0  0  0  0  0  0  0  0  0  0
    3.1504   -3.4775   21.6072 O   0  0  0  0  0  0  0  0  0  0  0  0
   -2.5980  -10.6696   21.1992 O   0  0  0  0  0  0  0  0  0  0  0  0
   -5.3310  -11.1912   20.4947 O   0  0  0  0  0  0  0  0  0  0  0  0
    8.0768   -9.7846   16.6025 N   0  0  0  0  0  0  0  0  0  0  0  0
    3.9307   -9.0020   15.3218 C   0  0  0  0  0  0  0  0  0  0  0  0
    3.6862  -10.1376   14.9296 O   0  0  0  0  0  0  0  0  0  0  0  0
    5.0799   -8.1313   14.7636 C   0  0  1  0  0  0  0  0  0  0  0  0
    6.3400   -8.2958   15.6373 C   0  0  0  0  0  0  0  0  0  0  0  0
    6.9171   -9.7139   15.7159 C   0  0  0  0  0  0  0  0  0  0  0  0
    5.3456   -8.5182   13.3965 O   0  0  0  0  0  0  0  0  0  0  0  0
  1  2  1  6  0  0  0
  1  3  1  0  0  0  0
  1  8  1  0  0  0  0
  3  4  1  0  0  0  0
  3 32  1  6  0  0  0
  4  5  1  0  0  0  0
  4 33  1  1  0  0  0
  5  6  1  6  0  0  0
  5  7  1  0  0  0  0
  7  8  1  0  0  0  0
  7  9  1  1  0  0  0
  9 10  1  0  0  0  0
 11 12  1  6  0  0  0
 11 13  1  0  0  0  0
 11 19  1  0  0  0  0
 12 35  1  0  0  0  0
 13 14  1  0  0  0  0
 14 15  1  6  0  0  0
 14 16  1  0  0  0  0
 16  2  1  1  0  0  0
 16 17  1  0  0  0  0
 17 18  1  1  0  0  0
 17 19  1  0  0  0  0
 19 20  1  1  0  0  0
 21 20  1  1  0  0  0
 21 22  1  0  0  0  0
 21 29  1  0  0  0  0
 22 23  1  1  0  0  0
 22 24  1  0  0  0  0
 24 25  1  1  0  0  0
 24 26  1  0  0  0  0
 26 27  1  1  0  0  0
 26 28  1  0  0  0  0
 28 29  1  0  0  0  0
 28 30  1  6  0  0  0
 30 31  1  0  0  0  0
 34 39  1  0  0  0  0
 35 36  2  0  0  0  0
 37 35  1  1  0  0  0
 37 38  1  0  0  0  0
 37 40  1  0  0  0  0
 38 39  1  0  0  0  0
M  END
>  <CHROM.1>
-165.65336650,-65.28046416,-70.55110319,-163.38934299,66.95640241,-162.58708576
-63.67089838,85.23555516,61.09753671,-177.87546368,1.12543563,-8.24806743
18.52606516,-3.13777829,-0.16362994,-2.04193049

>  <Name>
2g5q_lig

>  <RI>
224

>  <Rbt.Current_Directory>
/home/itssahil/PROJECTS/Mol_Feturizer/New_Systems/rnas/2g5q

>  <Rbt.Executable>
rbdock ($Id: //depot/dev/client3/rdock/2013.1/src/exe/rbdock.cxx#4 $)

>  <Rbt.Library>
libRbt.so (2013.1, Build901 2013/11/27)

>  <Rbt.Parameter_File>
/export/apps/rDock/src/rDock_2013.1_src/data/scripts/dock_solv.prm

>  <Rbt.Receptor>
prm/pocket_docking_8.prm

>  <SCORE>
-21.5907

>  <SCORE.INTER>
-13.8523

>  <SCORE.INTER.CONST>
1

>  <SCORE.INTER.POLAR>
-0.894427

>  <SCORE.INTER.ROT>
10

>  <SCORE.INTER.SOLV>
19.6037

>  <SCORE.INTER.VDW>
-23.0547

>  <SCORE.INTER.norm>
-0.346307

>  <SCORE.INTRA>
-7.73847

>  <SCORE.INTRA.DIHEDRAL>
-16.989

>  <SCORE.INTRA.DIHEDRAL.0>
22.5778

>  <SCORE.INTRA.POLAR>
0

>  <SCORE.INTRA.POLAR.0>
0

>  <SCORE.INTRA.REPUL>
0

>  <SCORE.INTRA.REPUL.0>
0

>  <SCORE.INTRA.SOLV>
0.338364

>  <SCORE.INTRA.SOLV.lig_0>
-102.332

>  <SCORE.INTRA.VDW>
0.586859

>  <SCORE.INTRA.VDW.0>
-5.08747

>  <SCORE.INTRA.norm>
-0.193462

>  <SCORE.RESTR>
0

>  <SCORE.RESTR.CAVITY>
0

>  <SCORE.RESTR.norm>
0

>  <SCORE.SYSTEM>
0

>  <SCORE.SYSTEM.CONST>
0

>  <SCORE.SYSTEM.DIHEDRAL>
0

>  <SCORE.SYSTEM.SOLV>
0

>  <SCORE.SYSTEM.norm>
0

>  <SCORE.heavy>
40

>  <SCORE.norm>
-0.539769

>  <RMSD>
8.826

$$$$
2g5q_lig
 OpenBabel11021811433D
libRbt.so/2013.1/901 2013/11/27
 40 42  0  0  0  0  0  0  0  0999 V2000
   -4.9532  -13.9373   19.0835 C   0  0  2  0  0  0  0  0  0  0  0  0
   -3.7813  -13.2149   18.7764 O   0  0  0  0  0  0  0  0  0  0  0  0
   -5.9349  -13.8370   17.8789 C   0  0  1  0  0  0  0  0  0  0  0  0
   -6.4586  -12.3818   17.6747 C   0  0  2  0  0  0  0  0  0  0  0  0
   -7.1834  -11.9516   18.9764 C   0  0  2  0  0  0  0  0  0  0  0  0
   -7.7019  -10.6209   18.8194 O   0  0  0  0  0  0  0  0  0  0  0  0
   -6.1454  -12.0223   20.1687 C   0  0  2  0  0  0  0  0  0  0  0  0
   -5.6177  -13.4101   20.3045 O   0  0  0  0  0  0  0  0  0  0  0  0
   -6.7586  -11.6306   21.5089 C   0  0  0  0  0  0  0  0  0  0  0  0
   -5.7526  -11.6618   22.6175 N   0  0  0  0  0  0  0  0  0  0  0  0
    0.0712  -14.4256   17.1123 C   0  0  2  0  0  0  0  0  0  0  0  0
    1.0761  -14.9404   16.1899 N   0  0  0  0  0  0  0  0  0  0  0  0
   -1.0059  -15.5455   17.4310 C   0  0  0  0  0  0  0  0  0  0  0  0
   -2.0927  -14.9942   18.4357 C   0  0  2  0  0  0  0  0  0  0  0  0
   -3.0901  -16.0570   18.7351 N   0  0  0  0  0  0  0  0  0  0  0  0
   -2.7834  -13.7149   17.8156 C   0  0  2  0  0  0  0  0  0  0  0  0
   -1.6806  -12.6258   17.5082 C   0  0  2  0  0  0  0  0  0  0  0  0
   -2.3074  -11.4710   16.9411 O   0  0  0  0  0  0  0  0  0  0  0  0
   -0.6156  -13.1910   16.4926 C   0  0  1  0  0  0  0  0  0  0  0  0
    0.4056  -12.1902   16.2208 O   0  0  0  0  0  0  0  0  0  0  0  0
    0.1915  -11.0310   15.4536 C   0  0  2  0  0  0  0  0  0  0  0  0
    0.1555  -11.4640   13.9488 C   0  0  2  0  0  0  0  0  0  0  0  0
   -0.8766  -12.3763   13.7522 O   0  0  0  0  0  0  0  0  0  0  0  0
    1.5378  -12.0712   13.4982 C   0  0  1  0  0  0  0  0  0  0  0  0
    1.5149  -12.4849   12.0564 N   0  0  0  0  0  0  0  0  0  0  0  0
    2.6617  -10.9899   13.7530 C   0  0  2  0  0  0  0  0  0  0  0  0
    3.9428  -11.4825   13.3549 O   0  0  0  0  0  0  0  0  0  0  0  0
    2.6467  -10.6024   15.2703 C   0  0  2  0  0  0  0  0  0  0  0  0
    1.2969  -10.0830   15.6804 O   0  0  0  0  0  0  0  0  0  0  0  0
    3.6712   -9.5515   15.5862 C   0  0  0  0  0  0  0  0  0  0  0  0
    3.7338   -9.2917   16.9981 O   0  0  0  0  0  0  0  0  0  0  0  0
   -5.2431  -14.3231   16.6776 O   0  0  0  0  0  0  0  0  0  0  0  0
   -7.3300  -12.3540   16.6082 O   0  0  0  0  0  0  0  0  0  0  0  0
    6.2190  -13.6403   15.7500 N   0  0  0  0  0  0  0  0  0  0  0  0
    2.2815  -15.5199   16.5607 C   0  0  0  0  0  0  0  0  0  0  0  0
    2.6443  -15.6587   17.7236 O   0  0  0  0  0  0  0  0  0  0  0  0
    3.1261  -15.9566   15.3415 C   0  0  1  0  0  0  0  0  0  0  0  0
    4.5875  -15.4976   15.5193 C   0  0  0  0  0  0  0  0  0  0  0  0
    4.8082  -13.9817   15.5800 C   0  0  0  0  0  0  0  0  0  0  0  0
    3.0494  -17.3934   15.2029 O   0  0  0  0  0  0  0  0  0  0  0  0
  1  2  1  6  0  0  0
  1  3  1  0  0  0  0
  1  8  1  0  0  0  0
  3  4  1  0  0  0  0
  3 32  1  6  0  0  0
  4  5  1  0  0  0  0
  4 33  1  6  0  0  0
  5  6  1  6  0  0  0
  5  7  1  0  0  0  0
  7  8  1  0  0  0  0
  7  9  1  1  0  0  0
  9 10  1  0  0  0  0
 11 12  1  6  0  0  0
 11 13  1  0  0  0  0
 11 19  1  0  0  0  0
 12 35  1  0  0  0  0
 13 14  1  0  0  0  0
 14 15  1  6  0  0  0
 14 16  1  0  0  0  0
 16  2  1  1  0  0  0
 16 17  1  0  0  0  0
 17 18  1  6  0  0  0
 17 19  1  0  0  0  0
 19 20  1  1  0  0  0
 21 20  1  1  0  0  0
 21 22  1  0  0  0  0
 21 29  1  0  0  0  0
 22 23  1  1  0  0  0
 22 24  1  0  0  0  0
 24 25  1  6  0  0  0
 24 26  1  0  0  0  0
 26 27  1  1  0  0  0
 26 28  1  0  0  0  0
 28 29  1  0  0  0  0
 28 30  1  6  0  0  0
 30 31  1  0  0  0  0
 34 39  1  0  0  0  0
 35 36  2  0  0  0  0
 37 35  1  1  0  0  0
 37 38  1  0  0  0  0
 37 40  1  0  0  0  0
 38 39  1  0  0  0  0
M  END
>  <CHROM.1>
-73.57080909,-178.21492899,-93.11747347,-67.77495100,168.75723663,-75.68363521
-174.70501273,133.59757140,-63.22301911,179.97039277,-0.95113950,-12.96767660
16.82169258,-3.04242275,0.40794990,-0.34208131

>  <Name>
2g5q_lig

>  <RI>
2.90231e+07

>  <Rbt.Current_Directory>
/home/itssahil/PROJECTS/Mol_Feturizer/New_Systems/rnas/2g5q

>  <Rbt.Executable>
rbdock ($Id: //depot/dev/client3/rdock/2013.1/src/exe/rbdock.cxx#4 $)

>  <Rbt.Library>
libRbt.so (2013.1, Build901 2013/11/27)

>  <Rbt.Parameter_File>
/export/apps/rDock/src/rDock_2013.1_src/data/scripts/dock_solv.prm

>  <Rbt.Receptor>
prm/pocket_docking_6.prm

>  <SCORE>
-7.79243

>  <SCORE.INTER>
-0.635768

>  <SCORE.INTER.CONST>
1

>  <SCORE.INTER.POLAR>
-0.674145

>  <SCORE.INTER.ROT>
10

>  <SCORE.INTER.SOLV>
12.0021

>  <SCORE.INTER.VDW>
-12.4441

>  <SCORE.INTER.norm>
-0.0158942

>  <SCORE.INTRA>
-7.15666

>  <SCORE.INTRA.DIHEDRAL>
-16.5584

>  <SCORE.INTRA.DIHEDRAL.0>
22.5778

>  <SCORE.INTRA.POLAR>
0

>  <SCORE.INTRA.POLAR.0>
0

>  <SCORE.INTRA.REPUL>
0

>  <SCORE.INTRA.REPUL.0>
0

>  <SCORE.INTRA.SOLV>
1.2411

>  <SCORE.INTRA.SOLV.lig_0>
-102.332

>  <SCORE.INTRA.VDW>
0.501981

>  <SCORE.INTRA.VDW.0>
-5.08747

>  <SCORE.INTRA.norm>
-0.178916

>  <SCORE.RESTR>
0

>  <SCORE.RESTR.CAVITY>
0

>  <SCORE.RESTR.norm>
0

>  <SCORE.SYSTEM>
0

>  <SCORE.SYSTEM.CONST>
0

>  <SCORE.SYSTEM.DIHEDRAL>
0

>  <SCORE.SYSTEM.SOLV>
0

>  <SCORE.SYSTEM.norm>
0

>  <SCORE.heavy>
40

>  <SCORE.norm>
-0.194811

>  <RMSD>
8.832

$$$$
2g5q_lig
 OpenBabel11021811433D
libRbt.so/2013.1/901 2013/11/27
 40 42  0  0  0  0  0  0  0  0999 V2000
    6.2773   -4.6250   24.6044 C   0  0  2  0  0  0  0  0  0  0  0  0
    6.0304   -4.6142   23.2157 O   0  0  0  0  0  0  0  0  0  0  0  0
    5.0810   -3.9438   25.3322 C   0  0  1  0  0  0  0  0  0  0  0  0
    4.9880   -2.4224   25.0004 C   0  0  2  0  0  0  0  0  0  0  0  0
    6.3168   -1.7580   25.4451 C   0  0  2  0  0  0  0  0  0  0  0  0
    6.2614   -0.3476   25.1765 O   0  0  0  0  0  0  0  0  0  0  0  0
    7.5033   -2.4432   24.6533 C   0  0  2  0  0  0  0  0  0  0  0  0
    7.5332   -3.9053   24.9432 O   0  0  0  0  0  0  0  0  0  0  0  0
    8.8679   -1.8729   25.0252 C   0  0  0  0  0  0  0  0  0  0  0  0
    9.9653   -2.4488   24.1852 N   0  0  0  0  0  0  0  0  0  0  0  0
    2.9172   -5.5968   20.3141 C   0  0  2  0  0  0  0  0  0  0  0  0
    1.6124   -5.9008   19.7388 N   0  0  0  0  0  0  0  0  0  0  0  0
    3.2926   -6.6698   21.4202 C   0  0  0  0  0  0  0  0  0  0  0  0
    4.7089   -6.3482   22.0410 C   0  0  2  0  0  0  0  0  0  0  0  0
    5.0539   -7.3677   23.0685 N   0  0  0  0  0  0  0  0  0  0  0  0
    4.6968   -4.8924   22.6561 C   0  0  2  0  0  0  0  0  0  0  0  0
    4.3154   -3.8541   21.5277 C   0  0  2  0  0  0  0  0  0  0  0  0
    4.2989   -2.5375   22.0883 O   0  0  0  0  0  0  0  0  0  0  0  0
    2.8932   -4.1839   20.9330 C   0  0  1  0  0  0  0  0  0  0  0  0
    2.5497   -3.2335   19.8856 O   0  0  0  0  0  0  0  0  0  0  0  0
    1.3947   -2.4310   19.8945 C   0  0  2  0  0  0  0  0  0  0  0  0
    1.8420   -0.9681   20.2309 C   0  0  2  0  0  0  0  0  0  0  0  0
    2.7382   -0.5222   19.2642 O   0  0  0  0  0  0  0  0  0  0  0  0
    2.4779   -0.8842   21.6701 C   0  0  1  0  0  0  0  0  0  0  0  0
    2.9055    0.5145   22.0035 N   0  0  0  0  0  0  0  0  0  0  0  0
    1.4138   -1.4087   22.7141 C   0  0  2  0  0  0  0  0  0  0  0  0
    1.9327   -1.3494   24.0444 O   0  0  0  0  0  0  0  0  0  0  0  0
    1.0109   -2.8710   22.3244 C   0  0  2  0  0  0  0  0  0  0  0  0
    0.4639   -2.9244   20.9252 O   0  0  0  0  0  0  0  0  0  0  0  0
   -0.0250   -3.4296   23.2563 C   0  0  0  0  0  0  0  0  0  0  0  0
   -1.2519   -2.6855   23.1790 O   0  0  0  0  0  0  0  0  0  0  0  0
    3.8479   -4.6445   24.9493 O   0  0  0  0  0  0  0  0  0  0  0  0
    3.9243   -1.8697   25.6789 O   0  0  0  0  0  0  0  0  0  0  0  0
   -2.3353   -9.9911   17.2063 N   0  0  0  0  0  0  0  0  0  0  0  0
    1.1830   -7.1618   19.3495 C   0  0  0  0  0  0  0  0  0  0  0  0
    1.8670   -8.1753   19.4406 O   0  0  0  0  0  0  0  0  0  0  0  0
   -0.2506   -7.1444   18.7708 C   0  0  1  0  0  0  0  0  0  0  0  0
   -0.5647   -8.4953   18.0964 C   0  0  0  0  0  0  0  0  0  0  0  0
   -1.9377   -8.6015   17.4227 C   0  0  0  0  0  0  0  0  0  0  0  0
   -1.1877   -6.8691   19.8363 O   0  0  0  0  0  0  0  0  0  0  0  0
  1  2  1  6  0  0  0
  1  3  1  0  0  0  0
  1  8  1  0  0  0  0
  3  4  1  0  0  0  0
  3 32  1  6  0  0  0
  4  5  1  0  0  0  0
  4 33  1  1  0  0  0
  5  6  1  6  0  0  0
  5  7  1  0  0  0  0
  7  8  1  0  0  0  0
  7  9  1  1  0  0  0
  9 10  1  0  0  0  0
 11 12  1  1  0  0  0
 11 13  1  0  0  0  0
 11 19  1  0  0  0  0
 12 35  1  0  0  0  0
 13 14  1  0  0  0  0
 14 15  1  1  0  0  0
 14 16  1  0  0  0  0
 16  2  1  6  0  0  0
 16 17  1  0  0  0  0
 17 18  1  1  0  0  0
 17 19  1  0  0  0  0
 19 20  1  6  0  0  0
 21 20  1  1  0  0  0
 21 22  1  0  0  0  0
 21 29  1  0  0  0  0
 22 23  1  6  0  0  0
 22 24  1  0  0  0  0
 24 25  1  1  0  0  0
 24 26  1  0  0  0  0
 26 27  1  1  0  0  0
 26 28  1  0  0  0  0
 28 29  1  0  0  0  0
 28 30  1  1  0  0  0
 30 31  1  0  0  0  0
 34 39  1  0  0  0  0
 35 36  2  0  0  0  0
 37 35  1  1  0  0  0
 37 38  1  0  0  0  0
 37 40  1  0  0  0  0
 38 39  1  0  0  0  0
M  END
>  <CHROM.1>
-40.85727835,-175.14090710,-44.62349828,-104.94902225,117.44118723,106.14851377
63.58493559,168.46500474,-177.48673367,-161.15298797,3.10320804,-3.99597160
22.05899564,-0.68647123,0.51759208,-2.82111330

>  <Name>
2g5q_lig

>  <RI>
224

>  <Rbt.Current_Directory>
/home/itssahil/PROJECTS/Mol_Feturizer/New_Systems/rnas/2g5q

>  <Rbt.Executable>
rbdock ($Id: //depot/dev/client3/rdock/2013.1/src/exe/rbdock.cxx#4 $)

>  <Rbt.Library>
libRbt.so (2013.1, Build901 2013/11/27)

>  <Rbt.Parameter_File>
/export/apps/rDock/src/rDock_2013.1_src/data/scripts/dock_solv.prm

>  <Rbt.Receptor>
prm/blind_docking_60.prm

>  <SCORE>
24.5791

>  <SCORE.INTER>
2.95162

>  <SCORE.INTER.CONST>
1

>  <SCORE.INTER.POLAR>
0

>  <SCORE.INTER.ROT>
10

>  <SCORE.INTER.SOLV>
22.599

>  <SCORE.INTER.VDW>
-15.8319

>  <SCORE.INTER.norm>
0.0737905

>  <SCORE.INTRA>
9.35186

>  <SCORE.INTRA.DIHEDRAL>
1.21332

>  <SCORE.INTRA.DIHEDRAL.0>
22.5778

>  <SCORE.INTRA.POLAR>
0

>  <SCORE.INTRA.POLAR.0>
0

>  <SCORE.INTRA.REPUL>
0

>  <SCORE.INTRA.REPUL.0>
0

>  <SCORE.INTRA.SOLV>
3.41724

>  <SCORE.INTRA.SOLV.lig_0>
-102.332

>  <SCORE.INTRA.VDW>
7.03658

>  <SCORE.INTRA.VDW.0>
-5.08747

>  <SCORE.INTRA.norm>
0.233797

>  <SCORE.RESTR>
12.2756

>  <SCORE.RESTR.CAVITY>
12.2756

>  <SCORE.RESTR.norm>
0.306889

>  <SCORE.SYSTEM>
0

>  <SCORE.SYSTEM.CONST>
0

>  <SCORE.SYSTEM.DIHEDRAL>
0

>  <SCORE.SYSTEM.SOLV>
0

>  <SCORE.SYSTEM.norm>
0

>  <SCORE.heavy>
40

>  <SCORE.norm>
0.614476

>  <RMSD>
8.858

$$$$
2g5q_lig
 OpenBabel11021811433D
libRbt.so/2013.1/901 2013/11/27
 40 42  0  0  0  0  0  0  0  0999 V2000
   -4.2207   -8.3458   16.6580 C   0  0  2  0  0  0  0  0  0  0  0  0
   -3.2445   -8.8281   17.5546 O   0  0  0  0  0  0  0  0  0  0  0  0
   -5.2925   -7.5523   17.4620 C   0  0  1  0  0  0  0  0  0  0  0  0
   -6.1112   -8.4795   18.4125 C   0  0  2  0  0  0  0  0  0  0  0  0
   -6.8049   -9.5583   17.5409 C   0  0  2  0  0  0  0  0  0  0  0  0
   -7.5900  -10.4210   18.3798 O   0  0  0  0  0  0  0  0  0  0  0  0
   -5.6850  -10.3726   16.7749 C   0  0  2  0  0  0  0  0  0  0  0  0
   -4.8811   -9.4539   15.9190 O   0  0  0  0  0  0  0  0  0  0  0  0
   -6.2590  -11.4584   15.8708 C   0  0  0  0  0  0  0  0  0  0  0  0
   -7.0232  -12.4875   16.6445 N   0  0  0  0  0  0  0  0  0  0  0  0
    0.7609  -10.5216   17.1472 C   0  0  2  0  0  0  0  0  0  0  0  0
    2.1570  -10.6872   16.7609 N   0  0  0  0  0  0  0  0  0  0  0  0
   -0.1566  -10.4186   15.8574 C   0  0  0  0  0  0  0  0  0  0  0  0
   -1.6710  -10.2463   16.2714 C   0  0  2  0  0  0  0  0  0  0  0  0
   -2.5218  -10.1622   15.0536 N   0  0  0  0  0  0  0  0  0  0  0  0
   -1.8279   -8.9577   17.1731 C   0  0  2  0  0  0  0  0  0  0  0  0
   -0.8976   -9.0950   18.4430 C   0  0  2  0  0  0  0  0  0  0  0  0
   -1.0364   -7.9245   19.2546 O   0  0  0  0  0  0  0  0  0  0  0  0
    0.6096   -9.2502   18.0079 C   0  0  1  0  0  0  0  0  0  0  0  0
    1.4628   -9.3888   19.1789 O   0  0  0  0  0  0  0  0  0  0  0  0
    1.4973   -8.4714   20.2444 C   0  0  2  0  0  0  0  0  0  0  0  0
    2.1610   -7.1569   19.7108 C   0  0  2  0  0  0  0  0  0  0  0  0
    1.4076   -6.6509   18.6559 O   0  0  0  0  0  0  0  0  0  0  0  0
    3.6515   -7.4113   19.2676 C   0  0  1  0  0  0  0  0  0  0  0  0
    4.2976   -6.1566   18.7590 N   0  0  0  0  0  0  0  0  0  0  0  0
    4.4459   -7.9884   20.5058 C   0  0  2  0  0  0  0  0  0  0  0  0
    5.8121   -8.2333   20.1658 O   0  0  0  0  0  0  0  0  0  0  0  0
    3.7353   -9.2979   20.9885 C   0  0  2  0  0  0  0  0  0  0  0  0
    2.2998   -9.0314   21.3465 O   0  0  0  0  0  0  0  0  0  0  0  0
    4.4169   -9.8912   22.1872 C   0  0  0  0  0  0  0  0  0  0  0  0
    5.7638  -10.2863   21.8792 O   0  0  0  0  0  0  0  0  0  0  0  0
   -4.6120   -6.4910   18.2162 O   0  0  0  0  0  0  0  0  0  0  0  0
   -7.0502   -7.7301   19.0865 O   0  0  0  0  0  0  0  0  0  0  0  0
    5.4756  -14.4610   15.5743 N   0  0  0  0  0  0  0  0  0  0  0  0
    2.6612  -11.7416   16.0124 C   0  0  0  0  0  0  0  0  0  0  0  0
    1.9789  -12.6698   15.5925 O   0  0  0  0  0  0  0  0  0  0  0  0
    4.1854  -11.6251   15.7807 C   0  0  1  0  0  0  0  0  0  0  0  0
    4.5877  -12.4009   14.5101 C   0  0  0  0  0  0  0  0  0  0  0  0
    4.5147  -13.9290   14.6102 C   0  0  0  0  0  0  0  0  0  0  0  0
    4.5414  -10.2287   15.6673 O   0  0  0  0  0  0  0  0  0  0  0  0
  1  2  1  1  0  0  0
  1  3  1  0  0  0  0
  1  8  1  0  0  0  0
  3  4  1  0  0  0  0
  3 32  1  1  0  0  0
  4  5  1  0  0  0  0
  4 33  1  6  0  0  0
  5  6  1  1  0  0  0
  5  7  1  0  0  0  0
  7  8  1  0  0  0  0
  7  9  1  6  0  0  0
  9 10  1  0  0  0  0
 11 12  1  6  0  0  0
 11 13  1  0  0  0  0
 11 19  1  0  0  0  0
 12 35  1  0  0  0  0
 13 14  1  0  0  0  0
 14 15  1  6  0  0  0
 14 16  1  0  0  0  0
 16  2  1  1  0  0  0
 16 17  1  0  0  0  0
 17 18  1  1  0  0  0
 17 19  1  0  0  0  0
 19 20  1  1  0  0  0
 21 20  1  6  0  0  0
 21 22  1  0  0  0  0
 21 29  1  0  0  0  0
 22 23  1  6  0  0  0
 22 24  1  0  0  0  0
 24 25  1  1  0  0  0
 24 26  1  0  0  0  0
 26 27  1  6  0  0  0
 26 28  1  0  0  0  0
 28 29  1  0  0  0  0
 28 30  1  1  0  0  0
 30 31  1  0  0  0  0
 34 39  1  0  0  0  0
 35 36  2  0  0  0  0
 37 35  1  6  0  0  0
 37 38  1  0  0  0  0
 37 40  1  0  0  0  0
 38 39  1  0  0  0  0
M  END
>  <CHROM.1>
-146.57230716,-61.87889779,-60.38991239,-76.88488813,-174.41170911,-69.68482473
-62.77307005,-155.55959379,-70.59378938,-65.06656626,-0.11714902,-9.61881321
17.85739270,3.10728927,0.12932958,-2.32647956

>  <Name>
2g5q_lig

>  <RI>
9.52566e+06

>  <Rbt.Current_Directory>
/home/itssahil/PROJECTS/Mol_Feturizer/New_Systems/rnas/2g5q

>  <Rbt.Executable>
rbdock ($Id: //depot/dev/client3/rdock/2013.1/src/exe/rbdock.cxx#4 $)

>  <Rbt.Library>
libRbt.so (2013.1, Build901 2013/11/27)

>  <Rbt.Parameter_File>
/export/apps/rDock/src/rDock_2013.1_src/data/scripts/dock_solv.prm

>  <Rbt.Receptor>
prm/pocket_docking_4.prm

>  <SCORE>
-9.48155

>  <SCORE.INTER>
-6.82665

>  <SCORE.INTER.CONST>
1

>  <SCORE.INTER.POLAR>
-1.80522

>  <SCORE.INTER.ROT>
10

>  <SCORE.INTER.SOLV>
15.6279

>  <SCORE.INTER.VDW>
-14.0097

>  <SCORE.INTER.norm>
-0.170666

>  <SCORE.INTRA>
-2.6549

>  <SCORE.INTRA.DIHEDRAL>
-14.4736

>  <SCORE.INTRA.DIHEDRAL.0>
22.5778

>  <SCORE.INTRA.POLAR>
0

>  <SCORE.INTRA.POLAR.0>
0

>  <SCORE.INTRA.REPUL>
0

>  <SCORE.INTRA.REPUL.0>
0

>  <SCORE.INTRA.SOLV>
4.22468

>  <SCORE.INTRA.SOLV.lig_0>
-102.332

>  <SCORE.INTRA.VDW>
2.46956

>  <SCORE.INTRA.VDW.0>
-5.08747

>  <SCORE.INTRA.norm>
-0.0663726

>  <SCORE.RESTR>
0

>  <SCORE.RESTR.CAVITY>
0

>  <SCORE.RESTR.norm>
0

>  <SCORE.SYSTEM>
0

>  <SCORE.SYSTEM.CONST>
0

>  <SCORE.SYSTEM.DIHEDRAL>
0

>  <SCORE.SYSTEM.SOLV>
0

>  <SCORE.SYSTEM.norm>
0

>  <SCORE.heavy>
40

>  <SCORE.norm>
-0.237039

>  <RMSD>
8.864

$$$$
2g5q_lig
 OpenBabel11021811433D
libRbt.so/2013.1/901 2013/11/27
 40 42  0  0  0  0  0  0  0  0999 V2000
   -6.8341   -9.2720   16.1405 C   0  0  2  0  0  0  0  0  0  0  0  0
   -5.5596   -9.4500   15.5631 O   0  0  0  0  0  0  0  0  0  0  0  0
   -7.3856  -10.6610   16.5778 C   0  0  1  0  0  0  0  0  0  0  0  0
   -7.6765  -11.5832   15.3536 C   0  0  2  0  0  0  0  0  0  0  0  0
   -8.7188  -10.8660   14.4569 C   0  0  2  0  0  0  0  0  0  0  0  0
   -9.0315  -11.6963   13.3267 O   0  0  0  0  0  0  0  0  0  0  0  0
   -8.1074   -9.4813   13.9956 C   0  0  2  0  0  0  0  0  0  0  0  0
   -7.7851   -8.6437   15.1861 O   0  0  0  0  0  0  0  0  0  0  0  0
   -9.0595   -8.6802   13.1140 C   0  0  0  0  0  0  0  0  0  0  0  0
   -8.4420   -7.4025   12.6365 N   0  0  0  0  0  0  0  0  0  0  0  0
   -1.4248   -9.6695   16.9534 C   0  0  2  0  0  0  0  0  0  0  0  0
   -0.2509  -10.0199   17.7439 N   0  0  0  0  0  0  0  0  0  0  0  0
   -2.4937   -8.9254   17.8588 C   0  0  0  0  0  0  0  0  0  0  0  0
   -3.7643   -8.5376   17.0046 C   0  0  2  0  0  0  0  0  0  0  0  0
   -4.7537   -7.8308   17.8623 N   0  0  0  0  0  0  0  0  0  0  0  0
   -4.3862   -9.8411   16.3628 C   0  0  2  0  0  0  0  0  0  0  0  0
   -3.2928  -10.5557   15.4735 C   0  0  2  0  0  0  0  0  0  0  0  0
   -3.8562  -11.7389   14.8986 O   0  0  0  0  0  0  0  0  0  0  0  0
   -2.0412  -10.9476   16.3480 C   0  0  1  0  0  0  0  0  0  0  0  0
   -1.0307  -11.5944   15.5241 O   0  0  0  0  0  0  0  0  0  0  0  0
   -1.2562  -12.7555   14.7631 C   0  0  2  0  0  0  0  0  0  0  0  0
   -1.2771  -13.9690   15.7531 C   0  0  2  0  0  0  0  0  0  0  0  0
   -2.2953  -13.7913   16.6849 O   0  0  0  0  0  0  0  0  0  0  0  0
    0.1162  -14.1447   16.4676 C   0  0  1  0  0  0  0  0  0  0  0  0
    0.1077  -15.3078   17.4149 N   0  0  0  0  0  0  0  0  0  0  0  0
    1.2234  -14.3353   15.3562 C   0  0  2  0  0  0  0  0  0  0  0  0
    2.5135  -14.5076   15.9461 O   0  0  0  0  0  0  0  0  0  0  0  0
    1.1938  -13.0924   14.4038 C   0  0  2  0  0  0  0  0  0  0  0  0
   -0.1655  -12.9195   13.7856 O   0  0  0  0  0  0  0  0  0  0  0  0
    2.2016  -13.2149   13.2979 C   0  0  0  0  0  0  0  0  0  0  0  0
    1.9046  -14.3308   12.4426 O   0  0  0  0  0  0  0  0  0  0  0  0
   -6.4106  -11.2801   17.4857 O   0  0  0  0  0  0  0  0  0  0  0  0
   -8.1729  -12.7894   15.7964 O   0  0  0  0  0  0  0  0  0  0  0  0
    2.9053  -12.0221   20.9256 N   0  0  0  0  0  0  0  0  0  0  0  0
    0.7270   -9.1290   18.1637 C   0  0  0  0  0  0  0  0  0  0  0  0
    0.7160   -7.9304   17.9059 O   0  0  0  0  0  0  0  0  0  0  0  0
    1.8437   -9.8200   18.9798 C   0  0  1  0  0  0  0  0  0  0  0  0
    1.3218  -10.1881   20.3834 C   0  0  0  0  0  0  0  0  0  0  0  0
    2.3676  -10.7351   21.3620 C   0  0  0  0  0  0  0  0  0  0  0  0
    2.2894  -10.9974   18.2695 O   0  0  0  0  0  0  0  0  0  0  0  0
  1  2  1  6  0  0  0
  1  3  1  0  0  0  0
  1  8  1  0  0  0  0
  3  4  1  0  0  0  0
  3 32  1  1  0  0  0
  4  5  1  0  0  0  0
  4 33  1  1  0  0  0
  5  6  1  6  0  0  0
  5  7  1  0  0  0  0
  7  8  1  0  0  0  0
  7  9  1  6  0  0  0
  9 10  1  0  0  0  0
 11 12  1  1  0  0  0
 11 13  1  0  0  0  0
 11 19  1  0  0  0  0
 12 35  1  0  0  0  0
 13 14  1  0  0  0  0
 14 15  1  1  0  0  0
 14 16  1  0  0  0  0
 16  2  1  6  0  0  0
 16 17  1  0  0  0  0
 17 18  1  1  0  0  0
 17 19  1  0  0  0  0
 19 20  1  6  0  0  0
 21 20  1  1  0  0  0
 21 22  1  0  0  0  0
 21 29  1  0  0  0  0
 22 23  1  1  0  0  0
 22 24  1  0  0  0  0
 24 25  1  1  0  0  0
 24 26  1  0  0  0  0
 26 27  1  1  0  0  0
 26 28  1  0  0  0  0
 28 29  1  0  0  0  0
 28 30  1  6  0  0  0
 30 31  1  0  0  0  0
 34 39  1  0  0  0  0
 35 36  2  0  0  0  0
 37 35  1  6  0  0  0
 37 38  1  0  0  0  0
 37 40  1  0  0  0  0
 38 39  1  0  0  0  0
M  END
>  <CHROM.1>
-69.68813161,-177.41779192,-74.98051287,-84.14215861,-176.86794038,-75.98547051
63.58971829,-73.46309465,-173.22227650,-65.27669724,-2.60552807,-11.14546089
16.17356638,3.13004928,0.34770569,-2.35858892

>  <Name>
2g5q_lig

>  <RI>
2.90231e+07

>  <Rbt.Current_Directory>
/home/itssahil/PROJECTS/Mol_Feturizer/New_Systems/rnas/2g5q

>  <Rbt.Executable>
rbdock ($Id: //depot/dev/client3/rdock/2013.1/src/exe/rbdock.cxx#4 $)

>  <Rbt.Library>
libRbt.so (2013.1, Build901 2013/11/27)

>  <Rbt.Parameter_File>
/export/apps/rDock/src/rDock_2013.1_src/data/scripts/dock_solv.prm

>  <Rbt.Receptor>
prm/pocket_docking_6.prm

>  <SCORE>
-15.7912

>  <SCORE.INTER>
-9.625

>  <SCORE.INTER.CONST>
1

>  <SCORE.INTER.POLAR>
-1.49317

>  <SCORE.INTER.ROT>
10

>  <SCORE.INTER.SOLV>
16.1843

>  <SCORE.INTER.VDW>
-17.1009

>  <SCORE.INTER.norm>
-0.240625

>  <SCORE.INTRA>
-6.16618

>  <SCORE.INTRA.DIHEDRAL>
-16.8576

>  <SCORE.INTRA.DIHEDRAL.0>
22.5778

>  <SCORE.INTRA.POLAR>
0

>  <SCORE.INTRA.POLAR.0>
0

>  <SCORE.INTRA.REPUL>
0

>  <SCORE.INTRA.REPUL.0>
0

>  <SCORE.INTRA.SOLV>
2.26758

>  <SCORE.INTRA.SOLV.lig_0>
-102.332

>  <SCORE.INTRA.VDW>
1.12883

>  <SCORE.INTRA.VDW.0>
-5.08747

>  <SCORE.INTRA.norm>
-0.154154

>  <SCORE.RESTR>
0

>  <SCORE.RESTR.CAVITY>
0

>  <SCORE.RESTR.norm>
0

>  <SCORE.SYSTEM>
0

>  <SCORE.SYSTEM.CONST>
0

>  <SCORE.SYSTEM.DIHEDRAL>
0

>  <SCORE.SYSTEM.SOLV>
0

>  <SCORE.SYSTEM.norm>
0

>  <SCORE.heavy>
40

>  <SCORE.norm>
-0.39478

>  <RMSD>
8.865

$$$$
2g5q_lig
 OpenBabel11021811433D
libRbt.so/2013.1/901 2013/11/27
 40 42  0  0  0  0  0  0  0  0999 V2000
    6.2342   -4.3651   24.6553 C   0  0  2  0  0  0  0  0  0  0  0  0
    6.0635   -4.6580   23.2862 O   0  0  0  0  0  0  0  0  0  0  0  0
    5.2359   -3.2392   25.0561 C   0  0  1  0  0  0  0  0  0  0  0  0
    5.5751   -1.8856   24.3589 C   0  0  2  0  0  0  0  0  0  0  0  0
    7.0126   -1.4830   24.7789 C   0  0  2  0  0  0  0  0  0  0  0  0
    7.3549   -0.2256   24.1736 O   0  0  0  0  0  0  0  0  0  0  0  0
    8.0033   -2.6270   24.3164 C   0  0  2  0  0  0  0  0  0  0  0  0
    7.6215   -3.9206   24.9516 O   0  0  0  0  0  0  0  0  0  0  0  0
    9.4530   -2.3401   24.6930 C   0  0  0  0  0  0  0  0  0  0  0  0
   10.4088   -3.2417   23.9752 N   0  0  0  0  0  0  0  0  0  0  0  0
    2.9984   -5.6444   20.3350 C   0  0  2  0  0  0  0  0  0  0  0  0
    1.7042   -5.9550   19.7397 N   0  0  0  0  0  0  0  0  0  0  0  0
    3.3678   -6.7227   21.4381 C   0  0  0  0  0  0  0  0  0  0  0  0
    4.7727   -6.3941   22.0806 C   0  0  2  0  0  0  0  0  0  0  0  0
    5.1123   -7.4184   23.1049 N   0  0  0  0  0  0  0  0  0  0  0  0
    4.7400   -4.9431   22.7063 C   0  0  2  0  0  0  0  0  0  0  0  0
    4.3651   -3.8994   21.5806 C   0  0  2  0  0  0  0  0  0  0  0  0
    4.3299   -2.5873   22.1508 O   0  0  0  0  0  0  0  0  0  0  0  0
    2.9540   -4.2365   20.9642 C   0  0  1  0  0  0  0  0  0  0  0  0
    2.6168   -3.2811   19.9193 O   0  0  0  0  0  0  0  0  0  0  0  0
    1.4460   -2.5018   19.9091 C   0  0  2  0  0  0  0  0  0  0  0  0
    1.8588   -1.0300   20.2510 C   0  0  2  0  0  0  0  0  0  0  0  0
    2.7611   -0.5670   19.2981 O   0  0  0  0  0  0  0  0  0  0  0  0
    2.4700   -0.9324   21.7000 C   0  0  1  0  0  0  0  0  0  0  0  0
    2.8644    0.4748   22.0386 N   0  0  0  0  0  0  0  0  0  0  0  0
    1.4002   -1.4772   22.7276 C   0  0  2  0  0  0  0  0  0  0  0  0
    1.8967   -1.4067   24.0658 O   0  0  0  0  0  0  0  0  0  0  0  0
    1.0327   -2.9475   22.3331 C   0  0  2  0  0  0  0  0  0  0  0  0
    0.5091   -3.0129   20.9255 O   0  0  0  0  0  0  0  0  0  0  0  0
   -0.0066   -3.5260   23.2491 C   0  0  0  0  0  0  0  0  0  0  0  0
   -1.2546   -2.8234   23.1319 O   0  0  0  0  0  0  0  0  0  0  0  0
    3.8777   -3.6833   24.7153 O   0  0  0  0  0  0  0  0  0  0  0  0
    4.6716   -0.9255   24.7582 O   0  0  0  0  0  0  0  0  0  0  0  0
   -2.7172   -8.0170   17.2503 N   0  0  0  0  0  0  0  0  0  0  0  0
    1.2882   -7.2176   19.3412 C   0  0  0  0  0  0  0  0  0  0  0  0
    1.9769   -8.2272   19.4401 O   0  0  0  0  0  0  0  0  0  0  0  0
   -0.1367   -7.2075   18.7412 C   0  0  1  0  0  0  0  0  0  0  0  0
   -0.4238   -8.5498   18.0384 C   0  0  0  0  0  0  0  0  0  0  0  0
   -1.8958   -8.9750   17.9875 C   0  0  0  0  0  0  0  0  0  0  0  0
   -1.0930   -6.9628   19.7971 O   0  0  0  0  0  0  0  0  0  0  0  0
  1  2  1  6  0  0  0
  1  3  1  0  0  0  0
  1  8  1  0  0  0  0
  3  4  1  0  0  0  0
  3 32  1  6  0  0  0
  4  5  1  0  0  0  0
  4 33  1  1  0  0  0
  5  6  1  6  0  0  0
  5  7  1  0  0  0  0
  7  8  1  0  0  0  0
  7  9  1  1  0  0  0
  9 10  1  0  0  0  0
 11 12  1  1  0  0  0
 11 13  1  0  0  0  0
 11 19  1  0  0  0  0
 12 35  1  0  0  0  0
 13 14  1  0  0  0  0
 14 15  1  1  0  0  0
 14 16  1  0  0  0  0
 16  2  1  6  0  0  0
 16 17  1  0  0  0  0
 17 18  1  1  0  0  0
 17 19  1  0  0  0  0
 19 20  1  6  0  0  0
 21 20  1  1  0  0  0
 21 22  1  0  0  0  0
 21 29  1  0  0  0  0
 22 23  1  6  0  0  0
 22 24  1  0  0  0  0
 24 25  1  1  0  0  0
 24 26  1  0  0  0  0
 26 27  1  1  0  0  0
 26 28  1  0  0  0  0
 28 29  1  0  0  0  0
 28 30  1  1  0  0  0
 30 31  1  0  0  0  0
 34 39  1  0  0  0  0
 35 36  2  0  0  0  0
 37 35  1  1  0  0  0
 37 38  1  0  0  0  0
 37 40  1  0  0  0  0
 38 39  1  0  0  0  0
M  END
>  <CHROM.1>
-50.88264959,-166.16492813,-44.28727544,-120.25211545,116.52411580,106.99309693
64.74626715,167.50637057,152.00735628,61.43623379,3.25070666,-3.93606458
21.96736289,-0.63482084,0.44692500,-2.81899162

>  <Name>
2g5q_lig

>  <RI>
224

>  <Rbt.Current_Directory>
/home/itssahil/PROJECTS/Mol_Feturizer/New_Systems/rnas/2g5q

>  <Rbt.Executable>
rbdock ($Id: //depot/dev/client3/rdock/2013.1/src/exe/rbdock.cxx#4 $)

>  <Rbt.Library>
libRbt.so (2013.1, Build901 2013/11/27)

>  <Rbt.Parameter_File>
/export/apps/rDock/src/rDock_2013.1_src/data/scripts/dock_solv.prm

>  <Rbt.Receptor>
prm/blind_docking_60.prm

>  <SCORE>
21.7409

>  <SCORE.INTER>
-0.279332

>  <SCORE.INTER.CONST>
1

>  <SCORE.INTER.POLAR>
0

>  <SCORE.INTER.ROT>
10

>  <SCORE.INTER.SOLV>
26.6096

>  <SCORE.INTER.VDW>
-19.3228

>  <SCORE.INTER.norm>
-0.00698329

>  <SCORE.INTRA>
10.1547

>  <SCORE.INTRA.DIHEDRAL>
2.77498

>  <SCORE.INTRA.DIHEDRAL.0>
22.5778

>  <SCORE.INTRA.POLAR>
0

>  <SCORE.INTRA.POLAR.0>
0

>  <SCORE.INTRA.REPUL>
0

>  <SCORE.INTRA.REPUL.0>
0

>  <SCORE.INTRA.SOLV>
5.1688

>  <SCORE.INTRA.SOLV.lig_0>
-102.332

>  <SCORE.INTRA.VDW>
6.18278

>  <SCORE.INTRA.VDW.0>
-5.08747

>  <SCORE.INTRA.norm>
0.253867

>  <SCORE.RESTR>
11.8655

>  <SCORE.RESTR.CAVITY>
11.8655

>  <SCORE.RESTR.norm>
0.296638

>  <SCORE.SYSTEM>
0

>  <SCORE.SYSTEM.CONST>
0

>  <SCORE.SYSTEM.DIHEDRAL>
0

>  <SCORE.SYSTEM.SOLV>
0

>  <SCORE.SYSTEM.norm>
0

>  <SCORE.heavy>
40

>  <SCORE.norm>
0.543521

>  <RMSD>
8.914

$$$$
2g5q_lig
 OpenBabel11021811433D
libRbt.so/2013.1/901 2013/11/27
 40 42  0  0  0  0  0  0  0  0999 V2000
   -4.0203   -8.2406   16.9581 C   0  0  2  0  0  0  0  0  0  0  0  0
   -3.8301   -8.6719   18.2875 O   0  0  0  0  0  0  0  0  0  0  0  0
   -5.5411   -8.0070   16.7188 C   0  0  1  0  0  0  0  0  0  0  0  0
   -6.3509   -9.3390   16.7788 C   0  0  2  0  0  0  0  0  0  0  0  0
   -5.7894  -10.2850   15.6858 C   0  0  2  0  0  0  0  0  0  0  0  0
   -6.5268  -11.5181   15.6936 O   0  0  0  0  0  0  0  0  0  0  0  0
   -4.2561  -10.5354   15.9864 C   0  0  2  0  0  0  0  0  0  0  0  0
   -3.5166   -9.2408   15.9804 O   0  0  0  0  0  0  0  0  0  0  0  0
   -3.5945  -11.4475   14.9587 C   0  0  0  0  0  0  0  0  0  0  0  0
   -2.1633  -11.7292   15.2964 N   0  0  0  0  0  0  0  0  0  0  0  0
   -0.3654   -9.2576   20.8818 C   0  0  2  0  0  0  0  0  0  0  0  0
    0.9065   -9.7511   21.3960 N   0  0  0  0  0  0  0  0  0  0  0  0
   -1.3815  -10.4598   20.6860 C   0  0  0  0  0  0  0  0  0  0  0  0
   -2.7634   -9.9287   20.1358 C   0  0  2  0  0  0  0  0  0  0  0  0
   -3.7105  -11.0639   19.9672 N   0  0  0  0  0  0  0  0  0  0  0  0
   -2.5299   -9.1665   18.7711 C   0  0  2  0  0  0  0  0  0  0  0  0
   -1.5112   -7.9814   19.0048 C   0  0  2  0  0  0  0  0  0  0  0  0
   -1.2965   -7.2967   17.7666 O   0  0  0  0  0  0  0  0  0  0  0  0
   -0.1350   -8.5345   19.5386 C   0  0  1  0  0  0  0  0  0  0  0  0
    0.7971   -7.4398   19.7647 O   0  0  0  0  0  0  0  0  0  0  0  0
    1.4653   -6.7465   18.7396 C   0  0  2  0  0  0  0  0  0  0  0  0
    2.5415   -7.7149   18.1420 C   0  0  2  0  0  0  0  0  0  0  0  0
    1.9156   -8.8497   17.6354 O   0  0  0  0  0  0  0  0  0  0  0  0
    3.6213   -8.1018   19.2222 C   0  0  1  0  0  0  0  0  0  0  0  0
    4.6596   -9.0259   18.6580 N   0  0  0  0  0  0  0  0  0  0  0  0
    4.2863   -6.7720   19.7577 C   0  0  2  0  0  0  0  0  0  0  0  0
    5.2839   -7.0604   20.7395 O   0  0  0  0  0  0  0  0  0  0  0  0
    3.1618   -5.8516   20.3415 C   0  0  2  0  0  0  0  0  0  0  0  0
    2.1180   -5.5509   19.3023 O   0  0  0  0  0  0  0  0  0  0  0  0
    3.7141   -4.5493   20.8443 C   0  0  0  0  0  0  0  0  0  0  0  0
    4.2598   -3.7649   19.7711 O   0  0  0  0  0  0  0  0  0  0  0  0
   -6.0247   -7.0489   17.7220 O   0  0  0  0  0  0  0  0  0  0  0  0
   -7.6832   -9.0759   16.5480 O   0  0  0  0  0  0  0  0  0  0  0  0
    5.3823  -11.6224   21.9772 N   0  0  0  0  0  0  0  0  0  0  0  0
    1.1152  -10.2461   22.6756 C   0  0  0  0  0  0  0  0  0  0  0  0
    0.2407  -10.3177   23.5320 O   0  0  0  0  0  0  0  0  0  0  0  0
    2.5802  -10.6825   22.9079 C   0  0  1  0  0  0  0  0  0  0  0  0
    2.9154  -11.9004   22.0235 C   0  0  0  0  0  0  0  0  0  0  0  0
    4.2855  -12.5442   22.2658 C   0  0  0  0  0  0  0  0  0  0  0  0
    3.4572   -9.5723   22.6118 O   0  0  0  0  0  0  0  0  0  0  0  0
  1  2  1  1  0  0  0
  1  3  1  0  0  0  0
  1  8  1  0  0  0  0
  3  4  1  0  0  0  0
  3 32  1  1  0  0  0
  4  5  1  0  0  0  0
  4 33  1  6  0  0  0
  5  6  1  1  0  0  0
  5  7  1  0  0  0  0
  7  8  1  0  0  0  0
  7  9  1  6  0  0  0
  9 10  1  0  0  0  0
 11 12  1  6  0  0  0
 11 13  1  0  0  0  0
 11 19  1  0  0  0  0
 12 35  1  0  0  0  0
 13 14  1  0  0  0  0
 14 15  1  6  0  0  0
 14 16  1  0  0  0  0
 16  2  1  1  0  0  0
 16 17  1  0  0  0  0
 17 18  1  6  0  0  0
 17 19  1  0  0  0  0
 19 20  1  1  0  0  0
 21 20  1  1  0  0  0
 21 22  1  0  0  0  0
 21 29  1  0  0  0  0
 22 23  1  1  0  0  0
 22 24  1  0  0  0  0
 24 25  1  6  0  0  0
 24 26  1  0  0  0  0
 26 27  1  1  0  0  0
 26 28  1  0  0  0  0
 28 29  1  0  0  0  0
 28 30  1  6  0  0  0
 30 31  1  0  0  0  0
 34 39  1  0  0  0  0
 35 36  2  0  0  0  0
 37 35  1  6  0  0  0
 37 38  1  0  0  0  0
 37 40  1  0  0  0  0
 38 39  1  0  0  0  0
M  END
>  <CHROM.1>
170.85825422,-177.11405218,-70.18216317,-164.27880176,165.53368396,-71.33059172
65.06836106,-66.57250563,-173.22459418,-62.54904306,-0.36638913,-8.89054986
19.12904258,-3.05635974,0.46264145,2.65496479

>  <Name>
2g5q_lig

>  <RI>
2.47104e+07

>  <Rbt.Current_Directory>
/home/itssahil/PROJECTS/Mol_Feturizer/New_Systems/rnas/2g5q

>  <Rbt.Executable>
rbdock ($Id: //depot/dev/client3/rdock/2013.1/src/exe/rbdock.cxx#4 $)

>  <Rbt.Library>
libRbt.so (2013.1, Build901 2013/11/27)

>  <Rbt.Parameter_File>
/export/apps/rDock/src/rDock_2013.1_src/data/scripts/dock_solv.prm

>  <Rbt.Receptor>
prm/pocket_docking_7.prm

>  <SCORE>
-18.617

>  <SCORE.INTER>
-10.389

>  <SCORE.INTER.CONST>
1

>  <SCORE.INTER.POLAR>
-0.331281

>  <SCORE.INTER.ROT>
10

>  <SCORE.INTER.SOLV>
15.1957

>  <SCORE.INTER.VDW>
-21.1536

>  <SCORE.INTER.norm>
-0.259724

>  <SCORE.INTRA>
-8.22801

>  <SCORE.INTRA.DIHEDRAL>
-18.1661

>  <SCORE.INTRA.DIHEDRAL.0>
22.5778

>  <SCORE.INTRA.POLAR>
0

>  <SCORE.INTRA.POLAR.0>
0

>  <SCORE.INTRA.REPUL>
0

>  <SCORE.INTRA.REPUL.0>
0

>  <SCORE.INTRA.SOLV>
1.66301

>  <SCORE.INTRA.SOLV.lig_0>
-102.332

>  <SCORE.INTRA.VDW>
0.0235161

>  <SCORE.INTRA.VDW.0>
-5.08747

>  <SCORE.INTRA.norm>
-0.2057

>  <SCORE.RESTR>
0

>  <SCORE.RESTR.CAVITY>
0

>  <SCORE.RESTR.norm>
0

>  <SCORE.SYSTEM>
0

>  <SCORE.SYSTEM.CONST>
0

>  <SCORE.SYSTEM.DIHEDRAL>
0

>  <SCORE.SYSTEM.SOLV>
0

>  <SCORE.SYSTEM.norm>
0

>  <SCORE.heavy>
40

>  <SCORE.norm>
-0.465425

>  <RMSD>
8.919

$$$$
2g5q_lig
 OpenBabel11021811433D
libRbt.so/2013.1/901 2013/11/27
 40 42  0  0  0  0  0  0  0  0999 V2000
   -6.1940   -9.4613   16.3835 C   0  0  2  0  0  0  0  0  0  0  0  0
   -4.9821   -9.6290   15.6816 O   0  0  0  0  0  0  0  0  0  0  0  0
   -6.7643  -10.8650   16.7429 C   0  0  1  0  0  0  0  0  0  0  0  0
   -7.1974  -11.6598   15.4723 C   0  0  2  0  0  0  0  0  0  0  0  0
   -8.2812  -10.8276   14.7390 C   0  0  2  0  0  0  0  0  0  0  0  0
   -8.7240  -11.5389   13.5718 O   0  0  0  0  0  0  0  0  0  0  0  0
   -7.6534   -9.4281   14.3501 C   0  0  2  0  0  0  0  0  0  0  0  0
   -7.1956   -8.7154   15.5769 O   0  0  0  0  0  0  0  0  0  0  0  0
   -8.6427   -8.5169   13.6313 C   0  0  0  0  0  0  0  0  0  0  0  0
   -9.2013   -9.1561   12.3980 N   0  0  0  0  0  0  0  0  0  0  0  0
   -0.7839   -9.2071   16.8106 C   0  0  2  0  0  0  0  0  0  0  0  0
    0.4874   -9.4024   17.4973 N   0  0  0  0  0  0  0  0  0  0  0  0
   -1.8989   -8.7476   17.8409 C   0  0  0  0  0  0  0  0  0  0  0  0
   -3.2763   -8.5279   17.0999 C   0  0  2  0  0  0  0  0  0  0  0  0
   -4.3102   -8.0866   18.0747 N   0  0  0  0  0  0  0  0  0  0  0  0
   -3.7036   -9.8650   16.3736 C   0  0  2  0  0  0  0  0  0  0  0  0
   -2.5685  -10.2924   15.3608 C   0  0  2  0  0  0  0  0  0  0  0  0
   -2.9546  -11.5066   14.7090 O   0  0  0  0  0  0  0  0  0  0  0  0
   -1.2075  -10.5213   16.1226 C   0  0  1  0  0  0  0  0  0  0  0  0
   -0.1610  -10.9028   15.1858 O   0  0  0  0  0  0  0  0  0  0  0  0
    1.0742  -11.4587   15.5645 C   0  0  2  0  0  0  0  0  0  0  0  0
    1.9181  -11.6595   14.2604 C   0  0  2  0  0  0  0  0  0  0  0  0
    2.1076  -10.4307   13.6354 O   0  0  0  0  0  0  0  0  0  0  0  0
    1.2251  -12.6861   13.2865 C   0  0  1  0  0  0  0  0  0  0  0  0
    2.0285  -12.8888   12.0359 N   0  0  0  0  0  0  0  0  0  0  0  0
    1.0355  -14.0521   14.0582 C   0  0  2  0  0  0  0  0  0  0  0  0
    0.4156  -15.0294   13.2200 O   0  0  0  0  0  0  0  0  0  0  0  0
    0.1853  -13.7841   15.3458 C   0  0  2  0  0  0  0  0  0  0  0  0
    0.8451  -12.7571   16.2231 O   0  0  0  0  0  0  0  0  0  0  0  0
   -0.0123  -15.0348   16.1522 C   0  0  0  0  0  0  0  0  0  0  0  0
    1.2364  -15.5286   16.6636 O   0  0  0  0  0  0  0  0  0  0  0  0
   -5.7424  -11.5982   17.5020 O   0  0  0  0  0  0  0  0  0  0  0  0
   -7.7047  -12.8839   15.8486 O   0  0  0  0  0  0  0  0  0  0  0  0
    5.0864  -10.6546   18.5436 N   0  0  0  0  0  0  0  0  0  0  0  0
    1.1588   -8.4338   18.2301 C   0  0  0  0  0  0  0  0  0  0  0  0
    0.7547   -7.2856   18.3777 O   0  0  0  0  0  0  0  0  0  0  0  0
    2.4848   -8.9590   18.8271 C   0  0  1  0  0  0  0  0  0  0  0  0
    3.6292   -8.7836   17.8084 C   0  0  0  0  0  0  0  0  0  0  0  0
    5.0199   -9.2176   18.2857 C   0  0  0  0  0  0  0  0  0  0  0  0
    2.7689   -8.2441   20.0508 O   0  0  0  0  0  0  0  0  0  0  0  0
  1  2  1  6  0  0  0
  1  3  1  0  0  0  0
  1  8  1  0  0  0  0
  3  4  1  0  0  0  0
  3 32  1  6  0  0  0
  4  5  1  0  0  0  0
  4 33  1  1  0  0  0
  5  6  1  6  0  0  0
  5  7  1  0  0  0  0
  7  8  1  0  0  0  0
  7  9  1  1  0  0  0
  9 10  1  0  0  0  0
 11 12  1  1  0  0  0
 11 13  1  0  0  0  0
 11 19  1  0  0  0  0
 12 35  1  0  0  0  0
 13 14  1  0  0  0  0
 14 15  1  1  0  0  0
 14 16  1  0  0  0  0
 16  2  1  6  0  0  0
 16 17  1  0  0  0  0
 17 18  1  1  0  0  0
 17 19  1  0  0  0  0
 19 20  1  6  0  0  0
 21 20  1  6  0  0  0
 21 22  1  0  0  0  0
 21 29  1  0  0  0  0
 22 23  1  6  0  0  0
 22 24  1  0  0  0  0
 24 25  1  6  0  0  0
 24 26  1  0  0  0  0
 26 27  1  6  0  0  0
 26 28  1  0  0  0  0
 28 29  1  0  0  0  0
 28 30  1  1  0  0  0
 30 31  1  0  0  0  0
 34 39  1  0  0  0  0
 35 36  2  0  0  0  0
 37 35  1  6  0  0  0
 37 38  1  0  0  0  0
 37 40  1  0  0  0  0
 38 39  1  0  0  0  0
M  END
>  <CHROM.1>
-82.39169478,-56.77579480,-58.12447846,-70.81215096,75.22854757,-177.61292071
64.50551940,87.27730170,177.88991524,64.62787058,-1.90311696,-10.73425858
15.93463608,3.08572814,0.18053166,-2.50398182

>  <Name>
2g5q_lig

>  <RI>
0

>  <Rbt.Current_Directory>
/home/itssahil/PROJECTS/Mol_Feturizer/New_Systems/rnas/2g5q

>  <Rbt.Executable>
rbdock ($Id: //depot/dev/client3/rdock/2013.1/src/exe/rbdock.cxx#4 $)

>  <Rbt.Library>
libRbt.so (2013.1, Build901 2013/11/27)

>  <Rbt.Parameter_File>
/export/apps/rDock/src/rDock_2013.1_src/data/scripts/dock_solv.prm

>  <Rbt.Receptor>
prm/pocket_docking_5.prm

>  <SCORE>
-17.1143

>  <SCORE.INTER>
-10.9021

>  <SCORE.INTER.CONST>
1

>  <SCORE.INTER.POLAR>
-1.37991

>  <SCORE.INTER.ROT>
10

>  <SCORE.INTER.SOLV>
14.7402

>  <SCORE.INTER.VDW>
-17.8484

>  <SCORE.INTER.norm>
-0.272553

>  <SCORE.INTRA>
-6.2122

>  <SCORE.INTRA.DIHEDRAL>
-16.9422

>  <SCORE.INTRA.DIHEDRAL.0>
22.5778

>  <SCORE.INTRA.POLAR>
0

>  <SCORE.INTRA.POLAR.0>
0

>  <SCORE.INTRA.REPUL>
0

>  <SCORE.INTRA.REPUL.0>
0

>  <SCORE.INTRA.SOLV>
2.52826

>  <SCORE.INTRA.SOLV.lig_0>
-102.332

>  <SCORE.INTRA.VDW>
0.994781

>  <SCORE.INTRA.VDW.0>
-5.08747

>  <SCORE.INTRA.norm>
-0.155305

>  <SCORE.RESTR>
0

>  <SCORE.RESTR.CAVITY>
0

>  <SCORE.RESTR.norm>
0

>  <SCORE.SYSTEM>
0

>  <SCORE.SYSTEM.CONST>
0

>  <SCORE.SYSTEM.DIHEDRAL>
0

>  <SCORE.SYSTEM.SOLV>
0

>  <SCORE.SYSTEM.norm>
0

>  <SCORE.heavy>
40

>  <SCORE.norm>
-0.427858

>  <RMSD>
8.924

$$$$
2g5q_lig
 OpenBabel11021811433D
libRbt.so/2013.1/901 2013/11/27
 40 42  0  0  0  0  0  0  0  0999 V2000
    7.3396   -5.7721   14.2447 C   0  0  2  0  0  0  0  0  0  0  0  0
    7.0023   -5.6924   12.8775 O   0  0  0  0  0  0  0  0  0  0  0  0
    8.8779   -5.5817   14.3943 C   0  0  1  0  0  0  0  0  0  0  0  0
    9.6746   -6.7650   13.7629 C   0  0  2  0  0  0  0  0  0  0  0  0
    9.2372   -8.0680   14.4812 C   0  0  2  0  0  0  0  0  0  0  0  0
    9.9679   -9.1815   13.9420 O   0  0  0  0  0  0  0  0  0  0  0  0
    7.6797   -8.2519   14.2701 C   0  0  2  0  0  0  0  0  0  0  0  0
    6.9468   -7.0807   14.8305 O   0  0  0  0  0  0  0  0  0  0  0  0
    7.1356   -9.5033   14.9510 C   0  0  0  0  0  0  0  0  0  0  0  0
    7.0983   -9.3609   16.4410 N   0  0  0  0  0  0  0  0  0  0  0  0
    5.1481   -9.5462   11.9904 C   0  0  2  0  0  0  0  0  0  0  0  0
    4.3043  -10.5630   11.3740 N   0  0  0  0  0  0  0  0  0  0  0  0
    4.2528   -8.3976   12.6189 C   0  0  0  0  0  0  0  0  0  0  0  0
    5.1628   -7.2974   13.2941 C   0  0  2  0  0  0  0  0  0  0  0  0
    4.3112   -6.2322   13.8892 N   0  0  0  0  0  0  0  0  0  0  0  0
    6.1589   -6.7047   12.2196 C   0  0  2  0  0  0  0  0  0  0  0  0
    7.0286   -7.8769   11.6141 C   0  0  2  0  0  0  0  0  0  0  0  0
    7.9252   -7.3388   10.6370 O   0  0  0  0  0  0  0  0  0  0  0  0
    6.1025   -8.9550   10.9323 C   0  0  1  0  0  0  0  0  0  0  0  0
    6.9052  -10.0394   10.3864 O   0  0  0  0  0  0  0  0  0  0  0  0
    8.1811   -9.8700    9.8194 C   0  0  2  0  0  0  0  0  0  0  0  0
    8.0310  -10.0318    8.2687 C   0  0  2  0  0  0  0  0  0  0  0  0
    7.1503   -9.0695    7.7840 O   0  0  0  0  0  0  0  0  0  0  0  0
    7.5436  -11.4821    7.8924 C   0  0  1  0  0  0  0  0  0  0  0  0
    7.4011  -11.6486    6.4084 N   0  0  0  0  0  0  0  0  0  0  0  0
    8.5815  -12.5214    8.4757 C   0  0  2  0  0  0  0  0  0  0  0  0
    8.1953  -13.8603    8.1587 O   0  0  0  0  0  0  0  0  0  0  0  0
    8.6837  -12.3094   10.0240 C   0  0  2  0  0  0  0  0  0  0  0  0
    9.0927  -10.8998   10.3490 O   0  0  0  0  0  0  0  0  0  0  0  0
    9.6785  -13.2440   10.6490 C   0  0  0  0  0  0  0  0  0  0  0  0
   10.9931  -13.0478   10.1030 O   0  0  0  0  0  0  0  0  0  0  0  0
    9.2478   -4.3037   13.7715 O   0  0  0  0  0  0  0  0  0  0  0  0
   11.0245   -6.5519   13.9350 O   0  0  0  0  0  0  0  0  0  0  0  0
    0.3349  -11.7188   12.5351 N   0  0  0  0  0  0  0  0  0  0  0  0
    3.6756  -11.5994   12.0499 C   0  0  0  0  0  0  0  0  0  0  0  0
    3.7676  -11.7824   13.2588 O   0  0  0  0  0  0  0  0  0  0  0  0
    2.8584  -12.5102   11.1049 C   0  0  1  0  0  0  0  0  0  0  0  0
    1.9816  -13.4752   11.9285 C   0  0  0  0  0  0  0  0  0  0  0  0
    1.1395  -12.8312   13.0360 C   0  0  0  0  0  0  0  0  0  0  0  0
    2.0459  -11.6860   10.2390 O   0  0  0  0  0  0  0  0  0  0  0  0
  1  2  1  6  0  0  0
  1  3  1  0  0  0  0
  1  8  1  0  0  0  0
  3  4  1  0  0  0  0
  3 32  1  6  0  0  0
  4  5  1  0  0  0  0
  4 33  1  1  0  0  0
  5  6  1  6  0  0  0
  5  7  1  0  0  0  0
  7  8  1  0  0  0  0
  7  9  1  1  0  0  0
  9 10  1  0  0  0  0
 11 12  1  6  0  0  0
 11 13  1  0  0  0  0
 11 19  1  0  0  0  0
 12 35  1  0  0  0  0
 13 14  1  0  0  0  0
 14 15  1  6  0  0  0
 14 16  1  0  0  0  0
 16  2  1  1  0  0  0
 16 17  1  0  0  0  0
 17 18  1  6  0  0  0
 17 19  1  0  0  0  0
 19 20  1  1  0  0  0
 21 20  1  1  0  0  0
 21 22  1  0  0  0  0
 21 29  1  0  0  0  0
 22 23  1  1  0  0  0
 22 24  1  0  0  0  0
 24 25  1  6  0  0  0
 24 26  1  0  0  0  0
 26 27  1  1  0  0  0
 26 28  1  0  0  0  0
 28 29  1  0  0  0  0
 28 30  1  6  0  0  0
 30 31  1  0  0  0  0
 34 39  1  0  0  0  0
 35 36  2  0  0  0  0
 37 35  1  1  0  0  0
 37 38  1  0  0  0  0
 37 40  1  0  0  0  0
 38 39  1  0  0  0  0
M  END
>  <CHROM.1>
130.54874756,71.98041990,-81.94030240,29.94628692,-154.31776354,-106.71893135
60.05845240,-169.60893103,49.63288442,52.39657001,6.73736975,-9.56262921
11.81501749,1.08879033,0.31286697,0.75071449

>  <Name>
2g5q_lig

>  <RI>
0

>  <Rbt.Current_Directory>
/home/itssahil/PROJECTS/Mol_Feturizer/New_Systems/rnas/2g5q

>  <Rbt.Executable>
rbdock ($Id: //depot/dev/client3/rdock/2013.1/src/exe/rbdock.cxx#4 $)

>  <Rbt.Library>
libRbt.so (2013.1, Build901 2013/11/27)

>  <Rbt.Parameter_File>
/export/apps/rDock/src/rDock_2013.1_src/data/scripts/dock_solv.prm

>  <Rbt.Receptor>
prm/blind_docking_20.prm

>  <SCORE>
37.3143

>  <SCORE.INTER>
5.26536

>  <SCORE.INTER.CONST>
1

>  <SCORE.INTER.POLAR>
-0.716689

>  <SCORE.INTER.ROT>
10

>  <SCORE.INTER.SOLV>
26.8994

>  <SCORE.INTER.VDW>
-13.3339

>  <SCORE.INTER.norm>
0.131634

>  <SCORE.INTRA>
12.6481

>  <SCORE.INTRA.DIHEDRAL>
-0.762083

>  <SCORE.INTRA.DIHEDRAL.0>
22.5778

>  <SCORE.INTRA.POLAR>
0

>  <SCORE.INTRA.POLAR.0>
0

>  <SCORE.INTRA.REPUL>
0.0240709

>  <SCORE.INTRA.REPUL.0>
0

>  <SCORE.INTRA.SOLV>
6.62814

>  <SCORE.INTRA.SOLV.lig_0>
-102.332

>  <SCORE.INTRA.VDW>
9.59472

>  <SCORE.INTRA.VDW.0>
-5.08747

>  <SCORE.INTRA.norm>
0.316203

>  <SCORE.RESTR>
19.4008

>  <SCORE.RESTR.CAVITY>
19.4008

>  <SCORE.RESTR.norm>
0.485021

>  <SCORE.SYSTEM>
0

>  <SCORE.SYSTEM.CONST>
0

>  <SCORE.SYSTEM.DIHEDRAL>
0

>  <SCORE.SYSTEM.SOLV>
0

>  <SCORE.SYSTEM.norm>
0

>  <SCORE.heavy>
40

>  <SCORE.norm>
0.932858

>  <RMSD>
8.927

$$$$
2g5q_lig
 OpenBabel11021811433D
libRbt.so/2013.1/901 2013/11/27
 40 42  0  0  0  0  0  0  0  0999 V2000
   -5.8852   -7.7462   15.6981 C   0  0  2  0  0  0  0  0  0  0  0  0
   -5.7200   -7.7426   17.0988 O   0  0  0  0  0  0  0  0  0  0  0  0
   -7.1271   -6.8790   15.3368 C   0  0  1  0  0  0  0  0  0  0  0  0
   -8.4533   -7.5189   15.8520 C   0  0  2  0  0  0  0  0  0  0  0  0
   -8.5876   -8.9202   15.2016 C   0  0  2  0  0  0  0  0  0  0  0  0
   -9.8121   -9.5347   15.6345 O   0  0  0  0  0  0  0  0  0  0  0  0
   -7.3334   -9.7866   15.6264 C   0  0  2  0  0  0  0  0  0  0  0  0
   -6.0776   -9.1235   15.1726 O   0  0  0  0  0  0  0  0  0  0  0  0
   -7.3549  -11.1890   15.0278 C   0  0  0  0  0  0  0  0  0  0  0  0
   -8.5468  -11.9745   15.4796 N   0  0  0  0  0  0  0  0  0  0  0  0
   -2.2976   -9.1936   19.3921 C   0  0  2  0  0  0  0  0  0  0  0  0
   -1.3868  -10.0884   20.0962 N   0  0  0  0  0  0  0  0  0  0  0  0
   -3.7353   -9.2370   20.0607 C   0  0  0  0  0  0  0  0  0  0  0  0
   -4.7234   -8.2636   19.3054 C   0  0  2  0  0  0  0  0  0  0  0  0
   -6.0645   -8.3051   19.9488 N   0  0  0  0  0  0  0  0  0  0  0  0
   -4.8036   -8.6723   17.7808 C   0  0  2  0  0  0  0  0  0  0  0  0
   -3.3550   -8.6215   17.1517 C   0  0  2  0  0  0  0  0  0  0  0  0
   -3.4291   -8.9981   15.7730 O   0  0  0  0  0  0  0  0  0  0  0  0
   -2.3898   -9.6109   17.9098 C   0  0  1  0  0  0  0  0  0  0  0  0
   -1.0534   -9.5530   17.3363 O   0  0  0  0  0  0  0  0  0  0  0  0
   -0.4782   -8.3923   16.7885 C   0  0  2  0  0  0  0  0  0  0  0  0
    0.7989   -8.8310   15.9948 C   0  0  2  0  0  0  0  0  0  0  0  0
    0.4372   -9.7187   14.9860 O   0  0  0  0  0  0  0  0  0  0  0  0
    1.8717   -9.4739   16.9531 C   0  0  1  0  0  0  0  0  0  0  0  0
    3.1010   -9.8933   16.2026 N   0  0  0  0  0  0  0  0  0  0  0  0
    2.2317   -8.4192   18.0736 C   0  0  2  0  0  0  0  0  0  0  0  0
    3.2101   -8.9448   18.9729 O   0  0  0  0  0  0  0  0  0  0  0  0
    0.9176   -8.0247   18.8286 C   0  0  2  0  0  0  0  0  0  0  0  0
   -0.1053   -7.4707   17.8764 O   0  0  0  0  0  0  0  0  0  0  0  0
    1.1745   -6.9979   19.8931 C   0  0  0  0  0  0  0  0  0  0  0  0
   -0.0481   -6.5834   20.5242 O   0  0  0  0  0  0  0  0  0  0  0  0
   -6.9335   -5.5369   15.9020 O   0  0  0  0  0  0  0  0  0  0  0  0
   -9.5167   -6.7196   15.4945 O   0  0  0  0  0  0  0  0  0  0  0  0
    0.9465  -12.7498   19.4951 N   0  0  0  0  0  0  0  0  0  0  0  0
   -1.0806  -10.0180   21.4480 C   0  0  0  0  0  0  0  0  0  0  0  0
   -1.5436   -9.1773   22.2110 O   0  0  0  0  0  0  0  0  0  0  0  0
   -0.0750  -11.1089   21.8829 C   0  0  1  0  0  0  0  0  0  0  0  0
    1.2641  -10.9190   21.1420 C   0  0  0  0  0  0  0  0  0  0  0  0
    1.2755  -11.3362   19.6668 C   0  0  0  0  0  0  0  0  0  0  0  0
    0.1122  -11.0364   23.3143 O   0  0  0  0  0  0  0  0  0  0  0  0
  1  2  1  1  0  0  0
  1  3  1  0  0  0  0
  1  8  1  0  0  0  0
  3  4  1  0  0  0  0
  3 32  1  1  0  0  0
  4  5  1  0  0  0  0
  4 33  1  6  0  0  0
  5  6  1  1  0  0  0
  5  7  1  0  0  0  0
  7  8  1  0  0  0  0
  7  9  1  6  0  0  0
  9 10  1  0  0  0  0
 11 12  1  1  0  0  0
 11 13  1  0  0  0  0
 11 19  1  0  0  0  0
 12 35  1  0  0  0  0
 13 14  1  0  0  0  0
 14 15  1  1  0  0  0
 14 16  1  0  0  0  0
 16  2  1  6  0  0  0
 16 17  1  0  0  0  0
 17 18  1  6  0  0  0
 17 19  1  0  0  0  0
 19 20  1  6  0  0  0
 21 20  1  1  0  0  0
 21 22  1  0  0  0  0
 21 29  1  0  0  0  0
 22 23  1  6  0  0  0
 22 24  1  0  0  0  0
 24 25  1  6  0  0  0
 24 26  1  0  0  0  0
 26 27  1  1  0  0  0
 26 28  1  0  0  0  0
 28 29  1  0  0  0  0
 28 30  1  1  0  0  0
 30 31  1  0  0  0  0
 34 39  1  0  0  0  0
 35 36  2  0  0  0  0
 37 35  1  6  0  0  0
 37 38  1  0  0  0  0
 37 40  1  0  0  0  0
 38 39  1  0  0  0  0
M  END
>  <CHROM.1>
167.80053258,-61.49630192,-57.76409052,172.51419264,-86.41071863,-166.94098067
176.49073002,62.50240178,-74.71294292,-59.70098599,-2.77653561,-9.03736286
17.90747249,-2.73110758,-0.02676947,1.79240816

>  <Name>
2g5q_lig

>  <RI>
2.47104e+07

>  <Rbt.Current_Directory>
/home/itssahil/PROJECTS/Mol_Feturizer/New_Systems/rnas/2g5q

>  <Rbt.Executable>
rbdock ($Id: //depot/dev/client3/rdock/2013.1/src/exe/rbdock.cxx#4 $)

>  <Rbt.Library>
libRbt.so (2013.1, Build901 2013/11/27)

>  <Rbt.Parameter_File>
/export/apps/rDock/src/rDock_2013.1_src/data/scripts/dock_solv.prm

>  <Rbt.Receptor>
prm/pocket_docking_7.prm

>  <SCORE>
-16.9128

>  <SCORE.INTER>
-9.82836

>  <SCORE.INTER.CONST>
1

>  <SCORE.INTER.POLAR>
-1.37834

>  <SCORE.INTER.ROT>
10

>  <SCORE.INTER.SOLV>
11.7771

>  <SCORE.INTER.VDW>
-16.1501

>  <SCORE.INTER.norm>
-0.245709

>  <SCORE.INTRA>
-7.08439

>  <SCORE.INTRA.DIHEDRAL>
-16.2588

>  <SCORE.INTRA.DIHEDRAL.0>
22.5778

>  <SCORE.INTRA.POLAR>
0

>  <SCORE.INTRA.POLAR.0>
0

>  <SCORE.INTRA.REPUL>
0

>  <SCORE.INTRA.REPUL.0>
0

>  <SCORE.INTRA.SOLV>
3.41472

>  <SCORE.INTRA.SOLV.lig_0>
-102.332

>  <SCORE.INTRA.VDW>
-0.662349

>  <SCORE.INTRA.VDW.0>
-5.08747

>  <SCORE.INTRA.norm>
-0.17711

>  <SCORE.RESTR>
0

>  <SCORE.RESTR.CAVITY>
0

>  <SCORE.RESTR.norm>
0

>  <SCORE.SYSTEM>
0

>  <SCORE.SYSTEM.CONST>
0

>  <SCORE.SYSTEM.DIHEDRAL>
0

>  <SCORE.SYSTEM.SOLV>
0

>  <SCORE.SYSTEM.norm>
0

>  <SCORE.heavy>
40

>  <SCORE.norm>
-0.422819

>  <RMSD>
8.929

$$$$
2g5q_lig
 OpenBabel11021811433D
libRbt.so/2013.1/901 2013/11/27
 40 42  0  0  0  0  0  0  0  0999 V2000
   -5.8355  -10.8068   15.9616 C   0  0  2  0  0  0  0  0  0  0  0  0
   -5.5951   -9.5212   16.4898 O   0  0  0  0  0  0  0  0  0  0  0  0
   -7.0640  -10.7358   15.0073 C   0  0  1  0  0  0  0  0  0  0  0  0
   -8.3821  -10.4170   15.7785 C   0  0  2  0  0  0  0  0  0  0  0  0
   -8.6001  -11.5374   16.8282 C   0  0  2  0  0  0  0  0  0  0  0  0
   -9.8202  -11.2915   17.5460 O   0  0  0  0  0  0  0  0  0  0  0  0
   -7.3559  -11.5502   17.8059 C   0  0  2  0  0  0  0  0  0  0  0  0
   -6.1039  -11.7990   17.0356 O   0  0  0  0  0  0  0  0  0  0  0  0
   -7.4585  -12.6302   18.8776 C   0  0  0  0  0  0  0  0  0  0  0  0
   -7.5372  -14.0032   18.2856 N   0  0  0  0  0  0  0  0  0  0  0  0
   -1.8643   -7.5783   17.6660 C   0  0  2  0  0  0  0  0  0  0  0  0
   -0.6686   -7.2296   18.4240 N   0  0  0  0  0  0  0  0  0  0  0  0
   -3.1621   -7.3277   18.5427 C   0  0  0  0  0  0  0  0  0  0  0  0
   -4.4604   -7.6975   17.7227 C   0  0  2  0  0  0  0  0  0  0  0  0
   -5.6704   -7.4476   18.5518 N   0  0  0  0  0  0  0  0  0  0  0  0
   -4.3806   -9.2071   17.2613 C   0  0  2  0  0  0  0  0  0  0  0  0
   -3.0753   -9.4183   16.3961 C   0  0  2  0  0  0  0  0  0  0  0  0
   -3.0019  -10.7870   15.9848 O   0  0  0  0  0  0  0  0  0  0  0  0
   -1.7919   -9.0586   17.2377 C   0  0  1  0  0  0  0  0  0  0  0  0
   -0.5921   -9.2422   16.4345 O   0  0  0  0  0  0  0  0  0  0  0  0
    0.4142  -10.1822   16.7207 C   0  0  2  0  0  0  0  0  0  0  0  0
    1.6413   -9.8496   15.8059 C   0  0  2  0  0  0  0  0  0  0  0  0
    2.0874   -8.5598   16.0774 O   0  0  0  0  0  0  0  0  0  0  0  0
    1.2749  -10.0100   14.2818 C   0  0  1  0  0  0  0  0  0  0  0  0
    2.4455   -9.6979   13.3972 N   0  0  0  0  0  0  0  0  0  0  0  0
    0.7724  -11.4895   14.0452 C   0  0  2  0  0  0  0  0  0  0  0  0
    0.4308  -11.6986   12.6734 O   0  0  0  0  0  0  0  0  0  0  0  0
   -0.4519  -11.7571   14.9844 C   0  0  2  0  0  0  0  0  0  0  0  0
   -0.0838  -11.5375   16.4252 O   0  0  0  0  0  0  0  0  0  0  0  0
   -0.9684  -13.1592   14.8390 C   0  0  0  0  0  0  0  0  0  0  0  0
   -2.0886  -13.3951   15.7077 O   0  0  0  0  0  0  0  0  0  0  0  0
   -6.7935   -9.7201   13.9809 O   0  0  0  0  0  0  0  0  0  0  0  0
   -9.4346  -10.3794   14.8906 O   0  0  0  0  0  0  0  0  0  0  0  0
    4.1865   -7.4937   20.4471 N   0  0  0  0  0  0  0  0  0  0  0  0
   -0.1796   -7.9322   19.5164 C   0  0  0  0  0  0  0  0  0  0  0  0
   -0.7116   -8.9360   19.9774 O   0  0  0  0  0  0  0  0  0  0  0  0
    1.1038   -7.2975   20.0999 C   0  0  1  0  0  0  0  0  0  0  0  0
    2.1865   -7.1944   19.0066 C   0  0  0  0  0  0  0  0  0  0  0  0
    3.5398   -6.6334   19.4584 C   0  0  0  0  0  0  0  0  0  0  0  0
    0.7853   -5.9933   20.6355 O   0  0  0  0  0  0  0  0  0  0  0  0
  1  2  1  1  0  0  0
  1  3  1  0  0  0  0
  1  8  1  0  0  0  0
  3  4  1  0  0  0  0
  3 32  1  6  0  0  0
  4  5  1  0  0  0  0
  4 33  1  6  0  0  0
  5  6  1  1  0  0  0
  5  7  1  0  0  0  0
  7  8  1  0  0  0  0
  7  9  1  1  0  0  0
  9 10  1  0  0  0  0
 11 12  1  1  0  0  0
 11 13  1  0  0  0  0
 11 19  1  0  0  0  0
 12 35  1  0  0  0  0
 13 14  1  0  0  0  0
 14 15  1  1  0  0  0
 14 16  1  0  0  0  0
 16  2  1  6  0  0  0
 16 17  1  0  0  0  0
 17 18  1  1  0  0  0
 17 19  1  0  0  0  0
 19 20  1  6  0  0  0
 21 20  1  6  0  0  0
 21 22  1  0  0  0  0
 21 29  1  0  0  0  0
 22 23  1  6  0  0  0
 22 24  1  0  0  0  0
 24 25  1  6  0  0  0
 24 26  1  0  0  0  0
 26 27  1  6  0  0  0
 26 28  1  0  0  0  0
 28 29  1  0  0  0  0
 28 30  1  1  0  0  0
 30 31  1  0  0  0  0
 34 39  1  0  0  0  0
 35 36  2  0  0  0  0
 37 35  1  6  0  0  0
 37 38  1  0  0  0  0
 37 40  1  0  0  0  0
 38 39  1  0  0  0  0
M  END
>  <CHROM.1>
-170.33570997,60.30613811,69.65664323,-178.63139061,124.28339409,-168.34595545
179.82629823,-56.81420503,-177.59838829,63.59004723,-2.57921300,-9.82751391
16.90228708,-2.86968739,0.14748322,0.88371247

>  <Name>
2g5q_lig

>  <RI>
2.90231e+07

>  <Rbt.Current_Directory>
/home/itssahil/PROJECTS/Mol_Feturizer/New_Systems/rnas/2g5q

>  <Rbt.Executable>
rbdock ($Id: //depot/dev/client3/rdock/2013.1/src/exe/rbdock.cxx#4 $)

>  <Rbt.Library>
libRbt.so (2013.1, Build901 2013/11/27)

>  <Rbt.Parameter_File>
/export/apps/rDock/src/rDock_2013.1_src/data/scripts/dock_solv.prm

>  <Rbt.Receptor>
prm/pocket_docking_6.prm

>  <SCORE>
-14.7543

>  <SCORE.INTER>
-8.70918

>  <SCORE.INTER.CONST>
1

>  <SCORE.INTER.POLAR>
-0.327786

>  <SCORE.INTER.ROT>
10

>  <SCORE.INTER.SOLV>
15.6291

>  <SCORE.INTER.VDW>
-20.1899

>  <SCORE.INTER.norm>
-0.217729

>  <SCORE.INTRA>
-6.04511

>  <SCORE.INTRA.DIHEDRAL>
-13.3828

>  <SCORE.INTRA.DIHEDRAL.0>
22.5778

>  <SCORE.INTRA.POLAR>
0

>  <SCORE.INTRA.POLAR.0>
0

>  <SCORE.INTRA.REPUL>
0

>  <SCORE.INTRA.REPUL.0>
0

>  <SCORE.INTRA.SOLV>
2.18835

>  <SCORE.INTRA.SOLV.lig_0>
-102.332

>  <SCORE.INTRA.VDW>
-0.447889

>  <SCORE.INTRA.VDW.0>
-5.08747

>  <SCORE.INTRA.norm>
-0.151128

>  <SCORE.RESTR>
0

>  <SCORE.RESTR.CAVITY>
0

>  <SCORE.RESTR.norm>
0

>  <SCORE.SYSTEM>
0

>  <SCORE.SYSTEM.CONST>
0

>  <SCORE.SYSTEM.DIHEDRAL>
0

>  <SCORE.SYSTEM.SOLV>
0

>  <SCORE.SYSTEM.norm>
0

>  <SCORE.heavy>
40

>  <SCORE.norm>
-0.368857

>  <RMSD>
8.935

$$$$
2g5q_lig
 OpenBabel11021811433D
libRbt.so/2013.1/901 2013/11/27
 40 42  0  0  0  0  0  0  0  0999 V2000
   -0.0316  -13.9804   17.5869 C   0  0  2  0  0  0  0  0  0  0  0  0
   -0.2535  -13.2025   16.4314 O   0  0  0  0  0  0  0  0  0  0  0  0
   -0.9199  -15.2571   17.5108 C   0  0  1  0  0  0  0  0  0  0  0  0
   -2.4393  -14.9149   17.6000 C   0  0  2  0  0  0  0  0  0  0  0  0
   -2.6834  -14.1883   18.9481 C   0  0  2  0  0  0  0  0  0  0  0  0
   -4.0797  -13.8758   19.0787 O   0  0  0  0  0  0  0  0  0  0  0  0
   -1.8006  -12.8752   18.9708 C   0  0  2  0  0  0  0  0  0  0  0  0
   -0.3590  -13.2267   18.8258 O   0  0  0  0  0  0  0  0  0  0  0  0
   -1.9528  -12.0841   20.2657 C   0  0  0  0  0  0  0  0  0  0  0  0
   -1.5371  -12.8812   21.4631 N   0  0  0  0  0  0  0  0  0  0  0  0
    2.9911  -10.2862   16.6438 C   0  0  2  0  0  0  0  0  0  0  0  0
    3.8928   -9.1961   16.2912 N   0  0  0  0  0  0  0  0  0  0  0  0
    3.0749  -11.4403   15.5589 C   0  0  0  0  0  0  0  0  0  0  0  0
    2.1047  -12.6266   15.9409 C   0  0  2  0  0  0  0  0  0  0  0  0
    2.2011  -13.7067   14.9220 N   0  0  0  0  0  0  0  0  0  0  0  0
    0.6265  -12.0806   16.0628 C   0  0  2  0  0  0  0  0  0  0  0  0
    0.5840  -10.9321   17.1474 C   0  0  2  0  0  0  0  0  0  0  0  0
   -0.7539  -10.4350   17.2515 O   0  0  0  0  0  0  0  0  0  0  0  0
    1.5467   -9.7525   16.7392 C   0  0  1  0  0  0  0  0  0  0  0  0
    1.5149   -8.7018   17.7458 O   0  0  0  0  0  0  0  0  0  0  0  0
    1.7111   -8.9193   19.1215 C   0  0  2  0  0  0  0  0  0  0  0  0
    1.3445   -7.5898   19.8639 C   0  0  2  0  0  0  0  0  0  0  0  0
    0.0163   -7.2644   19.6062 O   0  0  0  0  0  0  0  0  0  0  0  0
    2.3052   -6.4161   19.4369 C   0  0  1  0  0  0  0  0  0  0  0  0
    1.9649   -5.1389   20.1464 N   0  0  0  0  0  0  0  0  0  0  0  0
    3.7914   -6.8523   19.7502 C   0  0  2  0  0  0  0  0  0  0  0  0
    4.7123   -5.8208   19.3896 O   0  0  0  0  0  0  0  0  0  0  0  0
    4.0945   -8.1815   18.9796 C   0  0  2  0  0  0  0  0  0  0  0  0
    3.1234   -9.2620   19.3662 O   0  0  0  0  0  0  0  0  0  0  0  0
    5.4845   -8.6784   19.2528 C   0  0  0  0  0  0  0  0  0  0  0  0
    5.7158   -9.9514   18.6278 O   0  0  0  0  0  0  0  0  0  0  0  0
   -0.6095  -15.9618   16.2598 O   0  0  0  0  0  0  0  0  0  0  0  0
   -3.1750  -16.0780   17.5413 O   0  0  0  0  0  0  0  0  0  0  0  0
    7.3628   -6.1944   13.4913 N   0  0  0  0  0  0  0  0  0  0  0  0
    5.2279   -9.3425   15.9413 C   0  0  0  0  0  0  0  0  0  0  0  0
    5.8085  -10.4215   15.8965 O   0  0  0  0  0  0  0  0  0  0  0  0
    5.9082   -7.9894   15.6304 C   0  0  1  0  0  0  0  0  0  0  0  0
    7.2531   -8.2264   14.9138 C   0  0  0  0  0  0  0  0  0  0  0  0
    8.0377   -6.9655   14.5333 C   0  0  0  0  0  0  0  0  0  0  0  0
    5.0221   -7.1908   14.8141 O   0  0  0  0  0  0  0  0  0  0  0  0
  1  2  1  6  0  0  0
  1  3  1  0  0  0  0
  1  8  1  0  0  0  0
  3  4  1  0  0  0  0
  3 32  1  6  0  0  0
  4  5  1  0  0  0  0
  4 33  1  1  0  0  0
  5  6  1  6  0  0  0
  5  7  1  0  0  0  0
  7  8  1  0  0  0  0
  7  9  1  1  0  0  0
  9 10  1  0  0  0  0
 11 12  1  6  0  0  0
 11 13  1  0  0  0  0
 11 19  1  0  0  0  0
 12 35  1  0  0  0  0
 13 14  1  0  0  0  0
 14 15  1  6  0  0  0
 14 16  1  0  0  0  0
 16  2  1  1  0  0  0
 16 17  1  0  0  0  0
 17 18  1  6  0  0  0
 17 19  1  0  0  0  0
 19 20  1  1  0  0  0
 21 20  1  6  0  0  0
 21 22  1  0  0  0  0
 21 29  1  0  0  0  0
 22 23  1  6  0  0  0
 22 24  1  0  0  0  0
 24 25  1  1  0  0  0
 24 26  1  0  0  0  0
 26 27  1  6  0  0  0
 26 28  1  0  0  0  0
 28 29  1  0  0  0  0
 28 30  1  1  0  0  0
 30 31  1  0  0  0  0
 34 39  1  0  0  0  0
 35 36  2  0  0  0  0
 37 35  1  6  0  0  0
 37 38  1  0  0  0  0
 37 40  1  0  0  0  0
 38 39  1  0  0  0  0
M  END
>  <CHROM.1>
-167.15424398,60.53143570,-49.30905375,56.68118442,-67.60057211,-170.05064747
175.37288357,-165.69890878,179.58144042,-67.78427565,1.90057706,-10.46554004
17.59416232,-2.68064420,0.61731317,0.65193378

>  <Name>
2g5q_lig

>  <RI>
2.90231e+07

>  <Rbt.Current_Directory>
/home/itssahil/PROJECTS/Mol_Feturizer/New_Systems/rnas/2g5q

>  <Rbt.Executable>
rbdock ($Id: //depot/dev/client3/rdock/2013.1/src/exe/rbdock.cxx#4 $)

>  <Rbt.Library>
libRbt.so (2013.1, Build901 2013/11/27)

>  <Rbt.Parameter_File>
/export/apps/rDock/src/rDock_2013.1_src/data/scripts/dock_solv.prm

>  <Rbt.Receptor>
prm/pocket_docking_6.prm

>  <SCORE>
-9.01863

>  <SCORE.INTER>
-1.70844

>  <SCORE.INTER.CONST>
1

>  <SCORE.INTER.POLAR>
-0.361937

>  <SCORE.INTER.ROT>
10

>  <SCORE.INTER.SOLV>
12.5252

>  <SCORE.INTER.VDW>
-14.3742

>  <SCORE.INTER.norm>
-0.042711

>  <SCORE.INTRA>
-7.31019

>  <SCORE.INTRA.DIHEDRAL>
-19.5372

>  <SCORE.INTRA.DIHEDRAL.0>
22.5778

>  <SCORE.INTRA.POLAR>
0

>  <SCORE.INTRA.POLAR.0>
0

>  <SCORE.INTRA.REPUL>
0

>  <SCORE.INTRA.REPUL.0>
0

>  <SCORE.INTRA.SOLV>
4.8085

>  <SCORE.INTRA.SOLV.lig_0>
-102.332

>  <SCORE.INTRA.VDW>
0.0541847

>  <SCORE.INTRA.VDW.0>
-5.08747

>  <SCORE.INTRA.norm>
-0.182755

>  <SCORE.RESTR>
0

>  <SCORE.RESTR.CAVITY>
0

>  <SCORE.RESTR.norm>
0

>  <SCORE.SYSTEM>
0

>  <SCORE.SYSTEM.CONST>
0

>  <SCORE.SYSTEM.DIHEDRAL>
0

>  <SCORE.SYSTEM.SOLV>
0

>  <SCORE.SYSTEM.norm>
0

>  <SCORE.heavy>
40

>  <SCORE.norm>
-0.225466

>  <RMSD>
8.959

$$$$
2g5q_lig
 OpenBabel11021811433D
libRbt.so/2013.1/901 2013/11/27
 40 42  0  0  0  0  0  0  0  0999 V2000
   -2.2025   -7.6602   18.8693 C   0  0  2  0  0  0  0  0  0  0  0  0
   -1.5253   -8.5116   17.9715 O   0  0  0  0  0  0  0  0  0  0  0  0
   -2.5547   -8.4648   20.1552 C   0  0  1  0  0  0  0  0  0  0  0  0
   -3.6016   -9.5860   19.8714 C   0  0  2  0  0  0  0  0  0  0  0  0
   -4.8802   -8.9102   19.3114 C   0  0  2  0  0  0  0  0  0  0  0  0
   -5.8799   -9.9105   19.0582 O   0  0  0  0  0  0  0  0  0  0  0  0
   -4.4938   -8.1411   17.9835 C   0  0  2  0  0  0  0  0  0  0  0  0
   -3.4505   -7.1159   18.2725 O   0  0  0  0  0  0  0  0  0  0  0  0
   -5.6810   -7.4230   17.3507 C   0  0  0  0  0  0  0  0  0  0  0  0
   -6.7653   -8.3750   16.9510 N   0  0  0  0  0  0  0  0  0  0  0  0
    2.7551   -8.9966   17.2500 C   0  0  2  0  0  0  0  0  0  0  0  0
    4.1117   -8.7510   16.7756 N   0  0  0  0  0  0  0  0  0  0  0  0
    1.7580   -9.1171   16.0224 C   0  0  0  0  0  0  0  0  0  0  0  0
    0.2881   -9.3904   16.5317 C   0  0  2  0  0  0  0  0  0  0  0  0
   -0.6348   -9.5124   15.3709 N   0  0  0  0  0  0  0  0  0  0  0  0
   -0.1587   -8.2258   17.5024 C   0  0  2  0  0  0  0  0  0  0  0  0
    0.8588   -8.1340   18.7078 C   0  0  2  0  0  0  0  0  0  0  0  0
    0.4559   -7.0750   19.5818 O   0  0  0  0  0  0  0  0  0  0  0  0
    2.3155   -7.8458   18.1787 C   0  0  1  0  0  0  0  0  0  0  0  0
    3.2527   -7.7740   19.2900 O   0  0  0  0  0  0  0  0  0  0  0  0
    4.5672   -7.2848   19.1847 C   0  0  2  0  0  0  0  0  0  0  0  0
    5.3381   -7.7296   20.4736 C   0  0  2  0  0  0  0  0  0  0  0  0
    5.3401   -9.1186   20.5580 O   0  0  0  0  0  0  0  0  0  0  0  0
    4.7049   -7.0874   21.7656 C   0  0  1  0  0  0  0  0  0  0  0  0
    5.4395   -7.5039   23.0054 N   0  0  0  0  0  0  0  0  0  0  0  0
    4.7287   -5.5158   21.6014 C   0  0  2  0  0  0  0  0  0  0  0  0
    4.1714   -4.8747   22.7506 O   0  0  0  0  0  0  0  0  0  0  0  0
    3.9426   -5.1378   20.3008 C   0  0  2  0  0  0  0  0  0  0  0  0
    4.5363   -5.8140   19.0966 O   0  0  0  0  0  0  0  0  0  0  0  0
    3.9474   -3.6563   20.0587 C   0  0  0  0  0  0  0  0  0  0  0  0
    3.2630   -2.9538   21.1090 O   0  0  0  0  0  0  0  0  0  0  0  0
   -1.3130   -9.0276   20.7025 O   0  0  0  0  0  0  0  0  0  0  0  0
   -3.8854  -10.2546   21.0418 O   0  0  0  0  0  0  0  0  0  0  0  0
    8.0854  -10.3501   18.8315 N   0  0  0  0  0  0  0  0  0  0  0  0
    4.8522   -9.6172   15.9833 C   0  0  0  0  0  0  0  0  0  0  0  0
    4.4439  -10.7059   15.5944 O   0  0  0  0  0  0  0  0  0  0  0  0
    6.2588   -9.0635   15.6589 C   0  0  1  0  0  0  0  0  0  0  0  0
    7.1350   -9.0702   16.9280 C   0  0  0  0  0  0  0  0  0  0  0  0
    7.4246  -10.4493   17.5317 C   0  0  0  0  0  0  0  0  0  0  0  0
    6.8548   -9.8674   14.6159 O   0  0  0  0  0  0  0  0  0  0  0  0
  1  2  1  6  0  0  0
  1  3  1  0  0  0  0
  1  8  1  0  0  0  0
  3  4  1  0  0  0  0
  3 32  1  6  0  0  0
  4  5  1  0  0  0  0
  4 33  1  1  0  0  0
  5  6  1  6  0  0  0
  5  7  1  0  0  0  0
  7  8  1  0  0  0  0
  7  9  1  1  0  0  0
  9 10  1  0  0  0  0
 11 12  1  6  0  0  0
 11 13  1  0  0  0  0
 11 19  1  0  0  0  0
 12 35  1  0  0  0  0
 13 14  1  0  0  0  0
 14 15  1  6  0  0  0
 14 16  1  0  0  0  0
 16  2  1  1  0  0  0
 16 17  1  0  0  0  0
 17 18  1  1  0  0  0
 17 19  1  0  0  0  0
 19 20  1  1  0  0  0
 21 20  1  1  0  0  0
 21 22  1  0  0  0  0
 21 29  1  0  0  0  0
 22 23  1  1  0  0  0
 22 24  1  0  0  0  0
 24 25  1  1  0  0  0
 24 26  1  0  0  0  0
 26 27  1  1  0  0  0
 26 28  1  0  0  0  0
 28 29  1  0  0  0  0
 28 30  1  6  0  0  0
 30 31  1  0  0  0  0
 34 39  1  0  0  0  0
 35 36  2  0  0  0  0
 37 35  1  1  0  0  0
 37 38  1  0  0  0  0
 37 40  1  0  0  0  0
 38 39  1  0  0  0  0
M  END
>  <CHROM.1>
-120.07495835,-61.56417240,-62.53512521,179.24316812,73.15600974,-165.13536169
-63.62418278,70.15690408,63.14308055,-171.42353386,1.58150417,-8.09088495
18.72010699,3.09543125,-0.04091721,-2.23034242

>  <Name>
2g5q_lig

>  <RI>
0

>  <Rbt.Current_Directory>
/home/itssahil/PROJECTS/Mol_Feturizer/New_Systems/rnas/2g5q

>  <Rbt.Executable>
rbdock ($Id: //depot/dev/client3/rdock/2013.1/src/exe/rbdock.cxx#4 $)

>  <Rbt.Library>
libRbt.so (2013.1, Build901 2013/11/27)

>  <Rbt.Parameter_File>
/export/apps/rDock/src/rDock_2013.1_src/data/scripts/dock_solv.prm

>  <Rbt.Receptor>
prm/pocket_docking_5.prm

>  <SCORE>
-20.9908

>  <SCORE.INTER>
-16.4108

>  <SCORE.INTER.CONST>
1

>  <SCORE.INTER.POLAR>
-0.894427

>  <SCORE.INTER.ROT>
10

>  <SCORE.INTER.SOLV>
20.1608

>  <SCORE.INTER.VDW>
-24.946

>  <SCORE.INTER.norm>
-0.410269

>  <SCORE.INTRA>
-4.58001

>  <SCORE.INTRA.DIHEDRAL>
-12.2133

>  <SCORE.INTRA.DIHEDRAL.0>
22.5778

>  <SCORE.INTRA.POLAR>
0

>  <SCORE.INTRA.POLAR.0>
0

>  <SCORE.INTRA.REPUL>
0

>  <SCORE.INTRA.REPUL.0>
0

>  <SCORE.INTRA.SOLV>
1.48824

>  <SCORE.INTRA.SOLV.lig_0>
-102.332

>  <SCORE.INTRA.VDW>
0.782514

>  <SCORE.INTRA.VDW.0>
-5.08747

>  <SCORE.INTRA.norm>
-0.1145

>  <SCORE.RESTR>
0

>  <SCORE.RESTR.CAVITY>
0

>  <SCORE.RESTR.norm>
0

>  <SCORE.SYSTEM>
0

>  <SCORE.SYSTEM.CONST>
0

>  <SCORE.SYSTEM.DIHEDRAL>
0

>  <SCORE.SYSTEM.SOLV>
0

>  <SCORE.SYSTEM.norm>
0

>  <SCORE.heavy>
40

>  <SCORE.norm>
-0.52477

>  <RMSD>
8.968

$$$$
2g5q_lig
 OpenBabel11021811433D
libRbt.so/2013.1/901 2013/11/27
 40 42  0  0  0  0  0  0  0  0999 V2000
   -3.1223   -8.1586   16.9994 C   0  0  2  0  0  0  0  0  0  0  0  0
   -2.0134   -8.6448   17.7229 O   0  0  0  0  0  0  0  0  0  0  0  0
   -4.2045   -7.6707   18.0072 C   0  0  1  0  0  0  0  0  0  0  0  0
   -4.8076   -8.8509   18.8299 C   0  0  2  0  0  0  0  0  0  0  0  0
   -5.4398   -9.8525   17.8288 C   0  0  2  0  0  0  0  0  0  0  0  0
   -6.0283  -10.9461   18.5514 O   0  0  0  0  0  0  0  0  0  0  0  0
   -4.3039  -10.3604   16.8512 C   0  0  2  0  0  0  0  0  0  0  0  0
   -3.7054   -9.2065   16.1208 O   0  0  0  0  0  0  0  0  0  0  0  0
   -4.8200  -11.3465   15.8086 C   0  0  0  0  0  0  0  0  0  0  0  0
   -5.0828  -12.6985   16.3958 N   0  0  0  0  0  0  0  0  0  0  0  0
    2.0723   -9.9815   16.9501 C   0  0  2  0  0  0  0  0  0  0  0  0
    3.4065  -10.0793   16.3703 N   0  0  0  0  0  0  0  0  0  0  0  0
    0.9704  -10.2175   15.8339 C   0  0  0  0  0  0  0  0  0  0  0  0
   -0.4766  -10.1195   16.4592 C   0  0  2  0  0  0  0  0  0  0  0  0
   -1.5001  -10.3537   15.4049 N   0  0  0  0  0  0  0  0  0  0  0  0
   -0.6631   -8.7045   17.1381 C   0  0  2  0  0  0  0  0  0  0  0  0
    0.4529   -8.5045   18.2388 C   0  0  2  0  0  0  0  0  0  0  0  0
    0.2860   -7.2201   18.8476 O   0  0  0  0  0  0  0  0  0  0  0  0
    1.8875   -8.5905   17.5913 C   0  0  1  0  0  0  0  0  0  0  0  0
    2.9135   -8.4183   18.6091 O   0  0  0  0  0  0  0  0  0  0  0  0
    4.1280   -7.7405   18.4002 C   0  0  2  0  0  0  0  0  0  0  0  0
    5.1611   -8.2978   19.4372 C   0  0  2  0  0  0  0  0  0  0  0  0
    5.3258   -9.6654   19.2402 O   0  0  0  0  0  0  0  0  0  0  0  0
    4.7061   -7.9920   20.9144 C   0  0  1  0  0  0  0  0  0  0  0  0
    5.6918   -8.5181   21.9153 N   0  0  0  0  0  0  0  0  0  0  0  0
    4.5328   -6.4287   21.0668 C   0  0  2  0  0  0  0  0  0  0  0  0
    4.1264   -6.0878   22.3938 O   0  0  0  0  0  0  0  0  0  0  0  0
    3.4899   -5.9363   20.0074 C   0  0  2  0  0  0  0  0  0  0  0  0
    3.9257   -6.2964   18.6145 O   0  0  0  0  0  0  0  0  0  0  0  0
    3.2936   -4.4493   20.0694 C   0  0  0  0  0  0  0  0  0  0  0  0
    4.4869   -3.7489   19.6816 O   0  0  0  0  0  0  0  0  0  0  0  0
   -3.5943   -6.6682   18.8908 O   0  0  0  0  0  0  0  0  0  0  0  0
   -5.7654   -8.3655   19.6928 O   0  0  0  0  0  0  0  0  0  0  0  0
    7.4238   -8.5206   11.8567 N   0  0  0  0  0  0  0  0  0  0  0  0
    3.8037   -9.5008   15.1729 C   0  0  0  0  0  0  0  0  0  0  0  0
    3.0628   -8.8389   14.4544 O   0  0  0  0  0  0  0  0  0  0  0  0
    5.2830   -9.7986   14.8357 C   0  0  1  0  0  0  0  0  0  0  0  0
    5.7165   -8.9875   13.5979 C   0  0  0  0  0  0  0  0  0  0  0  0
    7.1305   -9.2695   13.0769 C   0  0  0  0  0  0  0  0  0  0  0  0
    6.1039   -9.4726   15.9799 O   0  0  0  0  0  0  0  0  0  0  0  0
  1  2  1  1  0  0  0
  1  3  1  0  0  0  0
  1  8  1  0  0  0  0
  3  4  1  0  0  0  0
  3 32  1  1  0  0  0
  4  5  1  0  0  0  0
  4 33  1  1  0  0  0
  5  6  1  1  0  0  0
  5  7  1  0  0  0  0
  7  8  1  0  0  0  0
  7  9  1  6  0  0  0
  9 10  1  0  0  0  0
 11 12  1  6  0  0  0
 11 13  1  0  0  0  0
 11 19  1  0  0  0  0
 12 35  1  0  0  0  0
 13 14  1  0  0  0  0
 14 15  1  6  0  0  0
 14 16  1  0  0  0  0
 16  2  1  1  0  0  0
 16 17  1  0  0  0  0
 17 18  1  6  0  0  0
 17 19  1  0  0  0  0
 19 20  1  1  0  0  0
 21 20  1  1  0  0  0
 21 22  1  0  0  0  0
 21 29  1  0  0  0  0
 22 23  1  1  0  0  0
 22 24  1  0  0  0  0
 24 25  1  1  0  0  0
 24 26  1  0  0  0  0
 26 27  1  1  0  0  0
 26 28  1  0  0  0  0
 28 29  1  0  0  0  0
 28 30  1  6  0  0  0
 30 31  1  0  0  0  0
 34 39  1  0  0  0  0
 35 36  2  0  0  0  0
 37 35  1  1  0  0  0
 37 38  1  0  0  0  0
 37 40  1  0  0  0  0
 38 39  1  0  0  0  0
M  END
>  <CHROM.1>
-156.52276977,-74.83009434,44.57541717,-90.97730581,96.83577468,-155.38021550
66.01636556,-172.77483681,-175.18421231,176.41253390,1.08446656,-8.58164724
17.62592086,-3.06221633,0.15710370,1.04408868

>  <Name>
2g5q_lig

>  <RI>
0

>  <Rbt.Current_Directory>
/home/itssahil/PROJECTS/Mol_Feturizer/New_Systems/rnas/2g5q

>  <Rbt.Executable>
rbdock ($Id: //depot/dev/client3/rdock/2013.1/src/exe/rbdock.cxx#4 $)

>  <Rbt.Library>
libRbt.so (2013.1, Build901 2013/11/27)

>  <Rbt.Parameter_File>
/export/apps/rDock/src/rDock_2013.1_src/data/scripts/dock_solv.prm

>  <Rbt.Receptor>
prm/pocket_docking_5.prm

>  <SCORE>
-16.2042

>  <SCORE.INTER>
-14.9894

>  <SCORE.INTER.CONST>
1

>  <SCORE.INTER.POLAR>
-2.44933

>  <SCORE.INTER.ROT>
10

>  <SCORE.INTER.SOLV>
20.0663

>  <SCORE.INTER.VDW>
-18.7839

>  <SCORE.INTER.norm>
-0.374735

>  <SCORE.INTRA>
-1.21477

>  <SCORE.INTRA.DIHEDRAL>
-6.86024

>  <SCORE.INTRA.DIHEDRAL.0>
22.5778

>  <SCORE.INTRA.POLAR>
0

>  <SCORE.INTRA.POLAR.0>
0

>  <SCORE.INTRA.REPUL>
0

>  <SCORE.INTRA.REPUL.0>
0

>  <SCORE.INTRA.SOLV>
3.4184

>  <SCORE.INTRA.SOLV.lig_0>
-102.332

>  <SCORE.INTRA.VDW>
0.506149

>  <SCORE.INTRA.VDW.0>
-5.08747

>  <SCORE.INTRA.norm>
-0.0303693

>  <SCORE.RESTR>
0

>  <SCORE.RESTR.CAVITY>
0

>  <SCORE.RESTR.norm>
0

>  <SCORE.SYSTEM>
0

>  <SCORE.SYSTEM.CONST>
0

>  <SCORE.SYSTEM.DIHEDRAL>
0

>  <SCORE.SYSTEM.SOLV>
0

>  <SCORE.SYSTEM.norm>
0

>  <SCORE.heavy>
40

>  <SCORE.norm>
-0.405105

>  <RMSD>
8.979

$$$$
2g5q_lig
 OpenBabel11021811433D
libRbt.so/2013.1/901 2013/11/27
 40 42  0  0  0  0  0  0  0  0999 V2000
    7.2762   -6.0567   13.9797 C   0  0  2  0  0  0  0  0  0  0  0  0
    7.1242   -6.1224   12.5790 O   0  0  0  0  0  0  0  0  0  0  0  0
    8.7604   -5.7188   14.3083 C   0  0  1  0  0  0  0  0  0  0  0  0
    9.7244   -6.8756   13.9008 C   0  0  2  0  0  0  0  0  0  0  0  0
    9.2940   -8.1472   14.6771 C   0  0  2  0  0  0  0  0  0  0  0  0
   10.1748   -9.2329   14.3454 O   0  0  0  0  0  0  0  0  0  0  0  0
    7.7988   -8.4856   14.2846 C   0  0  2  0  0  0  0  0  0  0  0  0
    6.9084   -7.3412   14.6316 O   0  0  0  0  0  0  0  0  0  0  0  0
    7.2642   -9.7187   15.0053 C   0  0  0  0  0  0  0  0  0  0  0  0
    5.8380  -10.0033   14.6492 N   0  0  0  0  0  0  0  0  0  0  0  0
    5.0827   -9.9094   11.8256 C   0  0  2  0  0  0  0  0  0  0  0  0
    4.2178  -10.9150   11.2201 N   0  0  0  0  0  0  0  0  0  0  0  0
    4.2246   -8.6643   12.3045 C   0  0  0  0  0  0  0  0  0  0  0  0
    5.1568   -7.5755   12.9677 C   0  0  2  0  0  0  0  0  0  0  0  0
    4.3388   -6.4186   13.4223 N   0  0  0  0  0  0  0  0  0  0  0  0
    6.2629   -7.1266   11.9319 C   0  0  2  0  0  0  0  0  0  0  0  0
    7.0924   -8.3918   11.4757 C   0  0  2  0  0  0  0  0  0  0  0  0
    8.0891   -7.9840   10.5332 O   0  0  0  0  0  0  0  0  0  0  0  0
    6.1461   -9.4582   10.8032 C   0  0  1  0  0  0  0  0  0  0  0  0
    6.9107  -10.6275   10.3951 O   0  0  0  0  0  0  0  0  0  0  0  0
    6.9134  -11.1542    9.0910 C   0  0  2  0  0  0  0  0  0  0  0  0
    7.7170  -12.4980    9.1291 C   0  0  2  0  0  0  0  0  0  0  0  0
    7.1026  -13.3822   10.0107 O   0  0  0  0  0  0  0  0  0  0  0  0
    9.2195  -12.2514    9.5342 C   0  0  1  0  0  0  0  0  0  0  0  0
    9.9990  -13.5326    9.5690 N   0  0  0  0  0  0  0  0  0  0  0  0
    9.8526  -11.2383    8.4997 C   0  0  2  0  0  0  0  0  0  0  0  0
   11.2230  -10.9802    8.8122 O   0  0  0  0  0  0  0  0  0  0  0  0
    9.0076   -9.9198    8.5111 C   0  0  2  0  0  0  0  0  0  0  0  0
    7.5683  -10.1994    8.1790 O   0  0  0  0  0  0  0  0  0  0  0  0
    9.5311   -8.9150    7.5263 C   0  0  0  0  0  0  0  0  0  0  0  0
   10.7922   -8.3742    7.9531 O   0  0  0  0  0  0  0  0  0  0  0  0
    9.1131   -4.4698   13.6200 O   0  0  0  0  0  0  0  0  0  0  0  0
   11.0177   -6.5298   14.2252 O   0  0  0  0  0  0  0  0  0  0  0  0
    1.8938  -12.8114   13.6620 N   0  0  0  0  0  0  0  0  0  0  0  0
    2.8819  -11.1179   11.5367 C   0  0  0  0  0  0  0  0  0  0  0  0
    2.2728  -10.4686   12.3798 O   0  0  0  0  0  0  0  0  0  0  0  0
    2.2497  -12.2677   10.7190 C   0  0  1  0  0  0  0  0  0  0  0  0
    2.5325  -13.6205   11.4032 C   0  0  0  0  0  0  0  0  0  0  0  0
    1.7472  -13.8940   12.6912 C   0  0  0  0  0  0  0  0  0  0  0  0
    0.8278  -12.0370   10.5993 O   0  0  0  0  0  0  0  0  0  0  0  0
  1  2  1  6  0  0  0
  1  3  1  0  0  0  0
  1  8  1  0  0  0  0
  3  4  1  0  0  0  0
  3 32  1  6  0  0  0
  4  5  1  0  0  0  0
  4 33  1  1  0  0  0
  5  6  1  6  0  0  0
  5  7  1  0  0  0  0
  7  8  1  0  0  0  0
  7  9  1  1  0  0  0
  9 10  1  0  0  0  0
 11 12  1  6  0  0  0
 11 13  1  0  0  0  0
 11 19  1  0  0  0  0
 12 35  1  0  0  0  0
 13 14  1  0  0  0  0
 14 15  1  6  0  0  0
 14 16  1  0  0  0  0
 16  2  1  1  0  0  0
 16 17  1  0  0  0  0
 17 18  1  6  0  0  0
 17 19  1  0  0  0  0
 19 20  1  1  0  0  0
 21 20  1  1  0  0  0
 21 22  1  0  0  0  0
 21 29  1  0  0  0  0
 22 23  1  1  0  0  0
 22 24  1  0  0  0  0
 24 25  1  6  0  0  0
 24 26  1  0  0  0  0
 26 27  1  1  0  0  0
 26 28  1  0  0  0  0
 28 29  1  0  0  0  0
 28 30  1  6  0  0  0
 30 31  1  0  0  0  0
 34 39  1  0  0  0  0
 35 36  2  0  0  0  0
 37 35  1  1  0  0  0
 37 38  1  0  0  0  0
 37 40  1  0  0  0  0
 38 39  1  0  0  0  0
M  END
>  <CHROM.1>
141.39992210,178.52401258,-28.34040623,24.88787343,114.87831241,-173.17115527
-70.48393059,84.85536603,72.70943591,-53.22925904,6.81483936,-9.59225298
11.66255580,0.55152444,0.39312737,0.77646339

>  <Name>
2g5q_lig

>  <RI>
0

>  <Rbt.Current_Directory>
/home/itssahil/PROJECTS/Mol_Feturizer/New_Systems/rnas/2g5q

>  <Rbt.Executable>
rbdock ($Id: //depot/dev/client3/rdock/2013.1/src/exe/rbdock.cxx#4 $)

>  <Rbt.Library>
libRbt.so (2013.1, Build901 2013/11/27)

>  <Rbt.Parameter_File>
/export/apps/rDock/src/rDock_2013.1_src/data/scripts/dock_solv.prm

>  <Rbt.Receptor>
prm/blind_docking_20.prm

>  <SCORE>
23.2817

>  <SCORE.INTER>
-4.53978

>  <SCORE.INTER.CONST>
1

>  <SCORE.INTER.POLAR>
-0.524474

>  <SCORE.INTER.ROT>
10

>  <SCORE.INTER.SOLV>
19.6215

>  <SCORE.INTER.VDW>
-18.0854

>  <SCORE.INTER.norm>
-0.113495

>  <SCORE.INTRA>
10.3647

>  <SCORE.INTRA.DIHEDRAL>
-2.36521

>  <SCORE.INTRA.DIHEDRAL.0>
22.5778

>  <SCORE.INTRA.POLAR>
0

>  <SCORE.INTRA.POLAR.0>
0

>  <SCORE.INTRA.REPUL>
0

>  <SCORE.INTRA.REPUL.0>
0

>  <SCORE.INTRA.SOLV>
11.0674

>  <SCORE.INTRA.SOLV.lig_0>
-102.332

>  <SCORE.INTRA.VDW>
6.01362

>  <SCORE.INTRA.VDW.0>
-5.08747

>  <SCORE.INTRA.norm>
0.259118

>  <SCORE.RESTR>
17.4568

>  <SCORE.RESTR.CAVITY>
17.4568

>  <SCORE.RESTR.norm>
0.436421

>  <SCORE.SYSTEM>
0

>  <SCORE.SYSTEM.CONST>
0

>  <SCORE.SYSTEM.DIHEDRAL>
0

>  <SCORE.SYSTEM.SOLV>
0

>  <SCORE.SYSTEM.norm>
0

>  <SCORE.heavy>
40

>  <SCORE.norm>
0.582044

>  <RMSD>
9.011

$$$$
2g5q_lig
 OpenBabel11021811433D
libRbt.so/2013.1/901 2013/11/27
 40 42  0  0  0  0  0  0  0  0999 V2000
    3.3357  -12.2455   14.4655 C   0  0  2  0  0  0  0  0  0  0  0  0
    2.4803  -11.1272   14.3799 O   0  0  0  0  0  0  0  0  0  0  0  0
    3.3852  -12.9470   13.0762 C   0  0  1  0  0  0  0  0  0  0  0  0
    2.0113  -13.5797   12.6946 C   0  0  2  0  0  0  0  0  0  0  0  0
    1.6454  -14.6149   13.7898 C   0  0  2  0  0  0  0  0  0  0  0  0
    0.3932  -15.2383   13.4615 O   0  0  0  0  0  0  0  0  0  0  0  0
    1.5599  -13.8595   15.1776 C   0  0  2  0  0  0  0  0  0  0  0  0
    2.8679  -13.2159   15.4900 O   0  0  0  0  0  0  0  0  0  0  0  0
    1.2174  -14.7904   16.3360 C   0  0  0  0  0  0  0  0  0  0  0  0
    2.2997  -15.7935   16.5894 N   0  0  0  0  0  0  0  0  0  0  0  0
    3.8595   -8.6477   17.7007 C   0  0  2  0  0  0  0  0  0  0  0  0
    3.9635   -7.5478   18.6520 N   0  0  0  0  0  0  0  0  0  0  0  0
    4.0524   -8.1126   16.2201 C   0  0  0  0  0  0  0  0  0  0  0  0
    3.9476   -9.3023   15.1866 C   0  0  2  0  0  0  0  0  0  0  0  0
    4.1413   -8.7892   13.8034 N   0  0  0  0  0  0  0  0  0  0  0  0
    2.5464  -10.0163   15.3446 C   0  0  2  0  0  0  0  0  0  0  0  0
    2.3893  -10.5308   16.8304 C   0  0  2  0  0  0  0  0  0  0  0  0
    1.1174  -11.1712   16.9727 O   0  0  0  0  0  0  0  0  0  0  0  0
    2.4815   -9.3266   17.8434 C   0  0  1  0  0  0  0  0  0  0  0  0
    2.3489   -9.8048   19.2116 O   0  0  0  0  0  0  0  0  0  0  0  0
    3.1789  -10.7811   19.7914 C   0  0  2  0  0  0  0  0  0  0  0  0
    2.4584  -11.3050   21.0796 C   0  0  2  0  0  0  0  0  0  0  0  0
    1.2279  -11.8546   20.7331 O   0  0  0  0  0  0  0  0  0  0  0  0
    2.2825  -10.1540   22.1412 C   0  0  1  0  0  0  0  0  0  0  0  0
    1.5972  -10.6472   23.3812 N   0  0  0  0  0  0  0  0  0  0  0  0
    3.7113   -9.5726   22.4844 C   0  0  2  0  0  0  0  0  0  0  0  0
    3.6167   -8.5254   23.4521 O   0  0  0  0  0  0  0  0  0  0  0  0
    4.3753   -9.0658   21.1596 C   0  0  2  0  0  0  0  0  0  0  0  0
    4.4735  -10.1735   20.1481 O   0  0  0  0  0  0  0  0  0  0  0  0
    5.7548   -8.5248   21.4004 C   0  0  0  0  0  0  0  0  0  0  0  0
    6.6377   -9.5469   21.8911 O   0  0  0  0  0  0  0  0  0  0  0  0
    3.8084  -11.9591   12.0747 O   0  0  0  0  0  0  0  0  0  0  0  0
    2.1159  -14.1961   11.4671 O   0  0  0  0  0  0  0  0  0  0  0  0
    3.1410   -3.3536   22.0982 N   0  0  0  0  0  0  0  0  0  0  0  0
    2.9810   -6.5960   18.8864 C   0  0  0  0  0  0  0  0  0  0  0  0
    1.9020   -6.5696   18.3047 O   0  0  0  0  0  0  0  0  0  0  0  0
    3.4055   -5.5597   19.9525 C   0  0  1  0  0  0  0  0  0  0  0  0
    2.4325   -4.3634   19.9435 C   0  0  0  0  0  0  0  0  0  0  0  0
    2.9144   -3.1057   20.6759 C   0  0  0  0  0  0  0  0  0  0  0  0
    3.4278   -6.1973   21.2495 O   0  0  0  0  0  0  0  0  0  0  0  0
  1  2  1  6  0  0  0
  1  3  1  0  0  0  0
  1  8  1  0  0  0  0
  3  4  1  0  0  0  0
  3 32  1  6  0  0  0
  4  5  1  0  0  0  0
  4 33  1  6  0  0  0
  5  6  1  6  0  0  0
  5  7  1  0  0  0  0
  7  8  1  0  0  0  0
  7  9  1  1  0  0  0
  9 10  1  0  0  0  0
 11 12  1  1  0  0  0
 11 13  1  0  0  0  0
 11 19  1  0  0  0  0
 12 35  1  0  0  0  0
 13 14  1  0  0  0  0
 14 15  1  6  0  0  0
 14 16  1  0  0  0  0
 16  2  1  6  0  0  0
 16 17  1  0  0  0  0
 17 18  1  6  0  0  0
 17 19  1  0  0  0  0
 19 20  1  1  0  0  0
 21 20  1  1  0  0  0
 21 22  1  0  0  0  0
 21 29  1  0  0  0  0
 22 23  1  6  0  0  0
 22 24  1  0  0  0  0
 24 25  1  1  0  0  0
 24 26  1  0  0  0  0
 26 27  1  1  0  0  0
 26 28  1  0  0  0  0
 28 29  1  0  0  0  0
 28 30  1  1  0  0  0
 30 31  1  0  0  0  0
 34 39  1  0  0  0  0
 35 36  2  0  0  0  0
 37 35  1  6  0  0  0
 37 38  1  0  0  0  0
 37 40  1  0  0  0  0
 38 39  1  0  0  0  0
M  END
>  <CHROM.1>
-159.56300953,65.41485014,75.85864362,64.93309790,-62.77834129,-163.47626608
62.98649044,167.25377848,-164.83890761,-61.51444767,2.93160332,-10.09198881
17.88519979,-2.38856296,1.39729343,1.66594690

>  <Name>
2g5q_lig

>  <RI>
0

>  <Rbt.Current_Directory>
/home/itssahil/PROJECTS/Mol_Feturizer/New_Systems/rnas/2g5q

>  <Rbt.Executable>
rbdock ($Id: //depot/dev/client3/rdock/2013.1/src/exe/rbdock.cxx#4 $)

>  <Rbt.Library>
libRbt.so (2013.1, Build901 2013/11/27)

>  <Rbt.Parameter_File>
/export/apps/rDock/src/rDock_2013.1_src/data/scripts/dock_solv.prm

>  <Rbt.Receptor>
prm/pocket_docking_5.prm

>  <SCORE>
-18.0309

>  <SCORE.INTER>
-11.398

>  <SCORE.INTER.CONST>
1

>  <SCORE.INTER.POLAR>
-0.359922

>  <SCORE.INTER.ROT>
10

>  <SCORE.INTER.SOLV>
17.5769

>  <SCORE.INTER.VDW>
-22.5246

>  <SCORE.INTER.norm>
-0.28495

>  <SCORE.INTRA>
-6.63293

>  <SCORE.INTRA.DIHEDRAL>
-17.1861

>  <SCORE.INTRA.DIHEDRAL.0>
22.5778

>  <SCORE.INTRA.POLAR>
0

>  <SCORE.INTRA.POLAR.0>
0

>  <SCORE.INTRA.REPUL>
0

>  <SCORE.INTRA.REPUL.0>
0

>  <SCORE.INTRA.SOLV>
4.82313

>  <SCORE.INTRA.SOLV.lig_0>
-102.332

>  <SCORE.INTRA.VDW>
-0.451433

>  <SCORE.INTRA.VDW.0>
-5.08747

>  <SCORE.INTRA.norm>
-0.165823

>  <SCORE.RESTR>
0

>  <SCORE.RESTR.CAVITY>
0

>  <SCORE.RESTR.norm>
0

>  <SCORE.SYSTEM>
0

>  <SCORE.SYSTEM.CONST>
0

>  <SCORE.SYSTEM.DIHEDRAL>
0

>  <SCORE.SYSTEM.SOLV>
0

>  <SCORE.SYSTEM.norm>
0

>  <SCORE.heavy>
40

>  <SCORE.norm>
-0.450773

>  <RMSD>
9.025

$$$$
2g5q_lig
 OpenBabel11021811433D
libRbt.so/2013.1/901 2013/11/27
 40 42  0  0  0  0  0  0  0  0999 V2000
   -6.7156   -8.9975   15.9501 C   0  0  2  0  0  0  0  0  0  0  0  0
   -5.4150   -9.3390   15.5244 O   0  0  0  0  0  0  0  0  0  0  0  0
   -7.4053  -10.2691   16.5264 C   0  0  1  0  0  0  0  0  0  0  0  0
   -7.6633  -11.3416   15.4234 C   0  0  2  0  0  0  0  0  0  0  0  0
   -8.5705  -10.7003   14.3414 C   0  0  2  0  0  0  0  0  0  0  0  0
   -8.8508  -11.6669   13.3159 O   0  0  0  0  0  0  0  0  0  0  0  0
   -7.8195   -9.4403   13.7475 C   0  0  2  0  0  0  0  0  0  0  0  0
   -7.5339   -8.4582   14.8322 O   0  0  0  0  0  0  0  0  0  0  0  0
   -8.6319   -8.7196   12.6770 C   0  0  0  0  0  0  0  0  0  0  0  0
  -10.0212   -8.4085   13.1405 N   0  0  0  0  0  0  0  0  0  0  0  0
   -1.4956   -9.2587   17.4504 C   0  0  2  0  0  0  0  0  0  0  0  0
   -0.4155   -9.5203   18.3942 N   0  0  0  0  0  0  0  0  0  0  0  0
   -2.7233   -8.5844   18.1947 C   0  0  0  0  0  0  0  0  0  0  0  0
   -3.8931   -8.2927   17.1744 C   0  0  2  0  0  0  0  0  0  0  0  0
   -5.0333   -7.6505   17.8825 N   0  0  0  0  0  0  0  0  0  0  0  0
   -4.3340   -9.6412   16.4779 C   0  0  2  0  0  0  0  0  0  0  0  0
   -3.0861  -10.2842   15.7524 C   0  0  2  0  0  0  0  0  0  0  0  0
   -3.4863  -11.5081   15.1279 O   0  0  0  0  0  0  0  0  0  0  0  0
   -1.9376  -10.5812   16.7904 C   0  0  1  0  0  0  0  0  0  0  0  0
   -0.7850  -11.1619   16.1175 O   0  0  0  0  0  0  0  0  0  0  0  0
    0.2944  -11.7706   16.7827 C   0  0  2  0  0  0  0  0  0  0  0  0
    1.4001  -12.0637   15.7128 C   0  0  2  0  0  0  0  0  0  0  0  0
    1.8025  -10.8702   15.1212 O   0  0  0  0  0  0  0  0  0  0  0  0
    0.8864  -13.0849   14.6285 C   0  0  1  0  0  0  0  0  0  0  0  0
    1.9403  -13.3757   13.6013 N   0  0  0  0  0  0  0  0  0  0  0  0
    0.4418  -14.4101   15.3658 C   0  0  2  0  0  0  0  0  0  0  0  0
   -0.0289  -15.3813   14.4293 O   0  0  0  0  0  0  0  0  0  0  0  0
   -0.6621  -14.0502   16.4168 C   0  0  2  0  0  0  0  0  0  0  0  0
   -0.1584  -13.0302   17.3995 O   0  0  0  0  0  0  0  0  0  0  0  0
   -1.1153  -15.2587   17.1835 C   0  0  0  0  0  0  0  0  0  0  0  0
   -0.0760  -15.7492   18.0462 O   0  0  0  0  0  0  0  0  0  0  0  0
   -6.5586  -10.8077   17.5993 O   0  0  0  0  0  0  0  0  0  0  0  0
   -8.2849  -12.4354   15.9844 O   0  0  0  0  0  0  0  0  0  0  0  0
    2.3493  -10.0121   22.8885 N   0  0  0  0  0  0  0  0  0  0  0  0
    0.2020   -8.5651   19.1894 C   0  0  0  0  0  0  0  0  0  0  0  0
   -0.0917   -7.3747   19.1809 O   0  0  0  0  0  0  0  0  0  0  0  0
    1.3160   -9.1667   20.0769 C   0  0  1  0  0  0  0  0  0  0  0  0
    0.7209  -10.2261   21.0264 C   0  0  0  0  0  0  0  0  0  0  0  0
    1.7218  -10.9358   21.9457 C   0  0  0  0  0  0  0  0  0  0  0  0
    2.3343   -9.7460   19.2303 O   0  0  0  0  0  0  0  0  0  0  0  0
  1  2  1  6  0  0  0
  1  3  1  0  0  0  0
  1  8  1  0  0  0  0
  3  4  1  0  0  0  0
  3 32  1  1  0  0  0
  4  5  1  0  0  0  0
  4 33  1  1  0  0  0
  5  6  1  6  0  0  0
  5  7  1  0  0  0  0
  7  8  1  0  0  0  0
  7  9  1  6  0  0  0
  9 10  1  0  0  0  0
 11 12  1  1  0  0  0
 11 13  1  0  0  0  0
 11 19  1  0  0  0  0
 12 35  1  0  0  0  0
 13 14  1  0  0  0  0
 14 15  1  1  0  0  0
 14 16  1  0  0  0  0
 16  2  1  6  0  0  0
 16 17  1  0  0  0  0
 17 18  1  1  0  0  0
 17 19  1  0  0  0  0
 19 20  1  6  0  0  0
 21 20  1  6  0  0  0
 21 22  1  0  0  0  0
 21 29  1  0  0  0  0
 22 23  1  6  0  0  0
 22 24  1  0  0  0  0
 24 25  1  6  0  0  0
 24 26  1  0  0  0  0
 26 27  1  6  0  0  0
 26 28  1  0  0  0  0
 28 29  1  0  0  0  0
 28 30  1  1  0  0  0
 30 31  1  0  0  0  0
 34 39  1  0  0  0  0
 35 36  2  0  0  0  0
 37 35  1  6  0  0  0
 37 38  1  0  0  0  0
 37 40  1  0  0  0  0
 38 39  1  0  0  0  0
M  END
>  <CHROM.1>
-71.58954988,51.13624637,-57.06579197,-71.91487607,73.21167857,-171.76808818
68.30446978,-60.88044119,178.50333312,64.01782836,-2.69147760,-10.83527754
16.65499099,3.02842663,0.40436765,-2.44535777

>  <Name>
2g5q_lig

>  <RI>
0

>  <Rbt.Current_Directory>
/home/itssahil/PROJECTS/Mol_Feturizer/New_Systems/rnas/2g5q

>  <Rbt.Executable>
rbdock ($Id: //depot/dev/client3/rdock/2013.1/src/exe/rbdock.cxx#4 $)

>  <Rbt.Library>
libRbt.so (2013.1, Build901 2013/11/27)

>  <Rbt.Parameter_File>
/export/apps/rDock/src/rDock_2013.1_src/data/scripts/dock_solv.prm

>  <Rbt.Receptor>
prm/pocket_docking_5.prm

>  <SCORE>
-18.1663

>  <SCORE.INTER>
-11.6394

>  <SCORE.INTER.CONST>
1

>  <SCORE.INTER.POLAR>
-1.47255

>  <SCORE.INTER.ROT>
10

>  <SCORE.INTER.SOLV>
12.3466

>  <SCORE.INTER.VDW>
-17.2333

>  <SCORE.INTER.norm>
-0.290984

>  <SCORE.INTRA>
-6.53729

>  <SCORE.INTRA.DIHEDRAL>
-18.6822

>  <SCORE.INTRA.DIHEDRAL.0>
22.5778

>  <SCORE.INTRA.POLAR>
0

>  <SCORE.INTRA.POLAR.0>
0

>  <SCORE.INTRA.REPUL>
0

>  <SCORE.INTRA.REPUL.0>
0

>  <SCORE.INTRA.SOLV>
3.25694

>  <SCORE.INTRA.SOLV.lig_0>
-102.332

>  <SCORE.INTRA.VDW>
1.17533

>  <SCORE.INTRA.VDW.0>
-5.08747

>  <SCORE.INTRA.norm>
-0.163432

>  <SCORE.RESTR>
0.0104031

>  <SCORE.RESTR.CAVITY>
0.0104031

>  <SCORE.RESTR.norm>
0.000260077

>  <SCORE.SYSTEM>
0

>  <SCORE.SYSTEM.CONST>
0

>  <SCORE.SYSTEM.DIHEDRAL>
0

>  <SCORE.SYSTEM.SOLV>
0

>  <SCORE.SYSTEM.norm>
0

>  <SCORE.heavy>
40

>  <SCORE.norm>
-0.454157

>  <RMSD>
9.056

$$$$
2g5q_lig
 OpenBabel11021811433D
libRbt.so/2013.1/901 2013/11/27
 40 42  0  0  0  0  0  0  0  0999 V2000
    7.2956   -5.9430   13.9200 C   0  0  2  0  0  0  0  0  0  0  0  0
    7.1247   -6.0359   12.5229 O   0  0  0  0  0  0  0  0  0  0  0  0
    8.7910   -5.6325   14.2233 C   0  0  1  0  0  0  0  0  0  0  0  0
    9.7231   -6.8200   13.8302 C   0  0  2  0  0  0  0  0  0  0  0  0
    9.2733   -8.0640   14.6396 C   0  0  2  0  0  0  0  0  0  0  0  0
   10.1248   -9.1768   14.3218 O   0  0  0  0  0  0  0  0  0  0  0  0
    7.7660   -8.3762   14.2726 C   0  0  2  0  0  0  0  0  0  0  0  0
    6.9065   -7.2040   14.6045 O   0  0  0  0  0  0  0  0  0  0  0  0
    7.2123   -9.5804   15.0268 C   0  0  0  0  0  0  0  0  0  0  0  0
    5.8287   -9.9363   14.5786 N   0  0  0  0  0  0  0  0  0  0  0  0
    5.0128   -9.8017   11.8628 C   0  0  2  0  0  0  0  0  0  0  0  0
    4.1194  -10.8016   11.2901 N   0  0  0  0  0  0  0  0  0  0  0  0
    4.1841   -8.5394   12.3484 C   0  0  0  0  0  0  0  0  0  0  0  0
    5.1474   -7.4566   12.9762 C   0  0  2  0  0  0  0  0  0  0  0  0
    4.3571   -6.2834   13.4375 N   0  0  0  0  0  0  0  0  0  0  0  0
    6.2339   -7.0350   11.9085 C   0  0  2  0  0  0  0  0  0  0  0  0
    7.0342   -8.3167   11.4466 C   0  0  2  0  0  0  0  0  0  0  0  0
    8.0129   -7.9335   10.4754 O   0  0  0  0  0  0  0  0  0  0  0  0
    6.0569   -9.3769   10.8096 C   0  0  1  0  0  0  0  0  0  0  0  0
    6.7948  -10.5614   10.3963 O   0  0  0  0  0  0  0  0  0  0  0  0
    6.9251  -10.9855    9.0616 C   0  0  2  0  0  0  0  0  0  0  0  0
    7.7427  -12.3214    9.0711 C   0  0  2  0  0  0  0  0  0  0  0  0
    7.0641  -13.2763    9.8222 O   0  0  0  0  0  0  0  0  0  0  0  0
    9.1978  -12.0941    9.6310 C   0  0  1  0  0  0  0  0  0  0  0  0
    9.9907  -13.3675    9.6399 N   0  0  0  0  0  0  0  0  0  0  0  0
    9.9070  -10.9986    8.7398 C   0  0  2  0  0  0  0  0  0  0  0  0
   11.2388  -10.7538    9.1965 O   0  0  0  0  0  0  0  0  0  0  0  0
    9.0440   -9.6922    8.7737 C   0  0  2  0  0  0  0  0  0  0  0  0
    7.6457   -9.9575    8.2896 O   0  0  0  0  0  0  0  0  0  0  0  0
    9.6398   -8.6097    7.9210 C   0  0  0  0  0  0  0  0  0  0  0  0
    9.6782   -8.9969    6.5377 O   0  0  0  0  0  0  0  0  0  0  0  0
    9.1637   -4.4075   13.5032 O   0  0  0  0  0  0  0  0  0  0  0  0
   11.0280   -6.4973   14.1314 O   0  0  0  0  0  0  0  0  0  0  0  0
    1.2205  -15.2804    9.9767 N   0  0  0  0  0  0  0  0  0  0  0  0
    3.4001  -11.7417   12.0146 C   0  0  0  0  0  0  0  0  0  0  0  0
    3.4425  -11.8424   13.2358 O   0  0  0  0  0  0  0  0  0  0  0  0
    2.5505  -12.6617   11.1077 C   0  0  1  0  0  0  0  0  0  0  0  0
    2.2672  -13.9965   11.8262 C   0  0  0  0  0  0  0  0  0  0  0  0
    2.3137  -15.2510   10.9462 C   0  0  0  0  0  0  0  0  0  0  0  0
    1.3184  -11.9857   10.7696 O   0  0  0  0  0  0  0  0  0  0  0  0
  1  2  1  6  0  0  0
  1  3  1  0  0  0  0
  1  8  1  0  0  0  0
  3  4  1  0  0  0  0
  3 32  1  6  0  0  0
  4  5  1  0  0  0  0
  4 33  1  1  0  0  0
  5  6  1  6  0  0  0
  5  7  1  0  0  0  0
  7  8  1  0  0  0  0
  7  9  1  1  0  0  0
  9 10  1  0  0  0  0
 11 12  1  6  0  0  0
 11 13  1  0  0  0  0
 11 19  1  0  0  0  0
 12 35  1  0  0  0  0
 13 14  1  0  0  0  0
 14 15  1  6  0  0  0
 14 16  1  0  0  0  0
 16  2  1  1  0  0  0
 16 17  1  0  0  0  0
 17 18  1  6  0  0  0
 17 19  1  0  0  0  0
 19 20  1  1  0  0  0
 21 20  1  1  0  0  0
 21 22  1  0  0  0  0
 21 29  1  0  0  0  0
 22 23  1  1  0  0  0
 22 24  1  0  0  0  0
 24 25  1  6  0  0  0
 24 26  1  0  0  0  0
 26 27  1  1  0  0  0
 26 28  1  0  0  0  0
 28 29  1  0  0  0  0
 28 30  1  6  0  0  0
 30 31  1  0  0  0  0
 34 39  1  0  0  0  0
 35 36  2  0  0  0  0
 37 35  1  1  0  0  0
 37 38  1  0  0  0  0
 37 40  1  0  0  0  0
 38 39  1  0  0  0  0
M  END
>  <CHROM.1>
141.32799733,-174.87907367,-83.17675157,23.84860252,125.09248073,-177.82287146
62.85231446,156.11490933,-141.04551842,-67.66302477,6.82976665,-9.67360280
11.56439409,0.79223160,0.44881894,0.76890320

>  <Name>
2g5q_lig

>  <RI>
0

>  <Rbt.Current_Directory>
/home/itssahil/PROJECTS/Mol_Feturizer/New_Systems/rnas/2g5q

>  <Rbt.Executable>
rbdock ($Id: //depot/dev/client3/rdock/2013.1/src/exe/rbdock.cxx#4 $)

>  <Rbt.Library>
libRbt.so (2013.1, Build901 2013/11/27)

>  <Rbt.Parameter_File>
/export/apps/rDock/src/rDock_2013.1_src/data/scripts/dock_solv.prm

>  <Rbt.Receptor>
prm/blind_docking_20.prm

>  <SCORE>
23.2811

>  <SCORE.INTER>
-5.98609

>  <SCORE.INTER.CONST>
1

>  <SCORE.INTER.POLAR>
-0.679416

>  <SCORE.INTER.ROT>
10

>  <SCORE.INTER.SOLV>
17.5064

>  <SCORE.INTER.VDW>
-17.8282

>  <SCORE.INTER.norm>
-0.149652

>  <SCORE.INTRA>
9.73304

>  <SCORE.INTRA.DIHEDRAL>
0.260524

>  <SCORE.INTRA.DIHEDRAL.0>
22.5778

>  <SCORE.INTRA.POLAR>
0

>  <SCORE.INTRA.POLAR.0>
0

>  <SCORE.INTRA.REPUL>
0

>  <SCORE.INTRA.REPUL.0>
0

>  <SCORE.INTRA.SOLV>
8.78069

>  <SCORE.INTRA.SOLV.lig_0>
-102.332

>  <SCORE.INTRA.VDW>
5.21243

>  <SCORE.INTRA.VDW.0>
-5.08747

>  <SCORE.INTRA.norm>
0.243326

>  <SCORE.RESTR>
19.5342

>  <SCORE.RESTR.CAVITY>
19.5342

>  <SCORE.RESTR.norm>
0.488354

>  <SCORE.SYSTEM>
0

>  <SCORE.SYSTEM.CONST>
0

>  <SCORE.SYSTEM.DIHEDRAL>
0

>  <SCORE.SYSTEM.SOLV>
0

>  <SCORE.SYSTEM.norm>
0

>  <SCORE.heavy>
40

>  <SCORE.norm>
0.582028

>  <RMSD>
9.097

$$$$
2g5q_lig
 OpenBabel11021811433D
libRbt.so/2013.1/901 2013/11/27
 40 42  0  0  0  0  0  0  0  0999 V2000
    7.3803   -5.5156   12.7501 C   0  0  2  0  0  0  0  0  0  0  0  0
    7.5521   -5.9981   11.4359 O   0  0  0  0  0  0  0  0  0  0  0  0
    8.7493   -5.5750   13.4897 C   0  0  1  0  0  0  0  0  0  0  0  0
    9.2280   -7.0431   13.7107 C   0  0  2  0  0  0  0  0  0  0  0  0
    8.1481   -7.7726   14.5512 C   0  0  2  0  0  0  0  0  0  0  0  0
    8.5642   -9.1258   14.7965 O   0  0  0  0  0  0  0  0  0  0  0  0
    6.7843   -7.7318   13.7497 C   0  0  2  0  0  0  0  0  0  0  0  0
    6.3800   -6.3183   13.5019 O   0  0  0  0  0  0  0  0  0  0  0  0
    5.6413   -8.4129   14.4949 C   0  0  0  0  0  0  0  0  0  0  0  0
    4.3609   -8.3696   13.7200 N   0  0  0  0  0  0  0  0  0  0  0  0
    5.0868   -9.6010   11.3027 C   0  0  2  0  0  0  0  0  0  0  0  0
    4.2581  -10.6889   10.7972 N   0  0  0  0  0  0  0  0  0  0  0  0
    4.4082   -8.2024   10.9876 C   0  0  0  0  0  0  0  0  0  0  0  0
    5.2992   -7.0211   11.5400 C   0  0  2  0  0  0  0  0  0  0  0  0
    4.6465   -5.7162   11.2480 N   0  0  0  0  0  0  0  0  0  0  0  0
    6.7399   -7.1012   10.8951 C   0  0  2  0  0  0  0  0  0  0  0  0
    7.3807   -8.5071   11.2262 C   0  0  2  0  0  0  0  0  0  0  0  0
    8.6824   -8.5797   10.6360 O   0  0  0  0  0  0  0  0  0  0  0  0
    6.4843   -9.6702   10.6531 C   0  0  1  0  0  0  0  0  0  0  0  0
    7.0704  -10.9642   10.9702 O   0  0  0  0  0  0  0  0  0  0  0  0
    7.0460  -12.0753   10.1082 C   0  0  2  0  0  0  0  0  0  0  0  0
    8.4733  -12.7197   10.1324 C   0  0  2  0  0  0  0  0  0  0  0  0
    8.7825  -13.1160   11.4300 O   0  0  0  0  0  0  0  0  0  0  0  0
    9.5577  -11.7220    9.5745 C   0  0  1  0  0  0  0  0  0  0  0  0
   10.9282  -12.3320    9.5894 N   0  0  0  0  0  0  0  0  0  0  0  0
    9.1439  -11.3094    8.1062 C   0  0  2  0  0  0  0  0  0  0  0  0
   10.0977  -10.4070    7.5423 O   0  0  0  0  0  0  0  0  0  0  0  0
    7.7140  -10.6723    8.1510 C   0  0  2  0  0  0  0  0  0  0  0  0
    6.7164  -11.6283    8.7430 O   0  0  0  0  0  0  0  0  0  0  0  0
    7.2363  -10.2811    6.7826 C   0  0  0  0  0  0  0  0  0  0  0  0
    7.9908   -9.1739    6.2633 O   0  0  0  0  0  0  0  0  0  0  0  0
    9.7305   -4.8113   12.7073 O   0  0  0  0  0  0  0  0  0  0  0  0
   10.4328   -7.0366   14.3784 O   0  0  0  0  0  0  0  0  0  0  0  0
    0.8624  -13.0395   12.9833 N   0  0  0  0  0  0  0  0  0  0  0  0
    2.9904  -11.0120   11.2606 C   0  0  0  0  0  0  0  0  0  0  0  0
    2.4205  -10.4135   12.1663 O   0  0  0  0  0  0  0  0  0  0  0  0
    2.3819  -12.2241   10.5183 C   0  0  1  0  0  0  0  0  0  0  0  0
    2.6404  -13.5174   11.3175 C   0  0  0  0  0  0  0  0  0  0  0  0
    2.2443  -13.4775   12.7980 C   0  0  0  0  0  0  0  0  0  0  0  0
    0.9650  -12.0045   10.3357 O   0  0  0  0  0  0  0  0  0  0  0  0
  1  2  1  6  0  0  0
  1  3  1  0  0  0  0
  1  8  1  0  0  0  0
  3  4  1  0  0  0  0
  3 32  1  6  0  0  0
  4  5  1  0  0  0  0
  4 33  1  1  0  0  0
  5  6  1  6  0  0  0
  5  7  1  0  0  0  0
  7  8  1  0  0  0  0
  7  9  1  1  0  0  0
  9 10  1  0  0  0  0
 11 12  1  6  0  0  0
 11 13  1  0  0  0  0
 11 19  1  0  0  0  0
 12 35  1  0  0  0  0
 13 14  1  0  0  0  0
 14 15  1  6  0  0  0
 14 16  1  0  0  0  0
 16  2  1  1  0  0  0
 16 17  1  0  0  0  0
 17 18  1  6  0  0  0
 17 19  1  0  0  0  0
 19 20  1  1  0  0  0
 21 20  1  1  0  0  0
 21 22  1  0  0  0  0
 21 29  1  0  0  0  0
 22 23  1  1  0  0  0
 22 24  1  0  0  0  0
 24 25  1  6  0  0  0
 24 26  1  0  0  0  0
 26 27  1  1  0  0  0
 26 28  1  0  0  0  0
 28 29  1  0  0  0  0
 28 30  1  6  0  0  0
 30 31  1  0  0  0  0
 34 39  1  0  0  0  0
 35 36  2  0  0  0  0
 37 35  1  1  0  0  0
 37 38  1  0  0  0  0
 37 40  1  0  0  0  0
 38 39  1  0  0  0  0
M  END
>  <CHROM.1>
124.95216918,-179.76854889,-65.42003374,32.81137175,97.45863492,136.00151296
-68.95338958,95.57778578,51.05902809,52.58933809,6.55952997,-9.51301969,11.27759005
0.73114549,0.38295002,0.70891346

>  <Name>
2g5q_lig

>  <RI>
0

>  <Rbt.Current_Directory>
/home/itssahil/PROJECTS/Mol_Feturizer/New_Systems/rnas/2g5q

>  <Rbt.Executable>
rbdock ($Id: //depot/dev/client3/rdock/2013.1/src/exe/rbdock.cxx#4 $)

>  <Rbt.Library>
libRbt.so (2013.1, Build901 2013/11/27)

>  <Rbt.Parameter_File>
/export/apps/rDock/src/rDock_2013.1_src/data/scripts/dock_solv.prm

>  <Rbt.Receptor>
prm/blind_docking_20.prm

>  <SCORE>
36.0252

>  <SCORE.INTER>
1.76273

>  <SCORE.INTER.CONST>
1

>  <SCORE.INTER.POLAR>
-0.760393

>  <SCORE.INTER.ROT>
10

>  <SCORE.INTER.SOLV>
23.2201

>  <SCORE.INTER.VDW>
-14.2969

>  <SCORE.INTER.norm>
0.0440684

>  <SCORE.INTRA>
17.5192

>  <SCORE.INTRA.DIHEDRAL>
1.22366

>  <SCORE.INTRA.DIHEDRAL.0>
22.5778

>  <SCORE.INTRA.POLAR>
0

>  <SCORE.INTRA.POLAR.0>
0

>  <SCORE.INTRA.REPUL>
0

>  <SCORE.INTRA.REPUL.0>
0

>  <SCORE.INTRA.SOLV>
13.0121

>  <SCORE.INTRA.SOLV.lig_0>
-102.332

>  <SCORE.INTRA.VDW>
10.4013

>  <SCORE.INTRA.VDW.0>
-5.08747

>  <SCORE.INTRA.norm>
0.437979

>  <SCORE.RESTR>
16.7433

>  <SCORE.RESTR.CAVITY>
16.7433

>  <SCORE.RESTR.norm>
0.418581

>  <SCORE.SYSTEM>
0

>  <SCORE.SYSTEM.CONST>
0

>  <SCORE.SYSTEM.DIHEDRAL>
0

>  <SCORE.SYSTEM.SOLV>
0

>  <SCORE.SYSTEM.norm>
0

>  <SCORE.heavy>
40

>  <SCORE.norm>
0.900629

>  <RMSD>
9.160

$$$$
2g5q_lig
 OpenBabel11021811433D
libRbt.so/2013.1/901 2013/11/27
 40 42  0  0  0  0  0  0  0  0999 V2000
   -1.6844  -12.5209   15.6247 C   0  0  2  0  0  0  0  0  0  0  0  0
   -0.5537  -12.1039   16.3577 O   0  0  0  0  0  0  0  0  0  0  0  0
   -2.7247  -11.3624   15.6046 C   0  0  1  0  0  0  0  0  0  0  0  0
   -3.3069  -11.0785   17.0237 C   0  0  2  0  0  0  0  0  0  0  0  0
   -3.9837  -12.3796   17.5276 C   0  0  2  0  0  0  0  0  0  0  0  0
   -4.5542  -12.1517   18.8265 O   0  0  0  0  0  0  0  0  0  0  0  0
   -2.8887  -13.5209   17.5780 C   0  0  2  0  0  0  0  0  0  0  0  0
   -2.3080  -13.7315   16.2211 O   0  0  0  0  0  0  0  0  0  0  0  0
   -3.4509  -14.8577   18.0499 C   0  0  0  0  0  0  0  0  0  0  0  0
   -3.8611  -14.8179   19.4893 N   0  0  0  0  0  0  0  0  0  0  0  0
    3.0136   -9.9259   15.0895 C   0  0  2  0  0  0  0  0  0  0  0  0
    3.8818   -8.8530   14.6197 N   0  0  0  0  0  0  0  0  0  0  0  0
    1.8846  -10.2276   14.0170 C   0  0  0  0  0  0  0  0  0  0  0  0
    0.9460  -11.3944   14.5189 C   0  0  2  0  0  0  0  0  0  0  0  0
   -0.1011  -11.6750   13.4996 N   0  0  0  0  0  0  0  0  0  0  0  0
    0.3052  -10.9954   15.9075 C   0  0  2  0  0  0  0  0  0  0  0  0
    1.4582  -10.6989   16.9465 C   0  0  2  0  0  0  0  0  0  0  0  0
    0.8758  -10.3318   18.2010 O   0  0  0  0  0  0  0  0  0  0  0  0
    2.3731   -9.5220   16.4336 C   0  0  1  0  0  0  0  0  0  0  0  0
    3.4414   -9.2593   17.3865 O   0  0  0  0  0  0  0  0  0  0  0  0
    4.2538   -8.1114   17.3661 C   0  0  2  0  0  0  0  0  0  0  0  0
    5.4556   -8.3694   18.3368 C   0  0  2  0  0  0  0  0  0  0  0  0
    6.1719   -9.4814   17.9044 O   0  0  0  0  0  0  0  0  0  0  0  0
    4.9585   -8.5610   19.8196 C   0  0  1  0  0  0  0  0  0  0  0  0
    6.1032   -8.8044   20.7581 N   0  0  0  0  0  0  0  0  0  0  0  0
    4.1513   -7.2702   20.2432 C   0  0  2  0  0  0  0  0  0  0  0  0
    3.6791   -7.3824   21.5873 O   0  0  0  0  0  0  0  0  0  0  0  0
    2.9670   -7.0699   19.2382 C   0  0  2  0  0  0  0  0  0  0  0  0
    3.4720   -6.9503   17.8273 O   0  0  0  0  0  0  0  0  0  0  0  0
    2.1681   -5.8398   19.5579 C   0  0  0  0  0  0  0  0  0  0  0  0
    2.9940   -4.6639   19.5470 O   0  0  0  0  0  0  0  0  0  0  0  0
   -2.0742  -10.1670   15.0515 O   0  0  0  0  0  0  0  0  0  0  0  0
   -4.2282  -10.0575   16.9451 O   0  0  0  0  0  0  0  0  0  0  0  0
    7.1885   -5.9012   11.3414 N   0  0  0  0  0  0  0  0  0  0  0  0
    5.0391   -9.0278   13.8738 C   0  0  0  0  0  0  0  0  0  0  0  0
    5.4708  -10.1221   13.5279 O   0  0  0  0  0  0  0  0  0  0  0  0
    5.7348   -7.6878   13.5410 C   0  0  1  0  0  0  0  0  0  0  0  0
    5.2150   -7.1423   12.1955 C   0  0  0  0  0  0  0  0  0  0  0  0
    5.7913   -5.7915   11.7556 C   0  0  0  0  0  0  0  0  0  0  0  0
    5.4861   -6.7473   14.6100 O   0  0  0  0  0  0  0  0  0  0  0  0
  1  2  1  1  0  0  0
  1  3  1  0  0  0  0
  1  8  1  0  0  0  0
  3  4  1  0  0  0  0
  3 32  1  1  0  0  0
  4  5  1  0  0  0  0
  4 33  1  6  0  0  0
  5  6  1  1  0  0  0
  5  7  1  0  0  0  0
  7  8  1  0  0  0  0
  7  9  1  6  0  0  0
  9 10  1  0  0  0  0
 11 12  1  6  0  0  0
 11 13  1  0  0  0  0
 11 19  1  0  0  0  0
 12 35  1  0  0  0  0
 13 14  1  0  0  0  0
 14 15  1  6  0  0  0
 14 16  1  0  0  0  0
 16  2  1  1  0  0  0
 16 17  1  0  0  0  0
 17 18  1  1  0  0  0
 17 19  1  0  0  0  0
 19 20  1  1  0  0  0
 21 20  1  1  0  0  0
 21 22  1  0  0  0  0
 21 29  1  0  0  0  0
 22 23  1  6  0  0  0
 22 24  1  0  0  0  0
 24 25  1  1  0  0  0
 24 26  1  0  0  0  0
 26 27  1  1  0  0  0
 26 28  1  0  0  0  0
 28 29  1  0  0  0  0
 28 30  1  1  0  0  0
 30 31  1  0  0  0  0
 34 39  1  0  0  0  0
 35 36  2  0  0  0  0
 37 35  1  1  0  0  0
 37 38  1  0  0  0  0
 37 40  1  0  0  0  0
 38 39  1  0  0  0  0
M  END
>  <CHROM.1>
-64.48248639,-67.77582300,-90.48621891,-62.32698448,74.14978461,-167.60301672
57.92549792,-90.82557464,178.32470777,71.52267933,1.70301338,-9.64713929
16.62778038,3.10216201,0.57977950,1.38297844

>  <Name>
2g5q_lig

>  <RI>
2.90231e+07

>  <Rbt.Current_Directory>
/home/itssahil/PROJECTS/Mol_Feturizer/New_Systems/rnas/2g5q

>  <Rbt.Executable>
rbdock ($Id: //depot/dev/client3/rdock/2013.1/src/exe/rbdock.cxx#4 $)

>  <Rbt.Library>
libRbt.so (2013.1, Build901 2013/11/27)

>  <Rbt.Parameter_File>
/export/apps/rDock/src/rDock_2013.1_src/data/scripts/dock_solv.prm

>  <Rbt.Receptor>
prm/pocket_docking_6.prm

>  <SCORE>
-23.5008

>  <SCORE.INTER>
-17.7758

>  <SCORE.INTER.CONST>
1

>  <SCORE.INTER.POLAR>
-2.48628

>  <SCORE.INTER.ROT>
10

>  <SCORE.INTER.SOLV>
16.9769

>  <SCORE.INTER.VDW>
-19.4886

>  <SCORE.INTER.norm>
-0.444395

>  <SCORE.INTRA>
-5.72504

>  <SCORE.INTRA.DIHEDRAL>
-17.7831

>  <SCORE.INTRA.DIHEDRAL.0>
22.5778

>  <SCORE.INTRA.POLAR>
0

>  <SCORE.INTRA.POLAR.0>
0

>  <SCORE.INTRA.REPUL>
0

>  <SCORE.INTRA.REPUL.0>
0

>  <SCORE.INTRA.SOLV>
3.63943

>  <SCORE.INTRA.SOLV.lig_0>
-102.332

>  <SCORE.INTRA.VDW>
1.34678

>  <SCORE.INTRA.VDW.0>
-5.08747

>  <SCORE.INTRA.norm>
-0.143126

>  <SCORE.RESTR>
0

>  <SCORE.RESTR.CAVITY>
0

>  <SCORE.RESTR.norm>
0

>  <SCORE.SYSTEM>
0

>  <SCORE.SYSTEM.CONST>
0

>  <SCORE.SYSTEM.DIHEDRAL>
0

>  <SCORE.SYSTEM.SOLV>
0

>  <SCORE.SYSTEM.norm>
0

>  <SCORE.heavy>
40

>  <SCORE.norm>
-0.587521

>  <RMSD>
9.182

$$$$
2g5q_lig
 OpenBabel11021811433D
libRbt.so/2013.1/901 2013/11/27
 40 42  0  0  0  0  0  0  0  0999 V2000
   -0.3563  -12.7293   18.1994 C   0  0  2  0  0  0  0  0  0  0  0  0
    0.2436  -12.5743   16.9323 O   0  0  0  0  0  0  0  0  0  0  0  0
   -0.9559  -14.1630   18.2990 C   0  0  1  0  0  0  0  0  0  0  0  0
   -2.1492  -14.3643   17.3145 C   0  0  2  0  0  0  0  0  0  0  0  0
   -3.2372  -13.3173   17.6680 C   0  0  2  0  0  0  0  0  0  0  0  0
   -4.3664  -13.4857   16.7956 O   0  0  0  0  0  0  0  0  0  0  0  0
   -2.6065  -11.8744   17.5124 C   0  0  2  0  0  0  0  0  0  0  0  0
   -1.4337  -11.7293   18.4214 O   0  0  0  0  0  0  0  0  0  0  0  0
   -3.5911  -10.7602   17.8510 C   0  0  0  0  0  0  0  0  0  0  0  0
   -2.9637   -9.4049   17.7457 N   0  0  0  0  0  0  0  0  0  0  0  0
    3.6412  -10.0379   15.8833 C   0  0  2  0  0  0  0  0  0  0  0  0
    4.4266   -8.8697   15.5036 N   0  0  0  0  0  0  0  0  0  0  0  0
    2.5555  -10.3541   14.7710 C   0  0  0  0  0  0  0  0  0  0  0  0
    1.7069  -11.6235   15.1749 C   0  0  2  0  0  0  0  0  0  0  0  0
    0.7004  -11.9159   14.1189 N   0  0  0  0  0  0  0  0  0  0  0  0
    1.0166  -11.3728   16.5744 C   0  0  2  0  0  0  0  0  0  0  0  0
    2.1272  -11.0575   17.6533 C   0  0  2  0  0  0  0  0  0  0  0  0
    1.4994  -10.8247   18.9181 O   0  0  0  0  0  0  0  0  0  0  0  0
    2.9513   -9.7793   17.2387 C   0  0  1  0  0  0  0  0  0  0  0  0
    3.9815   -9.4984   18.2278 O   0  0  0  0  0  0  0  0  0  0  0  0
    4.8827   -8.4217   18.1461 C   0  0  2  0  0  0  0  0  0  0  0  0
    5.8773   -8.5497   19.3492 C   0  0  2  0  0  0  0  0  0  0  0  0
    6.5563   -9.7615   19.2642 O   0  0  0  0  0  0  0  0  0  0  0  0
    5.1235   -8.4218   20.7269 C   0  0  1  0  0  0  0  0  0  0  0  0
    6.0687   -8.5386   21.8859 N   0  0  0  0  0  0  0  0  0  0  0  0
    4.3723   -7.0317   20.7544 C   0  0  2  0  0  0  0  0  0  0  0  0
    3.6732   -6.8543   21.9881 O   0  0  0  0  0  0  0  0  0  0  0  0
    3.3956   -6.9679   19.5319 C   0  0  2  0  0  0  0  0  0  0  0  0
    4.1388   -7.1528   18.2383 O   0  0  0  0  0  0  0  0  0  0  0  0
    2.6647   -5.6580   19.4716 C   0  0  0  0  0  0  0  0  0  0  0  0
    1.8148   -5.4816   20.6167 O   0  0  0  0  0  0  0  0  0  0  0  0
    0.1165  -15.1315   18.0343 O   0  0  0  0  0  0  0  0  0  0  0  0
   -2.6478  -15.6407   17.4540 O   0  0  0  0  0  0  0  0  0  0  0  0
    7.7321   -5.1451   13.2737 N   0  0  0  0  0  0  0  0  0  0  0  0
    5.3167   -8.8142   14.4402 C   0  0  0  0  0  0  0  0  0  0  0  0
    5.5507   -9.7589   13.6945 O   0  0  0  0  0  0  0  0  0  0  0  0
    5.9952   -7.4310   14.3101 C   0  0  1  0  0  0  0  0  0  0  0  0
    7.3632   -7.5768   13.6134 C   0  0  0  0  0  0  0  0  0  0  0  0
    8.3201   -6.3889   13.7667 C   0  0  0  0  0  0  0  0  0  0  0  0
    5.1279   -6.5468   13.5648 O   0  0  0  0  0  0  0  0  0  0  0  0
  1  2  1  6  0  0  0
  1  3  1  0  0  0  0
  1  8  1  0  0  0  0
  3  4  1  0  0  0  0
  3 32  1  6  0  0  0
  4  5  1  0  0  0  0
  4 33  1  1  0  0  0
  5  6  1  6  0  0  0
  5  7  1  0  0  0  0
  7  8  1  0  0  0  0
  7  9  1  1  0  0  0
  9 10  1  0  0  0  0
 11 12  1  6  0  0  0
 11 13  1  0  0  0  0
 11 19  1  0  0  0  0
 12 35  1  0  0  0  0
 13 14  1  0  0  0  0
 14 15  1  6  0  0  0
 14 16  1  0  0  0  0
 16  2  1  1  0  0  0
 16 17  1  0  0  0  0
 17 18  1  1  0  0  0
 17 19  1  0  0  0  0
 19 20  1  1  0  0  0
 21 20  1  1  0  0  0
 21 22  1  0  0  0  0
 21 29  1  0  0  0  0
 22 23  1  1  0  0  0
 22 24  1  0  0  0  0
 24 25  1  1  0  0  0
 24 26  1  0  0  0  0
 26 27  1  1  0  0  0
 26 28  1  0  0  0  0
 28 29  1  0  0  0  0
 28 30  1  6  0  0  0
 30 31  1  0  0  0  0
 34 39  1  0  0  0  0
 35 36  2  0  0  0  0
 37 35  1  6  0  0  0
 37 38  1  0  0  0  0
 37 40  1  0  0  0  0
 38 39  1  0  0  0  0
M  END
>  <CHROM.1>
-173.87713450,177.96460572,-67.76837987,172.09208970,60.65634222,-175.98684838
-63.74899778,154.00880095,-163.16305284,-57.53617763,2.34341399,-9.88402992
17.34498303,3.01554220,-0.63217153,-1.93673720

>  <Name>
2g5q_lig

>  <RI>
2.47104e+07

>  <Rbt.Current_Directory>
/home/itssahil/PROJECTS/Mol_Feturizer/New_Systems/rnas/2g5q

>  <Rbt.Executable>
rbdock ($Id: //depot/dev/client3/rdock/2013.1/src/exe/rbdock.cxx#4 $)

>  <Rbt.Library>
libRbt.so (2013.1, Build901 2013/11/27)

>  <Rbt.Parameter_File>
/export/apps/rDock/src/rDock_2013.1_src/data/scripts/dock_solv.prm

>  <Rbt.Receptor>
prm/pocket_docking_7.prm

>  <SCORE>
-18.5715

>  <SCORE.INTER>
-10.9756

>  <SCORE.INTER.CONST>
1

>  <SCORE.INTER.POLAR>
-2.08946

>  <SCORE.INTER.ROT>
10

>  <SCORE.INTER.SOLV>
17.6847

>  <SCORE.INTER.VDW>
-16.5138

>  <SCORE.INTER.norm>
-0.27439

>  <SCORE.INTRA>
-7.59588

>  <SCORE.INTRA.DIHEDRAL>
-19.4876

>  <SCORE.INTRA.DIHEDRAL.0>
22.5778

>  <SCORE.INTRA.POLAR>
0

>  <SCORE.INTRA.POLAR.0>
0

>  <SCORE.INTRA.REPUL>
0

>  <SCORE.INTRA.REPUL.0>
0

>  <SCORE.INTRA.SOLV>
0.0817395

>  <SCORE.INTRA.SOLV.lig_0>
-102.332

>  <SCORE.INTRA.VDW>
2.10705

>  <SCORE.INTRA.VDW.0>
-5.08747

>  <SCORE.INTRA.norm>
-0.189897

>  <SCORE.RESTR>
0

>  <SCORE.RESTR.CAVITY>
0

>  <SCORE.RESTR.norm>
0

>  <SCORE.SYSTEM>
0

>  <SCORE.SYSTEM.CONST>
0

>  <SCORE.SYSTEM.DIHEDRAL>
0

>  <SCORE.SYSTEM.SOLV>
0

>  <SCORE.SYSTEM.norm>
0

>  <SCORE.heavy>
40

>  <SCORE.norm>
-0.464287

>  <RMSD>
9.194

$$$$
2g5q_lig
 OpenBabel11021811433D
libRbt.so/2013.1/901 2013/11/27
 40 42  0  0  0  0  0  0  0  0999 V2000
   -7.1867  -10.9742   16.5061 C   0  0  2  0  0  0  0  0  0  0  0  0
   -5.9910  -10.4612   15.9615 O   0  0  0  0  0  0  0  0  0  0  0  0
   -7.9803  -11.7004   15.3801 C   0  0  1  0  0  0  0  0  0  0  0  0
   -8.4853  -10.7055   14.2898 C   0  0  2  0  0  0  0  0  0  0  0  0
   -9.4001   -9.6641   14.9854 C   0  0  2  0  0  0  0  0  0  0  0  0
   -9.9055   -8.7406   14.0076 O   0  0  0  0  0  0  0  0  0  0  0  0
   -8.5494   -8.9160   16.0902 C   0  0  2  0  0  0  0  0  0  0  0  0
   -8.0310   -9.8968   17.0863 O   0  0  0  0  0  0  0  0  0  0  0  0
   -9.3590   -7.8719   16.8518 C   0  0  0  0  0  0  0  0  0  0  0  0
   -9.6054   -6.6440   16.0312 N   0  0  0  0  0  0  0  0  0  0  0  0
   -1.7245  -10.1075   16.8267 C   0  0  2  0  0  0  0  0  0  0  0  0
   -0.4622  -10.0681   17.5553 N   0  0  0  0  0  0  0  0  0  0  0  0
   -2.7066   -8.9867   17.3698 C   0  0  0  0  0  0  0  0  0  0  0  0
   -4.0729   -9.0211   16.5782 C   0  0  2  0  0  0  0  0  0  0  0  0
   -4.9804   -7.9584   17.0892 N   0  0  0  0  0  0  0  0  0  0  0  0
   -4.7273  -10.4530   16.7178 C   0  0  2  0  0  0  0  0  0  0  0  0
   -3.7198  -11.5409   16.1719 C   0  0  2  0  0  0  0  0  0  0  0  0
   -4.3119  -12.8370   16.3052 O   0  0  0  0  0  0  0  0  0  0  0  0
   -2.3700  -11.4997   16.9851 C   0  0  1  0  0  0  0  0  0  0  0  0
   -1.4394  -12.4943   16.4722 O   0  0  0  0  0  0  0  0  0  0  0  0
   -1.6078  -13.8831   16.6176 C   0  0  2  0  0  0  0  0  0  0  0  0
   -0.8608  -14.3121   17.9258 C   0  0  2  0  0  0  0  0  0  0  0  0
   -1.4057  -13.6382   19.0145 O   0  0  0  0  0  0  0  0  0  0  0  0
    0.6871  -14.0405   17.8123 C   0  0  1  0  0  0  0  0  0  0  0  0
    1.4123  -14.4525   19.0592 N   0  0  0  0  0  0  0  0  0  0  0  0
    1.2384  -14.8273   16.5576 C   0  0  2  0  0  0  0  0  0  0  0  0
    2.6449  -14.6249   16.4065 O   0  0  0  0  0  0  0  0  0  0  0  0
    0.4549  -14.3529   15.2873 C   0  0  2  0  0  0  0  0  0  0  0  0
   -1.0231  -14.5715   15.4530 O   0  0  0  0  0  0  0  0  0  0  0  0
    0.9028  -15.0812   14.0533 C   0  0  0  0  0  0  0  0  0  0  0  0
    0.6765  -16.4953   14.1710 O   0  0  0  0  0  0  0  0  0  0  0  0
   -7.1123  -12.7305   14.7940 O   0  0  0  0  0  0  0  0  0  0  0  0
   -9.1895  -11.3974   13.3292 O   0  0  0  0  0  0  0  0  0  0  0  0
    4.3194   -9.2983   16.4972 N   0  0  0  0  0  0  0  0  0  0  0  0
    0.4738   -9.0460   17.4812 C   0  0  0  0  0  0  0  0  0  0  0  0
    0.3444   -8.0503   16.7776 O   0  0  0  0  0  0  0  0  0  0  0  0
    1.7087   -9.3109   18.3730 C   0  0  1  0  0  0  0  0  0  0  0  0
    2.5467  -10.4648   17.7862 C   0  0  0  0  0  0  0  0  0  0  0  0
    3.1742  -10.2023   16.4122 C   0  0  0  0  0  0  0  0  0  0  0  0
    2.4924   -8.1000   18.4677 O   0  0  0  0  0  0  0  0  0  0  0  0
  1  2  1  6  0  0  0
  1  3  1  0  0  0  0
  1  8  1  0  0  0  0
  3  4  1  0  0  0  0
  3 32  1  6  0  0  0
  4  5  1  0  0  0  0
  4 33  1  6  0  0  0
  5  6  1  6  0  0  0
  5  7  1  0  0  0  0
  7  8  1  0  0  0  0
  7  9  1  1  0  0  0
  9 10  1  0  0  0  0
 11 12  1  1  0  0  0
 11 13  1  0  0  0  0
 11 19  1  0  0  0  0
 12 35  1  0  0  0  0
 13 14  1  0  0  0  0
 14 15  1  1  0  0  0
 14 16  1  0  0  0  0
 16  2  1  6  0  0  0
 16 17  1  0  0  0  0
 17 18  1  1  0  0  0
 17 19  1  0  0  0  0
 19 20  1  6  0  0  0
 21 20  1  6  0  0  0
 21 22  1  0  0  0  0
 21 29  1  0  0  0  0
 22 23  1  1  0  0  0
 22 24  1  0  0  0  0
 24 25  1  1  0  0  0
 24 26  1  0  0  0  0
 26 27  1  6  0  0  0
 26 28  1  0  0  0  0
 28 29  1  0  0  0  0
 28 30  1  6  0  0  0
 30 31  1  0  0  0  0
 34 39  1  0  0  0  0
 35 36  2  0  0  0  0
 37 35  1  6  0  0  0
 37 38  1  0  0  0  0
 37 40  1  0  0  0  0
 38 39  1  0  0  0  0
M  END
>  <CHROM.1>
-142.93294235,-74.48555451,-68.23569951,-132.89168919,170.95279950,-92.13305610
60.94732448,70.13353658,64.17144188,74.56577042,-2.83907999,-11.26143703
16.41551575,2.91458013,-0.20859497,0.26500121

>  <Name>
2g5q_lig

>  <RI>
0

>  <Rbt.Current_Directory>
/home/itssahil/PROJECTS/Mol_Feturizer/New_Systems/rnas/2g5q

>  <Rbt.Executable>
rbdock ($Id: //depot/dev/client3/rdock/2013.1/src/exe/rbdock.cxx#4 $)

>  <Rbt.Library>
libRbt.so (2013.1, Build901 2013/11/27)

>  <Rbt.Parameter_File>
/export/apps/rDock/src/rDock_2013.1_src/data/scripts/dock_solv.prm

>  <Rbt.Receptor>
prm/pocket_docking_5.prm

>  <SCORE>
-4.705

>  <SCORE.INTER>
-4.25223

>  <SCORE.INTER.CONST>
1

>  <SCORE.INTER.POLAR>
-1.10537

>  <SCORE.INTER.ROT>
10

>  <SCORE.INTER.SOLV>
11.0772

>  <SCORE.INTER.VDW>
-13.1093

>  <SCORE.INTER.norm>
-0.106306

>  <SCORE.INTRA>
-0.456239

>  <SCORE.INTRA.DIHEDRAL>
-4.32901

>  <SCORE.INTRA.DIHEDRAL.0>
22.5778

>  <SCORE.INTRA.POLAR>
0

>  <SCORE.INTRA.POLAR.0>
0

>  <SCORE.INTRA.REPUL>
0

>  <SCORE.INTRA.REPUL.0>
0

>  <SCORE.INTRA.SOLV>
3.5119

>  <SCORE.INTRA.SOLV.lig_0>
-102.332

>  <SCORE.INTRA.VDW>
-0.0476821

>  <SCORE.INTRA.VDW.0>
-5.08747

>  <SCORE.INTRA.norm>
-0.011406

>  <SCORE.RESTR>
0.0034733

>  <SCORE.RESTR.CAVITY>
0.0034733

>  <SCORE.RESTR.norm>
8.68324e-05

>  <SCORE.SYSTEM>
0

>  <SCORE.SYSTEM.CONST>
0

>  <SCORE.SYSTEM.DIHEDRAL>
0

>  <SCORE.SYSTEM.SOLV>
0

>  <SCORE.SYSTEM.norm>
0

>  <SCORE.heavy>
40

>  <SCORE.norm>
-0.117625

>  <RMSD>
9.202

$$$$
2g5q_lig
 OpenBabel11021811433D
libRbt.so/2013.1/901 2013/11/27
 40 42  0  0  0  0  0  0  0  0999 V2000
    7.5446   -5.4835   13.1272 C   0  0  2  0  0  0  0  0  0  0  0  0
    7.6063   -5.8609   11.7695 O   0  0  0  0  0  0  0  0  0  0  0  0
    8.9953   -5.3407   13.6749 C   0  0  1  0  0  0  0  0  0  0  0  0
    9.7373   -6.7122   13.7214 C   0  0  2  0  0  0  0  0  0  0  0  0
    8.9234   -7.6609   14.6392 C   0  0  2  0  0  0  0  0  0  0  0  0
    9.5886   -8.9314   14.7265 O   0  0  0  0  0  0  0  0  0  0  0  0
    7.4721   -7.8178   14.0283 C   0  0  2  0  0  0  0  0  0  0  0  0
    6.8080   -6.4858   13.9415 O   0  0  0  0  0  0  0  0  0  0  0  0
    6.5750   -8.7250   14.8637 C   0  0  0  0  0  0  0  0  0  0  0  0
    7.2968   -9.9494   15.3345 N   0  0  0  0  0  0  0  0  0  0  0  0
    5.3250   -9.5801   11.5686 C   0  0  2  0  0  0  0  0  0  0  0  0
    4.4890  -10.6611   11.0604 N   0  0  0  0  0  0  0  0  0  0  0  0
    4.5420   -8.2024   11.4997 C   0  0  0  0  0  0  0  0  0  0  0  0
    5.4416   -7.0294   12.0561 C   0  0  2  0  0  0  0  0  0  0  0  0
    4.6921   -5.7454   11.9964 N   0  0  0  0  0  0  0  0  0  0  0  0
    6.7824   -6.9525   11.2228 C   0  0  2  0  0  0  0  0  0  0  0  0
    7.5305   -8.3415   11.3115 C   0  0  2  0  0  0  0  0  0  0  0  0
    8.7409   -8.2714   10.5512 O   0  0  0  0  0  0  0  0  0  0  0  0
    6.6219   -9.4946   10.7374 C   0  0  1  0  0  0  0  0  0  0  0  0
    7.3084  -10.7745   10.8317 O   0  0  0  0  0  0  0  0  0  0  0  0
    7.0661  -11.8659    9.9783 C   0  0  2  0  0  0  0  0  0  0  0  0
    8.3205  -12.8014   10.0449 C   0  0  2  0  0  0  0  0  0  0  0  0
    8.5064  -13.2374   11.3532 O   0  0  0  0  0  0  0  0  0  0  0  0
    9.6070  -12.0675    9.5075 C   0  0  1  0  0  0  0  0  0  0  0  0
   10.8135  -12.9572    9.5629 N   0  0  0  0  0  0  0  0  0  0  0  0
    9.3266  -11.5954    8.0256 C   0  0  2  0  0  0  0  0  0  0  0  0
   10.4652  -10.9265    7.4795 O   0  0  0  0  0  0  0  0  0  0  0  0
    8.0665  -10.6655    8.0280 C   0  0  2  0  0  0  0  0  0  0  0  0
    6.8728  -11.3770    8.6014 O   0  0  0  0  0  0  0  0  0  0  0  0
    7.7166  -10.1992    6.6446 C   0  0  0  0  0  0  0  0  0  0  0  0
    6.5874   -9.3107    6.6635 O   0  0  0  0  0  0  0  0  0  0  0  0
    9.7155   -4.3787   12.8300 O   0  0  0  0  0  0  0  0  0  0  0  0
   11.0065   -6.5295   14.2245 O   0  0  0  0  0  0  0  0  0  0  0  0
    2.5991  -12.5661   13.8271 N   0  0  0  0  0  0  0  0  0  0  0  0
    3.1487  -10.8492   11.3677 C   0  0  0  0  0  0  0  0  0  0  0  0
    2.5105  -10.1198   12.1187 O   0  0  0  0  0  0  0  0  0  0  0  0
    2.5523  -12.0935   10.6702 C   0  0  1  0  0  0  0  0  0  0  0  0
    1.5281  -12.7790   11.5972 C   0  0  0  0  0  0  0  0  0  0  0  0
    2.1112  -13.5024   12.8166 C   0  0  0  0  0  0  0  0  0  0  0  0
    1.9343  -11.6888    9.4278 O   0  0  0  0  0  0  0  0  0  0  0  0
  1  2  1  6  0  0  0
  1  3  1  0  0  0  0
  1  8  1  0  0  0  0
  3  4  1  0  0  0  0
  3 32  1  6  0  0  0
  4  5  1  0  0  0  0
  4 33  1  1  0  0  0
  5  6  1  6  0  0  0
  5  7  1  0  0  0  0
  7  8  1  0  0  0  0
  7  9  1  1  0  0  0
  9 10  1  0  0  0  0
 11 12  1  6  0  0  0
 11 13  1  0  0  0  0
 11 19  1  0  0  0  0
 12 35  1  0  0  0  0
 13 14  1  0  0  0  0
 14 15  1  6  0  0  0
 14 16  1  0  0  0  0
 16  2  1  1  0  0  0
 16 17  1  0  0  0  0
 17 18  1  6  0  0  0
 17 19  1  0  0  0  0
 19 20  1  1  0  0  0
 21 20  1  1  0  0  0
 21 22  1  0  0  0  0
 21 29  1  0  0  0  0
 22 23  1  1  0  0  0
 22 24  1  0  0  0  0
 24 25  1  6  0  0  0
 24 26  1  0  0  0  0
 26 27  1  1  0  0  0
 26 28  1  0  0  0  0
 28 29  1  0  0  0  0
 28 30  1  6  0  0  0
 30 31  1  0  0  0  0
 34 39  1  0  0  0  0
 35 36  2  0  0  0  0
 37 35  1  1  0  0  0
 37 38  1  0  0  0  0
 37 40  1  0  0  0  0
 38 39  1  0  0  0  0
M  END
>  <CHROM.1>
133.14093216,-42.75527251,-44.24623754,29.65923320,87.31864053,159.12069916
-178.02882134,144.16082068,-71.02981663,72.28852540,6.83830345,-9.47554973
11.42259898,0.92491405,0.35752237,0.77335156

>  <Name>
2g5q_lig

>  <RI>
0

>  <Rbt.Current_Directory>
/home/itssahil/PROJECTS/Mol_Feturizer/New_Systems/rnas/2g5q

>  <Rbt.Executable>
rbdock ($Id: //depot/dev/client3/rdock/2013.1/src/exe/rbdock.cxx#4 $)

>  <Rbt.Library>
libRbt.so (2013.1, Build901 2013/11/27)

>  <Rbt.Parameter_File>
/export/apps/rDock/src/rDock_2013.1_src/data/scripts/dock_solv.prm

>  <Rbt.Receptor>
prm/blind_docking_20.prm

>  <SCORE>
29.695

>  <SCORE.INTER>
1.17996

>  <SCORE.INTER.CONST>
1

>  <SCORE.INTER.POLAR>
0

>  <SCORE.INTER.ROT>
10

>  <SCORE.INTER.SOLV>
18.9537

>  <SCORE.INTER.VDW>
-15.7979

>  <SCORE.INTER.norm>
0.0294989

>  <SCORE.INTRA>
8.47035

>  <SCORE.INTRA.DIHEDRAL>
-3.44135

>  <SCORE.INTRA.DIHEDRAL.0>
22.5778

>  <SCORE.INTRA.POLAR>
0

>  <SCORE.INTRA.POLAR.0>
0

>  <SCORE.INTRA.REPUL>
0

>  <SCORE.INTRA.REPUL.0>
0

>  <SCORE.INTRA.SOLV>
6.16527

>  <SCORE.INTRA.SOLV.lig_0>
-102.332

>  <SCORE.INTRA.VDW>
7.10839

>  <SCORE.INTRA.VDW.0>
-5.08747

>  <SCORE.INTRA.norm>
0.211759

>  <SCORE.RESTR>
20.0447

>  <SCORE.RESTR.CAVITY>
20.0447

>  <SCORE.RESTR.norm>
0.501118

>  <SCORE.SYSTEM>
0

>  <SCORE.SYSTEM.CONST>
0

>  <SCORE.SYSTEM.DIHEDRAL>
0

>  <SCORE.SYSTEM.SOLV>
0

>  <SCORE.SYSTEM.norm>
0

>  <SCORE.heavy>
40

>  <SCORE.norm>
0.742375

>  <RMSD>
9.219

$$$$
2g5q_lig
 OpenBabel11021811433D
libRbt.so/2013.1/901 2013/11/27
 40 42  0  0  0  0  0  0  0  0999 V2000
    3.5453  -13.5254   15.1542 C   0  0  2  0  0  0  0  0  0  0  0  0
    4.5010  -13.1652   16.1270 O   0  0  0  0  0  0  0  0  0  0  0  0
    4.0415  -14.8007   14.4110 C   0  0  1  0  0  0  0  0  0  0  0  0
    5.3211  -14.5196   13.5641 C   0  0  2  0  0  0  0  0  0  0  0  0
    4.9736  -13.4155   12.5321 C   0  0  2  0  0  0  0  0  0  0  0  0
    6.1237  -13.1437   11.7148 O   0  0  0  0  0  0  0  0  0  0  0  0
    4.5176  -12.1230   13.3229 C   0  0  2  0  0  0  0  0  0  0  0  0
    3.3293  -12.4343   14.1679 O   0  0  0  0  0  0  0  0  0  0  0  0
    4.1361  -10.9704   12.4000 C   0  0  0  0  0  0  0  0  0  0  0  0
    2.9668  -11.3114   11.5294 N   0  0  0  0  0  0  0  0  0  0  0  0
    4.1302  -10.7615   19.7550 C   0  0  2  0  0  0  0  0  0  0  0  0
    3.9843   -9.6130   20.6412 N   0  0  0  0  0  0  0  0  0  0  0  0
    5.4397  -10.6107   18.8727 C   0  0  0  0  0  0  0  0  0  0  0  0
    5.6056  -11.8565   17.9161 C   0  0  2  0  0  0  0  0  0  0  0  0
    6.8425  -11.7081   17.1025 N   0  0  0  0  0  0  0  0  0  0  0  0
    4.3258  -11.9908   16.9984 C   0  0  2  0  0  0  0  0  0  0  0  0
    3.0439  -12.1344   17.9111 C   0  0  2  0  0  0  0  0  0  0  0  0
    1.8859  -12.2495   17.0782 O   0  0  0  0  0  0  0  0  0  0  0  0
    2.8889  -10.8746   18.8460 C   0  0  1  0  0  0  0  0  0  0  0  0
    1.7146  -11.0151   19.6942 O   0  0  0  0  0  0  0  0  0  0  0  0
    1.3652  -12.1978   20.3705 C   0  0  2  0  0  0  0  0  0  0  0  0
   -0.1054  -12.0291   20.8823 C   0  0  2  0  0  0  0  0  0  0  0  0
   -0.9532  -11.8182   19.7992 O   0  0  0  0  0  0  0  0  0  0  0  0
   -0.2145  -10.8496   21.9213 C   0  0  1  0  0  0  0  0  0  0  0  0
   -1.6190  -10.6828   22.4211 N   0  0  0  0  0  0  0  0  0  0  0  0
    0.7741  -11.1487   23.1174 C   0  0  2  0  0  0  0  0  0  0  0  0
    0.7139  -10.1126   24.0998 O   0  0  0  0  0  0  0  0  0  0  0  0
    2.2220  -11.3041   22.5413 C   0  0  2  0  0  0  0  0  0  0  0  0
    2.2775  -12.3971   21.5108 O   0  0  0  0  0  0  0  0  0  0  0  0
    3.2181  -11.6220   23.6185 C   0  0  0  0  0  0  0  0  0  0  0  0
    3.2271  -10.6079   24.6366 O   0  0  0  0  0  0  0  0  0  0  0  0
    4.2884  -15.8502   15.4089 O   0  0  0  0  0  0  0  0  0  0  0  0
    5.7071  -15.6745   12.9201 O   0  0  0  0  0  0  0  0  0  0  0  0
    4.0304   -5.5425   19.2567 N   0  0  0  0  0  0  0  0  0  0  0  0
    4.9666   -9.1295   21.4941 C   0  0  0  0  0  0  0  0  0  0  0  0
    6.0818   -9.6271   21.6042 O   0  0  0  0  0  0  0  0  0  0  0  0
    4.4922   -7.9014   22.3046 C   0  0  1  0  0  0  0  0  0  0  0  0
    3.8714   -6.8524   21.3600 C   0  0  0  0  0  0  0  0  0  0  0  0
    4.7558   -6.3992   20.1926 C   0  0  0  0  0  0  0  0  0  0  0  0
    3.5352   -8.3315   23.2988 O   0  0  0  0  0  0  0  0  0  0  0  0
  1  2  1  1  0  0  0
  1  3  1  0  0  0  0
  1  8  1  0  0  0  0
  3  4  1  0  0  0  0
  3 32  1  1  0  0  0
  4  5  1  0  0  0  0
  4 33  1  6  0  0  0
  5  6  1  1  0  0  0
  5  7  1  0  0  0  0
  7  8  1  0  0  0  0
  7  9  1  6  0  0  0
  9 10  1  0  0  0  0
 11 12  1  1  0  0  0
 11 13  1  0  0  0  0
 11 19  1  0  0  0  0
 12 35  1  0  0  0  0
 13 14  1  0  0  0  0
 14 15  1  6  0  0  0
 14 16  1  0  0  0  0
 16  2  1  6  0  0  0
 16 17  1  0  0  0  0
 17 18  1  6  0  0  0
 17 19  1  0  0  0  0
 19 20  1  1  0  0  0
 21 20  1  1  0  0  0
 21 22  1  0  0  0  0
 21 29  1  0  0  0  0
 22 23  1  6  0  0  0
 22 24  1  0  0  0  0
 24 25  1  1  0  0  0
 24 26  1  0  0  0  0
 26 27  1  1  0  0  0
 26 28  1  0  0  0  0
 28 29  1  0  0  0  0
 28 30  1  1  0  0  0
 30 31  1  0  0  0  0
 34 39  1  0  0  0  0
 35 36  2  0  0  0  0
 37 35  1  6  0  0  0
 37 38  1  0  0  0  0
 37 40  1  0  0  0  0
 38 39  1  0  0  0  0
M  END
>  <CHROM.1>
179.71719898,62.34345268,-51.67210071,-177.67170888,-75.42985546,-167.08353084
-57.93667435,-50.24872016,-54.54841704,172.57914307,3.39330893,-11.32961800
18.56437384,1.25406281,-0.71306801,-2.16320288

>  <Name>
2g5q_lig

>  <RI>
2.47104e+07

>  <Rbt.Current_Directory>
/home/itssahil/PROJECTS/Mol_Feturizer/New_Systems/rnas/2g5q

>  <Rbt.Executable>
rbdock ($Id: //depot/dev/client3/rdock/2013.1/src/exe/rbdock.cxx#4 $)

>  <Rbt.Library>
libRbt.so (2013.1, Build901 2013/11/27)

>  <Rbt.Parameter_File>
/export/apps/rDock/src/rDock_2013.1_src/data/scripts/dock_solv.prm

>  <Rbt.Receptor>
prm/pocket_docking_7.prm

>  <SCORE>
-11.9627

>  <SCORE.INTER>
-3.73053

>  <SCORE.INTER.CONST>
1

>  <SCORE.INTER.POLAR>
-0.887287

>  <SCORE.INTER.ROT>
10

>  <SCORE.INTER.SOLV>
15.3255

>  <SCORE.INTER.VDW>
-14.9046

>  <SCORE.INTER.norm>
-0.0932632

>  <SCORE.INTRA>
-8.23222

>  <SCORE.INTRA.DIHEDRAL>
-19.3088

>  <SCORE.INTRA.DIHEDRAL.0>
22.5778

>  <SCORE.INTRA.POLAR>
0

>  <SCORE.INTRA.POLAR.0>
0

>  <SCORE.INTRA.REPUL>
0

>  <SCORE.INTRA.REPUL.0>
0

>  <SCORE.INTRA.SOLV>
2.08164

>  <SCORE.INTRA.SOLV.lig_0>
-102.332

>  <SCORE.INTRA.VDW>
0.381368

>  <SCORE.INTRA.VDW.0>
-5.08747

>  <SCORE.INTRA.norm>
-0.205805

>  <SCORE.RESTR>
0

>  <SCORE.RESTR.CAVITY>
0

>  <SCORE.RESTR.norm>
0

>  <SCORE.SYSTEM>
0

>  <SCORE.SYSTEM.CONST>
0

>  <SCORE.SYSTEM.DIHEDRAL>
0

>  <SCORE.SYSTEM.SOLV>
0

>  <SCORE.SYSTEM.norm>
0

>  <SCORE.heavy>
40

>  <SCORE.norm>
-0.299069

>  <RMSD>
9.298

$$$$
2g5q_lig
 OpenBabel11021811433D
libRbt.so/2013.1/901 2013/11/27
 40 42  0  0  0  0  0  0  0  0999 V2000
   -5.6568  -12.1536   18.0464 C   0  0  2  0  0  0  0  0  0  0  0  0
   -4.6747  -13.0290   18.5550 O   0  0  0  0  0  0  0  0  0  0  0  0
   -6.0942  -11.1778   19.1782 C   0  0  1  0  0  0  0  0  0  0  0  0
   -6.8419  -11.9194   20.3291 C   0  0  2  0  0  0  0  0  0  0  0  0
   -8.0918  -12.6046   19.7182 C   0  0  2  0  0  0  0  0  0  0  0  0
   -8.8222  -13.2814   20.7540 O   0  0  0  0  0  0  0  0  0  0  0  0
   -7.6068  -13.6200   18.6056 C   0  0  2  0  0  0  0  0  0  0  0  0
   -6.8459  -12.8941   17.5488 O   0  0  0  0  0  0  0  0  0  0  0  0
   -8.7625  -14.3449   17.9241 C   0  0  0  0  0  0  0  0  0  0  0  0
   -9.6173  -13.4117   17.1240 N   0  0  0  0  0  0  0  0  0  0  0  0
   -0.7469  -14.1472   17.0061 C   0  0  2  0  0  0  0  0  0  0  0  0
    0.2897  -14.7602   16.1841 N   0  0  0  0  0  0  0  0  0  0  0  0
   -1.6460  -15.2666   17.6801 C   0  0  0  0  0  0  0  0  0  0  0  0
   -2.7660  -14.6070   18.5773 C   0  0  2  0  0  0  0  0  0  0  0  0
   -3.5949  -15.6671   19.2122 N   0  0  0  0  0  0  0  0  0  0  0  0
   -3.6483  -13.6390   17.6927 C   0  0  2  0  0  0  0  0  0  0  0  0
   -2.7191  -12.5427   17.0359 C   0  0  2  0  0  0  0  0  0  0  0  0
   -3.5191  -11.6714   16.2304 O   0  0  0  0  0  0  0  0  0  0  0  0
   -1.6192  -13.2213   16.1333 C   0  0  1  0  0  0  0  0  0  0  0  0
   -0.7571  -12.2100   15.5395 O   0  0  0  0  0  0  0  0  0  0  0  0
   -1.2249  -11.0319   14.9301 C   0  0  2  0  0  0  0  0  0  0  0  0
   -0.0579  -10.4605   14.0555 C   0  0  2  0  0  0  0  0  0  0  0  0
    0.3029  -11.3977   13.0922 O   0  0  0  0  0  0  0  0  0  0  0  0
    1.1794  -10.0636   14.9466 C   0  0  1  0  0  0  0  0  0  0  0  0
    2.3012   -9.5107   14.1182 N   0  0  0  0  0  0  0  0  0  0  0  0
    0.7002   -9.0057   16.0183 C   0  0  2  0  0  0  0  0  0  0  0  0
    1.7854   -8.6002   16.8551 O   0  0  0  0  0  0  0  0  0  0  0  0
   -0.4616   -9.6367   16.8578 C   0  0  2  0  0  0  0  0  0  0  0  0
   -1.5998  -10.0581   15.9709 O   0  0  0  0  0  0  0  0  0  0  0  0
   -0.9934   -8.6761   17.8816 C   0  0  0  0  0  0  0  0  0  0  0  0
   -1.4515   -7.4603   17.2678 O   0  0  0  0  0  0  0  0  0  0  0  0
   -4.8983  -10.4895   19.6825 O   0  0  0  0  0  0  0  0  0  0  0  0
   -7.2162  -11.0095   21.2932 O   0  0  0  0  0  0  0  0  0  0  0  0
    3.8995  -18.4925   14.4646 N   0  0  0  0  0  0  0  0  0  0  0  0
    1.4373  -15.3728   16.6676 C   0  0  0  0  0  0  0  0  0  0  0  0
    1.7151  -15.4613   17.8585 O   0  0  0  0  0  0  0  0  0  0  0  0
    2.3376  -15.9174   15.5347 C   0  0  1  0  0  0  0  0  0  0  0  0
    3.5299  -16.6911   16.1328 C   0  0  0  0  0  0  0  0  0  0  0  0
    4.4890  -17.3266   15.1196 C   0  0  0  0  0  0  0  0  0  0  0  0
    1.5498  -16.7689   14.6723 O   0  0  0  0  0  0  0  0  0  0  0  0
  1  2  1  1  0  0  0
  1  3  1  0  0  0  0
  1  8  1  0  0  0  0
  3  4  1  0  0  0  0
  3 32  1  1  0  0  0
  4  5  1  0  0  0  0
  4 33  1  1  0  0  0
  5  6  1  1  0  0  0
  5  7  1  0  0  0  0
  7  8  1  0  0  0  0
  7  9  1  6  0  0  0
  9 10  1  0  0  0  0
 11 12  1  6  0  0  0
 11 13  1  0  0  0  0
 11 19  1  0  0  0  0
 12 35  1  0  0  0  0
 13 14  1  0  0  0  0
 14 15  1  6  0  0  0
 14 16  1  0  0  0  0
 16  2  1  1  0  0  0
 16 17  1  0  0  0  0
 17 18  1  6  0  0  0
 17 19  1  0  0  0  0
 19 20  1  1  0  0  0
 21 20  1  1  0  0  0
 21 22  1  0  0  0  0
 21 29  1  0  0  0  0
 22 23  1  6  0  0  0
 22 24  1  0  0  0  0
 24 25  1  6  0  0  0
 24 26  1  0  0  0  0
 26 27  1  1  0  0  0
 26 28  1  0  0  0  0
 28 29  1  0  0  0  0
 28 30  1  1  0  0  0
 30 31  1  0  0  0  0
 34 39  1  0  0  0  0
 35 36  2  0  0  0  0
 37 35  1  1  0  0  0
 37 38  1  0  0  0  0
 37 40  1  0  0  0  0
 38 39  1  0  0  0  0
M  END
>  <CHROM.1>
-152.23381947,66.24008933,-75.61608463,-177.38633661,-165.33234905,-162.85701104
57.27046817,-175.10220697,178.23480311,-72.68490833,-2.17984755,-12.70554828
17.07314519,3.00912310,0.39841179,-0.07397533

>  <Name>
2g5q_lig

>  <RI>
2.47104e+07

>  <Rbt.Current_Directory>
/home/itssahil/PROJECTS/Mol_Feturizer/New_Systems/rnas/2g5q

>  <Rbt.Executable>
rbdock ($Id: //depot/dev/client3/rdock/2013.1/src/exe/rbdock.cxx#4 $)

>  <Rbt.Library>
libRbt.so (2013.1, Build901 2013/11/27)

>  <Rbt.Parameter_File>
/export/apps/rDock/src/rDock_2013.1_src/data/scripts/dock_solv.prm

>  <Rbt.Receptor>
prm/pocket_docking_7.prm

>  <SCORE>
-9.12379

>  <SCORE.INTER>
-4.81793

>  <SCORE.INTER.CONST>
1

>  <SCORE.INTER.POLAR>
-0.735831

>  <SCORE.INTER.ROT>
10

>  <SCORE.INTER.SOLV>
19.4866

>  <SCORE.INTER.VDW>
-17.5214

>  <SCORE.INTER.norm>
-0.120448

>  <SCORE.INTRA>
-4.30586

>  <SCORE.INTRA.DIHEDRAL>
-15.1973

>  <SCORE.INTRA.DIHEDRAL.0>
22.5778

>  <SCORE.INTRA.POLAR>
0

>  <SCORE.INTRA.POLAR.0>
0

>  <SCORE.INTRA.REPUL>
0

>  <SCORE.INTRA.REPUL.0>
0

>  <SCORE.INTRA.SOLV>
1.51672

>  <SCORE.INTRA.SOLV.lig_0>
-102.332

>  <SCORE.INTRA.VDW>
2.53443

>  <SCORE.INTRA.VDW.0>
-5.08747

>  <SCORE.INTRA.norm>
-0.107647

>  <SCORE.RESTR>
0

>  <SCORE.RESTR.CAVITY>
0

>  <SCORE.RESTR.norm>
0

>  <SCORE.SYSTEM>
0

>  <SCORE.SYSTEM.CONST>
0

>  <SCORE.SYSTEM.DIHEDRAL>
0

>  <SCORE.SYSTEM.SOLV>
0

>  <SCORE.SYSTEM.norm>
0

>  <SCORE.heavy>
40

>  <SCORE.norm>
-0.228095

>  <RMSD>
9.333

$$$$
2g5q_lig
 OpenBabel11021811433D
libRbt.so/2013.1/901 2013/11/27
 40 42  0  0  0  0  0  0  0  0999 V2000
    1.7241  -14.2426   15.1803 C   0  0  2  0  0  0  0  0  0  0  0  0
    1.2642  -12.9109   15.2486 O   0  0  0  0  0  0  0  0  0  0  0  0
    0.4984  -15.2009   15.2434 C   0  0  1  0  0  0  0  0  0  0  0  0
   -0.2149  -15.1426   16.6295 C   0  0  2  0  0  0  0  0  0  0  0  0
    0.8194  -15.5455   17.7124 C   0  0  2  0  0  0  0  0  0  0  0  0
    0.1927  -15.5264   19.0052 O   0  0  0  0  0  0  0  0  0  0  0  0
    2.0272  -14.5250   17.6490 C   0  0  2  0  0  0  0  0  0  0  0  0
    2.6537  -14.5590   16.2965 O   0  0  0  0  0  0  0  0  0  0  0  0
    3.1175  -14.8369   18.6685 C   0  0  0  0  0  0  0  0  0  0  0  0
    2.6710  -14.5607   20.0707 N   0  0  0  0  0  0  0  0  0  0  0  0
    4.9770  -10.6318   14.9353 C   0  0  2  0  0  0  0  0  0  0  0  0
    5.9040   -9.5134   14.8112 N   0  0  0  0  0  0  0  0  0  0  0  0
    4.0065  -10.6817   13.6817 C   0  0  0  0  0  0  0  0  0  0  0  0
    3.0050  -11.8963   13.8085 C   0  0  2  0  0  0  0  0  0  0  0  0
    2.1083  -11.9385   12.6219 N   0  0  0  0  0  0  0  0  0  0  0  0
    2.1793  -11.7612   15.1494 C   0  0  2  0  0  0  0  0  0  0  0  0
    3.1783  -11.7105   16.3727 C   0  0  2  0  0  0  0  0  0  0  0  0
    2.4288  -11.5817   17.5850 O   0  0  0  0  0  0  0  0  0  0  0  0
    4.1577  -10.4830   16.2340 C   0  0  1  0  0  0  0  0  0  0  0  0
    5.0846  -10.4459   17.3555 O   0  0  0  0  0  0  0  0  0  0  0  0
    6.0599   -9.4498   17.5418 C   0  0  2  0  0  0  0  0  0  0  0  0
    6.9820   -9.9104   18.7211 C   0  0  2  0  0  0  0  0  0  0  0  0
    7.5804  -11.1241   18.3966 O   0  0  0  0  0  0  0  0  0  0  0  0
    6.1706  -10.0243   20.0669 C   0  0  1  0  0  0  0  0  0  0  0  0
    7.0464  -10.4606   21.2040 N   0  0  0  0  0  0  0  0  0  0  0  0
    5.5152   -8.6190   20.3718 C   0  0  2  0  0  0  0  0  0  0  0  0
    4.7688   -8.6579   21.5898 O   0  0  0  0  0  0  0  0  0  0  0  0
    4.6076   -8.2181   19.1601 C   0  0  2  0  0  0  0  0  0  0  0  0
    5.4004   -8.1769   17.8835 O   0  0  0  0  0  0  0  0  0  0  0  0
    3.9714   -6.8735   19.3625 C   0  0  0  0  0  0  0  0  0  0  0  0
    3.1050   -6.5359   18.2669 O   0  0  0  0  0  0  0  0  0  0  0  0
   -0.4249  -14.8419   14.1585 O   0  0  0  0  0  0  0  0  0  0  0  0
   -1.2797  -16.0165   16.6339 O   0  0  0  0  0  0  0  0  0  0  0  0
    7.4971   -7.2289   10.6612 N   0  0  0  0  0  0  0  0  0  0  0  0
    5.5425   -8.1981   14.5553 C   0  0  0  0  0  0  0  0  0  0  0  0
    4.3853   -7.8259   14.3952 O   0  0  0  0  0  0  0  0  0  0  0  0
    6.7649   -7.2546   14.4772 C   0  0  1  0  0  0  0  0  0  0  0  0
    7.4976   -7.4491   13.1343 C   0  0  0  0  0  0  0  0  0  0  0  0
    6.7311   -7.0005   11.8847 C   0  0  0  0  0  0  0  0  0  0  0  0
    6.3184   -5.8882   14.6285 O   0  0  0  0  0  0  0  0  0  0  0  0
  1  2  1  1  0  0  0
  1  3  1  0  0  0  0
  1  8  1  0  0  0  0
  3  4  1  0  0  0  0
  3 32  1  6  0  0  0
  4  5  1  0  0  0  0
  4 33  1  6  0  0  0
  5  6  1  1  0  0  0
  5  7  1  0  0  0  0
  7  8  1  0  0  0  0
  7  9  1  1  0  0  0
  9 10  1  0  0  0  0
 11 12  1  6  0  0  0
 11 13  1  0  0  0  0
 11 19  1  0  0  0  0
 12 35  1  0  0  0  0
 13 14  1  0  0  0  0
 14 15  1  6  0  0  0
 14 16  1  0  0  0  0
 16  2  1  1  0  0  0
 16 17  1  0  0  0  0
 17 18  1  1  0  0  0
 17 19  1  0  0  0  0
 19 20  1  1  0  0  0
 21 20  1  1  0  0  0
 21 22  1  0  0  0  0
 21 29  1  0  0  0  0
 22 23  1  6  0  0  0
 22 24  1  0  0  0  0
 24 25  1  1  0  0  0
 24 26  1  0  0  0  0
 26 27  1  1  0  0  0
 26 28  1  0  0  0  0
 28 29  1  0  0  0  0
 28 30  1  1  0  0  0
 30 31  1  0  0  0  0
 34 39  1  0  0  0  0
 35 36  2  0  0  0  0
 37 35  1  6  0  0  0
 37 38  1  0  0  0  0
 37 40  1  0  0  0  0
 38 39  1  0  0  0  0
M  END
>  <CHROM.1>
-177.09300694,-70.06814011,51.70412058,55.15882267,62.37932407,-170.86179388
-178.00025708,75.76073045,67.42046370,-179.67582177,3.86953197,-10.93553426
16.55517120,2.90397621,0.90737627,1.72640553

>  <Name>
2g5q_lig

>  <RI>
2.90231e+07

>  <Rbt.Current_Directory>
/home/itssahil/PROJECTS/Mol_Feturizer/New_Systems/rnas/2g5q

>  <Rbt.Executable>
rbdock ($Id: //depot/dev/client3/rdock/2013.1/src/exe/rbdock.cxx#4 $)

>  <Rbt.Library>
libRbt.so (2013.1, Build901 2013/11/27)

>  <Rbt.Parameter_File>
/export/apps/rDock/src/rDock_2013.1_src/data/scripts/dock_solv.prm

>  <Rbt.Receptor>
prm/pocket_docking_6.prm

>  <SCORE>
-16.6745

>  <SCORE.INTER>
-7.80586

>  <SCORE.INTER.CONST>
1

>  <SCORE.INTER.POLAR>
-1.36762

>  <SCORE.INTER.ROT>
10

>  <SCORE.INTER.SOLV>
14.6638

>  <SCORE.INTER.VDW>
-15.7998

>  <SCORE.INTER.norm>
-0.195147

>  <SCORE.INTRA>
-8.87252

>  <SCORE.INTRA.DIHEDRAL>
-20.2733

>  <SCORE.INTRA.DIHEDRAL.0>
22.5778

>  <SCORE.INTRA.POLAR>
0

>  <SCORE.INTRA.POLAR.0>
0

>  <SCORE.INTRA.REPUL>
0

>  <SCORE.INTRA.REPUL.0>
0

>  <SCORE.INTRA.SOLV>
1.4106

>  <SCORE.INTRA.SOLV.lig_0>
-102.332

>  <SCORE.INTRA.VDW>
0.558843

>  <SCORE.INTRA.VDW.0>
-5.08747

>  <SCORE.INTRA.norm>
-0.221813

>  <SCORE.RESTR>
0.00390584

>  <SCORE.RESTR.CAVITY>
0.00390584

>  <SCORE.RESTR.norm>
9.76459e-05

>  <SCORE.SYSTEM>
0

>  <SCORE.SYSTEM.CONST>
0

>  <SCORE.SYSTEM.DIHEDRAL>
0

>  <SCORE.SYSTEM.SOLV>
0

>  <SCORE.SYSTEM.norm>
0

>  <SCORE.heavy>
40

>  <SCORE.norm>
-0.416862

>  <RMSD>
9.392

$$$$
2g5q_lig
 OpenBabel11021811433D
libRbt.so/2013.1/901 2013/11/27
 40 42  0  0  0  0  0  0  0  0999 V2000
    6.4520   -3.6892   27.0880 C   0  0  2  0  0  0  0  0  0  0  0  0
    5.2120   -4.0405   26.5149 O   0  0  0  0  0  0  0  0  0  0  0  0
    6.4191   -2.1799   27.4696 C   0  0  1  0  0  0  0  0  0  0  0  0
    6.3380   -1.2630   26.2101 C   0  0  2  0  0  0  0  0  0  0  0  0
    7.5828   -1.5527   25.3317 C   0  0  2  0  0  0  0  0  0  0  0  0
    7.5567   -0.7085   24.1693 O   0  0  0  0  0  0  0  0  0  0  0  0
    7.5588   -3.0822   24.9264 C   0  0  2  0  0  0  0  0  0  0  0  0
    7.5785   -3.9347   26.1494 O   0  0  0  0  0  0  0  0  0  0  0  0
    8.7529   -3.4837   24.0670 C   0  0  0  0  0  0  0  0  0  0  0  0
    8.9173   -2.5868   22.8795 N   0  0  0  0  0  0  0  0  0  0  0  0
    2.5619   -3.0537   23.1861 C   0  0  2  0  0  0  0  0  0  0  0  0
    1.9907   -2.3696   22.0322 N   0  0  0  0  0  0  0  0  0  0  0  0
    2.6134   -2.0755   24.4337 C   0  0  0  0  0  0  0  0  0  0  0  0
    3.2250   -2.8149   25.6882 C   0  0  2  0  0  0  0  0  0  0  0  0
    3.2573   -1.8906   26.8538 N   0  0  0  0  0  0  0  0  0  0  0  0
    4.6710   -3.3457   25.3343 C   0  0  2  0  0  0  0  0  0  0  0  0
    4.5798   -4.3113   24.0868 C   0  0  2  0  0  0  0  0  0  0  0  0
    5.8909   -4.7856   23.7643 O   0  0  0  0  0  0  0  0  0  0  0  0
    3.9818   -3.5498   22.8429 C   0  0  1  0  0  0  0  0  0  0  0  0
    3.8875   -4.4446   21.6989 O   0  0  0  0  0  0  0  0  0  0  0  0
    4.9595   -5.2075   21.2019 C   0  0  2  0  0  0  0  0  0  0  0  0
    4.5901   -5.6418   19.7432 C   0  0  2  0  0  0  0  0  0  0  0  0
    4.3911   -4.5106   18.9576 O   0  0  0  0  0  0  0  0  0  0  0  0
    3.3153   -6.5677   19.7307 C   0  0  1  0  0  0  0  0  0  0  0  0
    2.9559   -6.9930   18.3377 N   0  0  0  0  0  0  0  0  0  0  0  0
    3.6060   -7.8250   20.6429 C   0  0  2  0  0  0  0  0  0  0  0  0
    2.4836   -8.7092   20.6653 O   0  0  0  0  0  0  0  0  0  0  0  0
    3.9657   -7.3246   22.0827 C   0  0  2  0  0  0  0  0  0  0  0  0
    5.1485   -6.3973   22.0509 O   0  0  0  0  0  0  0  0  0  0  0  0
    4.2868   -8.4654   23.0041 C   0  0  0  0  0  0  0  0  0  0  0  0
    3.1056   -9.2097   23.3441 O   0  0  0  0  0  0  0  0  0  0  0  0
    5.2744   -1.9539   28.3622 O   0  0  0  0  0  0  0  0  0  0  0  0
    6.3252    0.0568   26.6043 O   0  0  0  0  0  0  0  0  0  0  0  0
    3.3377   -0.6681   20.7012 N   0  0  0  0  0  0  0  0  0  0  0  0
    0.6342   -2.2382   21.7697 C   0  0  0  0  0  0  0  0  0  0  0  0
   -0.2485   -2.6966   22.4866 O   0  0  0  0  0  0  0  0  0  0  0  0
    0.3589   -1.4627   20.4608 C   0  0  1  0  0  0  0  0  0  0  0  0
    0.9404   -0.0377   20.5584 C   0  0  0  0  0  0  0  0  0  0  0  0
    2.3532    0.1467   19.9923 C   0  0  0  0  0  0  0  0  0  0  0  0
    0.9424   -2.1835   19.3520 O   0  0  0  0  0  0  0  0  0  0  0  0
  1  2  1  6  0  0  0
  1  3  1  0  0  0  0
  1  8  1  0  0  0  0
  3  4  1  0  0  0  0
  3 32  1  1  0  0  0
  4  5  1  0  0  0  0
  4 33  1  1  0  0  0
  5  6  1  6  0  0  0
  5  7  1  0  0  0  0
  7  8  1  0  0  0  0
  7  9  1  6  0  0  0
  9 10  1  0  0  0  0
 11 12  1  6  0  0  0
 11 13  1  0  0  0  0
 11 19  1  0  0  0  0
 12 35  1  0  0  0  0
 13 14  1  0  0  0  0
 14 15  1  1  0  0  0
 14 16  1  0  0  0  0
 16  2  1  1  0  0  0
 16 17  1  0  0  0  0
 17 18  1  6  0  0  0
 17 19  1  0  0  0  0
 19 20  1  6  0  0  0
 21 20  1  1  0  0  0
 21 22  1  0  0  0  0
 21 29  1  0  0  0  0
 22 23  1  6  0  0  0
 22 24  1  0  0  0  0
 24 25  1  6  0  0  0
 24 26  1  0  0  0  0
 26 27  1  1  0  0  0
 26 28  1  0  0  0  0
 28 29  1  0  0  0  0
 28 30  1  1  0  0  0
 30 31  1  0  0  0  0
 34 39  1  0  0  0  0
 35 36  2  0  0  0  0
 37 35  1  1  0  0  0
 37 38  1  0  0  0  0
 37 40  1  0  0  0  0
 38 39  1  0  0  0  0
M  END
>  <CHROM.1>
56.74813617,-52.29611791,-84.19467489,-125.10166868,-172.35864615,-161.72888086
-71.72878031,-60.78329050,94.04906351,-61.88060595,4.30315530,-3.69420923
23.12588652,-0.75558234,0.79836521,-2.71406340

>  <Name>
2g5q_lig

>  <RI>
224

>  <Rbt.Current_Directory>
/home/itssahil/PROJECTS/Mol_Feturizer/New_Systems/rnas/2g5q

>  <Rbt.Executable>
rbdock ($Id: //depot/dev/client3/rdock/2013.1/src/exe/rbdock.cxx#4 $)

>  <Rbt.Library>
libRbt.so (2013.1, Build901 2013/11/27)

>  <Rbt.Parameter_File>
/export/apps/rDock/src/rDock_2013.1_src/data/scripts/dock_solv.prm

>  <Rbt.Receptor>
prm/blind_docking_60.prm

>  <SCORE>
21.2986

>  <SCORE.INTER>
-4.04132

>  <SCORE.INTER.CONST>
1

>  <SCORE.INTER.POLAR>
-0.487695

>  <SCORE.INTER.ROT>
10

>  <SCORE.INTER.SOLV>
32.2218

>  <SCORE.INTER.VDW>
-22.0758

>  <SCORE.INTER.norm>
-0.101033

>  <SCORE.INTRA>
4.68514

>  <SCORE.INTRA.DIHEDRAL>
-8.59929

>  <SCORE.INTRA.DIHEDRAL.0>
22.5778

>  <SCORE.INTRA.POLAR>
0

>  <SCORE.INTRA.POLAR.0>
0

>  <SCORE.INTRA.REPUL>
0.00436883

>  <SCORE.INTRA.REPUL.0>
0

>  <SCORE.INTRA.SOLV>
10.8964

>  <SCORE.INTRA.SOLV.lig_0>
-102.332

>  <SCORE.INTRA.VDW>
3.51473

>  <SCORE.INTRA.VDW.0>
-5.08747

>  <SCORE.INTRA.norm>
0.117129

>  <SCORE.RESTR>
20.6548

>  <SCORE.RESTR.CAVITY>
20.6548

>  <SCORE.RESTR.norm>
0.51637

>  <SCORE.SYSTEM>
0

>  <SCORE.SYSTEM.CONST>
0

>  <SCORE.SYSTEM.DIHEDRAL>
0

>  <SCORE.SYSTEM.SOLV>
0

>  <SCORE.SYSTEM.norm>
0

>  <SCORE.heavy>
40

>  <SCORE.norm>
0.532466

>  <RMSD>
9.477

$$$$
2g5q_lig
 OpenBabel11021811433D
libRbt.so/2013.1/901 2013/11/27
 40 42  0  0  0  0  0  0  0  0999 V2000
    8.2633   -6.1287   13.3327 C   0  0  2  0  0  0  0  0  0  0  0  0
    8.3158   -7.5173   13.0906 O   0  0  0  0  0  0  0  0  0  0  0  0
    6.9114   -5.7912   14.0279 C   0  0  1  0  0  0  0  0  0  0  0  0
    5.6945   -6.0326   13.0821 C   0  0  2  0  0  0  0  0  0  0  0  0
    5.8787   -5.1321   11.8331 C   0  0  2  0  0  0  0  0  0  0  0  0
    4.7629   -5.3090   10.9454 O   0  0  0  0  0  0  0  0  0  0  0  0
    7.2375   -5.5333   11.1283 C   0  0  2  0  0  0  0  0  0  0  0  0
    8.3764   -5.3482   12.0725 O   0  0  0  0  0  0  0  0  0  0  0  0
    7.5284   -4.6959    9.8874 C   0  0  0  0  0  0  0  0  0  0  0  0
    6.4276   -4.7880    8.8768 N   0  0  0  0  0  0  0  0  0  0  0  0
    5.8802  -10.8591   11.6845 C   0  0  2  0  0  0  0  0  0  0  0  0
    4.7406  -11.6297   11.2014 N   0  0  0  0  0  0  0  0  0  0  0  0
    5.5498  -10.2181   13.0972 C   0  0  0  0  0  0  0  0  0  0  0  0
    6.7845   -9.3882   13.6276 C   0  0  2  0  0  0  0  0  0  0  0  0
    6.4660   -8.8018   14.9575 N   0  0  0  0  0  0  0  0  0  0  0  0
    7.1560   -8.2664   12.5780 C   0  0  2  0  0  0  0  0  0  0  0  0
    7.4737   -8.9418   11.1852 C   0  0  2  0  0  0  0  0  0  0  0  0
    7.8036   -7.9238   10.2350 O   0  0  0  0  0  0  0  0  0  0  0  0
    6.2242   -9.7514   10.6673 C   0  0  1  0  0  0  0  0  0  0  0  0
    6.5237  -10.3825    9.3905 O   0  0  0  0  0  0  0  0  0  0  0  0
    7.4008   -9.8463    8.4306 C   0  0  2  0  0  0  0  0  0  0  0  0
    7.5706  -10.9169    7.2999 C   0  0  2  0  0  0  0  0  0  0  0  0
    6.3313  -11.1907    6.7292 O   0  0  0  0  0  0  0  0  0  0  0  0
    8.2374  -12.2315    7.8564 C   0  0  1  0  0  0  0  0  0  0  0  0
    8.4086  -13.2617    6.7796 N   0  0  0  0  0  0  0  0  0  0  0  0
    9.6324  -11.8492    8.4930 C   0  0  2  0  0  0  0  0  0  0  0  0
   10.2911  -13.0070    9.0105 O   0  0  0  0  0  0  0  0  0  0  0  0
    9.3941  -10.7810    9.6131 C   0  0  2  0  0  0  0  0  0  0  0  0
    8.7033   -9.5656    9.0604 O   0  0  0  0  0  0  0  0  0  0  0  0
   10.6824  -10.3426   10.2470 C   0  0  0  0  0  0  0  0  0  0  0  0
   11.3793   -9.4010    9.4148 O   0  0  0  0  0  0  0  0  0  0  0  0
    6.8030   -6.6044   15.2465 O   0  0  0  0  0  0  0  0  0  0  0  0
    4.5300   -5.7065   13.7416 O   0  0  0  0  0  0  0  0  0  0  0  0
    0.9497  -13.1821   13.2587 N   0  0  0  0  0  0  0  0  0  0  0  0
    3.4095  -11.2609   11.3361 C   0  0  0  0  0  0  0  0  0  0  0  0
    3.0377  -10.2331   11.8919 O   0  0  0  0  0  0  0  0  0  0  0  0
    2.4440  -12.3003   10.7215 C   0  0  1  0  0  0  0  0  0  0  0  0
    2.5869  -13.6510   11.4519 C   0  0  0  0  0  0  0  0  0  0  0  0
    2.3093  -13.6270   12.9595 C   0  0  0  0  0  0  0  0  0  0  0  0
    1.0902  -11.8028   10.8164 O   0  0  0  0  0  0  0  0  0  0  0  0
  1  2  1  6  0  0  0
  1  3  1  0  0  0  0
  1  8  1  0  0  0  0
  3  4  1  0  0  0  0
  3 32  1  1  0  0  0
  4  5  1  0  0  0  0
  4 33  1  1  0  0  0
  5  6  1  6  0  0  0
  5  7  1  0  0  0  0
  7  8  1  0  0  0  0
  7  9  1  6  0  0  0
  9 10  1  0  0  0  0
 11 12  1  6  0  0  0
 11 13  1  0  0  0  0
 11 19  1  0  0  0  0
 12 35  1  0  0  0  0
 13 14  1  0  0  0  0
 14 15  1  1  0  0  0
 14 16  1  0  0  0  0
 16  2  1  1  0  0  0
 16 17  1  0  0  0  0
 17 18  1  6  0  0  0
 17 19  1  0  0  0  0
 19 20  1  6  0  0  0
 21 20  1  1  0  0  0
 21 22  1  0  0  0  0
 21 29  1  0  0  0  0
 22 23  1  1  0  0  0
 22 24  1  0  0  0  0
 24 25  1  6  0  0  0
 24 26  1  0  0  0  0
 26 27  1  1  0  0  0
 26 28  1  0  0  0  0
 28 29  1  0  0  0  0
 28 30  1  6  0  0  0
 30 31  1  0  0  0  0
 34 39  1  0  0  0  0
 35 36  2  0  0  0  0
 37 35  1  1  0  0  0
 37 38  1  0  0  0  0
 37 40  1  0  0  0  0
 38 39  1  0  0  0  0
M  END
>  <CHROM.1>
42.72112929,-57.41961231,39.27131746,-120.54480539,-150.96080888,173.12834593
78.29115953,62.08732955,58.85061710,59.88179803,6.48863888,-9.30747549,11.02595969
1.24165997,0.52562099,0.52415079

>  <Name>
2g5q_lig

>  <RI>
0

>  <Rbt.Current_Directory>
/home/itssahil/PROJECTS/Mol_Feturizer/New_Systems/rnas/2g5q

>  <Rbt.Executable>
rbdock ($Id: //depot/dev/client3/rdock/2013.1/src/exe/rbdock.cxx#4 $)

>  <Rbt.Library>
libRbt.so (2013.1, Build901 2013/11/27)

>  <Rbt.Parameter_File>
/export/apps/rDock/src/rDock_2013.1_src/data/scripts/dock_solv.prm

>  <Rbt.Receptor>
prm/blind_docking_20.prm

>  <SCORE>
39.0048

>  <SCORE.INTER>
6.39448

>  <SCORE.INTER.CONST>
1

>  <SCORE.INTER.POLAR>
-0.253925

>  <SCORE.INTER.ROT>
10

>  <SCORE.INTER.SOLV>
23.6501

>  <SCORE.INTER.VDW>
-13.0406

>  <SCORE.INTER.norm>
0.159862

>  <SCORE.INTRA>
13.6958

>  <SCORE.INTRA.DIHEDRAL>
-8.05489

>  <SCORE.INTRA.DIHEDRAL.0>
22.5778

>  <SCORE.INTRA.POLAR>
0

>  <SCORE.INTRA.POLAR.0>
0

>  <SCORE.INTRA.REPUL>
0

>  <SCORE.INTRA.REPUL.0>
0

>  <SCORE.INTRA.SOLV>
8.86636

>  <SCORE.INTRA.SOLV.lig_0>
-102.332

>  <SCORE.INTRA.VDW>
13.29

>  <SCORE.INTRA.VDW.0>
-5.08747

>  <SCORE.INTRA.norm>
0.342394

>  <SCORE.RESTR>
18.9146

>  <SCORE.RESTR.CAVITY>
18.9146

>  <SCORE.RESTR.norm>
0.472865

>  <SCORE.SYSTEM>
0

>  <SCORE.SYSTEM.CONST>
0

>  <SCORE.SYSTEM.DIHEDRAL>
0

>  <SCORE.SYSTEM.SOLV>
0

>  <SCORE.SYSTEM.norm>
0

>  <SCORE.heavy>
40

>  <SCORE.norm>
0.975121

>  <RMSD>
9.482

$$$$
2g5q_lig
 OpenBabel11021811433D
libRbt.so/2013.1/901 2013/11/27
 40 42  0  0  0  0  0  0  0  0999 V2000
    6.9903   -3.6489   25.5858 C   0  0  2  0  0  0  0  0  0  0  0  0
    6.2359   -2.4692   25.7552 O   0  0  0  0  0  0  0  0  0  0  0  0
    7.8242   -3.9011   26.8764 C   0  0  1  0  0  0  0  0  0  0  0  0
    8.9173   -2.8080   27.0858 C   0  0  2  0  0  0  0  0  0  0  0  0
    9.8514   -2.8283   25.8481 C   0  0  2  0  0  0  0  0  0  0  0  0
   10.8887   -1.8480   26.0137 O   0  0  0  0  0  0  0  0  0  0  0  0
    8.9792   -2.5242   24.5633 C   0  0  2  0  0  0  0  0  0  0  0  0
    7.9070   -3.5502   24.4196 O   0  0  0  0  0  0  0  0  0  0  0  0
    9.7992   -2.5332   23.2776 C   0  0  0  0  0  0  0  0  0  0  0  0
   10.9708   -1.6038   23.3520 N   0  0  0  0  0  0  0  0  0  0  0  0
    2.3072   -2.7126   23.8623 C   0  0  2  0  0  0  0  0  0  0  0  0
    1.1540   -2.3935   23.0291 N   0  0  0  0  0  0  0  0  0  0  0  0
    2.5867   -1.5343   24.8866 C   0  0  0  0  0  0  0  0  0  0  0  0
    3.8310   -1.8790   25.7963 C   0  0  2  0  0  0  0  0  0  0  0  0
    4.0756   -0.7716   26.7595 N   0  0  0  0  0  0  0  0  0  0  0  0
    5.0954   -2.1382   24.8841 C   0  0  2  0  0  0  0  0  0  0  0  0
    4.7778   -3.3131   23.8763 C   0  0  2  0  0  0  0  0  0  0  0  0
    5.9217   -3.5417   23.0473 O   0  0  0  0  0  0  0  0  0  0  0  0
    3.5435   -2.9422   22.9685 C   0  0  1  0  0  0  0  0  0  0  0  0
    3.2455   -4.0309   22.0498 O   0  0  0  0  0  0  0  0  0  0  0  0
    4.0855   -4.4252   20.9928 C   0  0  2  0  0  0  0  0  0  0  0  0
    3.1725   -4.9975   19.8561 C   0  0  2  0  0  0  0  0  0  0  0  0
    2.2852   -4.0128   19.4325 O   0  0  0  0  0  0  0  0  0  0  0  0
    2.3994   -6.2824   20.3398 C   0  0  1  0  0  0  0  0  0  0  0  0
    1.5253   -6.8409   19.2561 N   0  0  0  0  0  0  0  0  0  0  0  0
    3.4619   -7.3533   20.8104 C   0  0  2  0  0  0  0  0  0  0  0  0
    2.8181   -8.5489   21.2554 O   0  0  0  0  0  0  0  0  0  0  0  0
    4.3382   -6.7221   21.9446 C   0  0  2  0  0  0  0  0  0  0  0  0
    5.0138   -5.4666   21.4679 O   0  0  0  0  0  0  0  0  0  0  0  0
    5.3963   -7.6728   22.4243 C   0  0  0  0  0  0  0  0  0  0  0  0
    4.8155   -8.8760   22.9534 O   0  0  0  0  0  0  0  0  0  0  0  0
    6.9025   -3.9524   28.0192 O   0  0  0  0  0  0  0  0  0  0  0  0
    9.6309   -3.0871   28.2305 O   0  0  0  0  0  0  0  0  0  0  0  0
    2.1529   -0.8206   21.0410 N   0  0  0  0  0  0  0  0  0  0  0  0
    0.2127   -1.4120   23.3062 C   0  0  0  0  0  0  0  0  0  0  0  0
    0.2427   -0.6978   24.3024 O   0  0  0  0  0  0  0  0  0  0  0  0
   -0.8903   -1.3303   22.2259 C   0  0  1  0  0  0  0  0  0  0  0  0
   -0.3247   -0.6936   20.9403 C   0  0  0  0  0  0  0  0  0  0  0  0
    0.9524   -1.3341   20.3844 C   0  0  0  0  0  0  0  0  0  0  0  0
   -1.3961   -2.6589   21.9646 O   0  0  0  0  0  0  0  0  0  0  0  0
  1  2  1  1  0  0  0
  1  3  1  0  0  0  0
  1  8  1  0  0  0  0
  3  4  1  0  0  0  0
  3 32  1  1  0  0  0
  4  5  1  0  0  0  0
  4 33  1  1  0  0  0
  5  6  1  1  0  0  0
  5  7  1  0  0  0  0
  7  8  1  0  0  0  0
  7  9  1  6  0  0  0
  9 10  1  0  0  0  0
 11 12  1  6  0  0  0
 11 13  1  0  0  0  0
 11 19  1  0  0  0  0
 12 35  1  0  0  0  0
 13 14  1  0  0  0  0
 14 15  1  1  0  0  0
 14 16  1  0  0  0  0
 16  2  1  1  0  0  0
 16 17  1  0  0  0  0
 17 18  1  6  0  0  0
 17 19  1  0  0  0  0
 19 20  1  6  0  0  0
 21 20  1  1  0  0  0
 21 22  1  0  0  0  0
 21 29  1  0  0  0  0
 22 23  1  1  0  0  0
 22 24  1  0  0  0  0
 24 25  1  6  0  0  0
 24 26  1  0  0  0  0
 26 27  1  1  0  0  0
 26 28  1  0  0  0  0
 28 29  1  0  0  0  0
 28 30  1  6  0  0  0
 30 31  1  0  0  0  0
 34 39  1  0  0  0  0
 35 36  2  0  0  0  0
 37 35  1  1  0  0  0
 37 38  1  0  0  0  0
 37 40  1  0  0  0  0
 38 39  1  0  0  0  0
M  END
>  <CHROM.1>
-163.77452451,-54.40151950,-16.59124311,125.50973844,173.00676189,-149.84569637
-60.09416062,-72.98840107,52.72854414,-83.72494278,4.56618562,-3.52985095
23.38870470,-0.37087522,0.41595968,-2.54506585

>  <Name>
2g5q_lig

>  <RI>
224

>  <Rbt.Current_Directory>
/home/itssahil/PROJECTS/Mol_Feturizer/New_Systems/rnas/2g5q

>  <Rbt.Executable>
rbdock ($Id: //depot/dev/client3/rdock/2013.1/src/exe/rbdock.cxx#4 $)

>  <Rbt.Library>
libRbt.so (2013.1, Build901 2013/11/27)

>  <Rbt.Parameter_File>
/export/apps/rDock/src/rDock_2013.1_src/data/scripts/dock_solv.prm

>  <Rbt.Receptor>
prm/blind_docking_60.prm

>  <SCORE>
21.6891

>  <SCORE.INTER>
-4.56367

>  <SCORE.INTER.CONST>
1

>  <SCORE.INTER.POLAR>
-0.394666

>  <SCORE.INTER.ROT>
10

>  <SCORE.INTER.SOLV>
25.8929

>  <SCORE.INTER.VDW>
-20.6245

>  <SCORE.INTER.norm>
-0.114092

>  <SCORE.INTRA>
6.76687

>  <SCORE.INTRA.DIHEDRAL>
-6.29729

>  <SCORE.INTRA.DIHEDRAL.0>
22.5778

>  <SCORE.INTRA.POLAR>
0

>  <SCORE.INTRA.POLAR.0>
0

>  <SCORE.INTRA.REPUL>
0

>  <SCORE.INTRA.REPUL.0>
0

>  <SCORE.INTRA.SOLV>
7.68036

>  <SCORE.INTRA.SOLV.lig_0>
-102.332

>  <SCORE.INTRA.VDW>
6.07534

>  <SCORE.INTRA.VDW.0>
-5.08747

>  <SCORE.INTRA.norm>
0.169172

>  <SCORE.RESTR>
19.4859

>  <SCORE.RESTR.CAVITY>
19.4859

>  <SCORE.RESTR.norm>
0.487148

>  <SCORE.SYSTEM>
0

>  <SCORE.SYSTEM.CONST>
0

>  <SCORE.SYSTEM.DIHEDRAL>
0

>  <SCORE.SYSTEM.SOLV>
0

>  <SCORE.SYSTEM.norm>
0

>  <SCORE.heavy>
40

>  <SCORE.norm>
0.542228

>  <RMSD>
9.634

$$$$
2g5q_lig
 OpenBabel11021811433D
libRbt.so/2013.1/901 2013/11/27
 40 42  0  0  0  0  0  0  0  0999 V2000
    5.2643   -5.7437   13.0945 C   0  0  2  0  0  0  0  0  0  0  0  0
    5.0363   -6.6063   12.0021 O   0  0  0  0  0  0  0  0  0  0  0  0
    6.5747   -4.9429   12.8369 C   0  0  1  0  0  0  0  0  0  0  0  0
    7.8321   -5.8661   12.8456 C   0  0  2  0  0  0  0  0  0  0  0  0
    7.9050   -6.5549   14.2331 C   0  0  2  0  0  0  0  0  0  0  0  0
    9.0664   -7.3989   14.2893 O   0  0  0  0  0  0  0  0  0  0  0  0
    6.5796   -7.3940   14.4408 C   0  0  2  0  0  0  0  0  0  0  0  0
    5.3910   -6.4968   14.3701 O   0  0  0  0  0  0  0  0  0  0  0  0
    6.5376   -8.1072   15.7881 C   0  0  0  0  0  0  0  0  0  0  0  0
    7.8131   -8.8359   16.0780 N   0  0  0  0  0  0  0  0  0  0  0  0
    5.8204  -10.6761   10.6239 C   0  0  2  0  0  0  0  0  0  0  0  0
    6.3841  -12.0175   10.5304 N   0  0  0  0  0  0  0  0  0  0  0  0
    6.9651   -9.5883   10.4749 C   0  0  0  0  0  0  0  0  0  0  0  0
    6.3578   -8.1334   10.5684 C   0  0  2  0  0  0  0  0  0  0  0  0
    7.4394   -7.1231   10.4161 N   0  0  0  0  0  0  0  0  0  0  0  0
    5.6026   -7.9648   11.9466 C   0  0  2  0  0  0  0  0  0  0  0  0
    4.4752   -9.0661   12.0602 C   0  0  2  0  0  0  0  0  0  0  0  0
    3.7971   -8.9154   13.3114 O   0  0  0  0  0  0  0  0  0  0  0  0
    5.1042  -10.5093   11.9801 C   0  0  1  0  0  0  0  0  0  0  0  0
    4.0624  -11.5214   12.0726 O   0  0  0  0  0  0  0  0  0  0  0  0
    2.8915  -11.5236   11.2934 C   0  0  2  0  0  0  0  0  0  0  0  0
    1.6901  -11.2179   12.2506 C   0  0  2  0  0  0  0  0  0  0  0  0
    1.8761   -9.9748   12.8476 O   0  0  0  0  0  0  0  0  0  0  0  0
    1.5273  -12.3465   13.3379 C   0  0  1  0  0  0  0  0  0  0  0  0
    0.3757  -12.0649   14.2572 N   0  0  0  0  0  0  0  0  0  0  0  0
    1.3265  -13.7266   12.5947 C   0  0  2  0  0  0  0  0  0  0  0  0
    1.1651  -14.7922   13.5330 O   0  0  0  0  0  0  0  0  0  0  0  0
    2.5576  -13.9732   11.6587 C   0  0  2  0  0  0  0  0  0  0  0  0
    2.7189  -12.8494   10.6733 O   0  0  0  0  0  0  0  0  0  0  0  0
    2.4246  -15.2565   10.8912 C   0  0  0  0  0  0  0  0  0  0  0  0
    1.2454  -15.2537   10.0702 O   0  0  0  0  0  0  0  0  0  0  0  0
    6.4427   -4.2420   11.5526 O   0  0  0  0  0  0  0  0  0  0  0  0
    8.9599   -5.1062   12.6269 O   0  0  0  0  0  0  0  0  0  0  0  0
   10.2057  -12.0830    9.3366 N   0  0  0  0  0  0  0  0  0  0  0  0
    7.2841  -12.4423    9.5632 C   0  0  0  0  0  0  0  0  0  0  0  0
    7.7062  -11.7274    8.6609 O   0  0  0  0  0  0  0  0  0  0  0  0
    7.6835  -13.9256    9.7395 C   0  0  1  0  0  0  0  0  0  0  0  0
    8.9889  -14.2163    8.9717 C   0  0  0  0  0  0  0  0  0  0  0  0
   10.2490  -13.5329    9.5151 C   0  0  0  0  0  0  0  0  0  0  0  0
    7.8390  -14.2095   11.1482 O   0  0  0  0  0  0  0  0  0  0  0  0
  1  2  1  6  0  0  0
  1  3  1  0  0  0  0
  1  8  1  0  0  0  0
  3  4  1  0  0  0  0
  3 32  1  6  0  0  0
  4  5  1  0  0  0  0
  4 33  1  1  0  0  0
  5  6  1  6  0  0  0
  5  7  1  0  0  0  0
  7  8  1  0  0  0  0
  7  9  1  1  0  0  0
  9 10  1  0  0  0  0
 11 12  1  1  0  0  0
 11 13  1  0  0  0  0
 11 19  1  0  0  0  0
 12 35  1  0  0  0  0
 13 14  1  0  0  0  0
 14 15  1  1  0  0  0
 14 16  1  0  0  0  0
 16  2  1  6  0  0  0
 16 17  1  0  0  0  0
 17 18  1  1  0  0  0
 17 19  1  0  0  0  0
 19 20  1  6  0  0  0
 21 20  1  1  0  0  0
 21 22  1  0  0  0  0
 21 29  1  0  0  0  0
 22 23  1  1  0  0  0
 22 24  1  0  0  0  0
 24 25  1  1  0  0  0
 24 26  1  0  0  0  0
 26 27  1  1  0  0  0
 26 28  1  0  0  0  0
 28 29  1  0  0  0  0
 28 30  1  6  0  0  0
 30 31  1  0  0  0  0
 34 39  1  0  0  0  0
 35 36  2  0  0  0  0
 37 35  1  1  0  0  0
 37 38  1  0  0  0  0
 37 40  1  0  0  0  0
 38 39  1  0  0  0  0
M  END
>  <CHROM.1>
88.09669728,-47.70213046,-46.94348637,-128.09080416,-69.39185866,-111.07454244
59.55680395,-161.37997815,67.46868732,-67.87570921,5.46705800,-10.19510896
11.96904737,1.03595489,0.37104645,0.43310828

>  <Name>
2g5q_lig

>  <RI>
0

>  <Rbt.Current_Directory>
/home/itssahil/PROJECTS/Mol_Feturizer/New_Systems/rnas/2g5q

>  <Rbt.Executable>
rbdock ($Id: //depot/dev/client3/rdock/2013.1/src/exe/rbdock.cxx#4 $)

>  <Rbt.Library>
libRbt.so (2013.1, Build901 2013/11/27)

>  <Rbt.Parameter_File>
/export/apps/rDock/src/rDock_2013.1_src/data/scripts/dock_solv.prm

>  <Rbt.Receptor>
prm/blind_docking_20.prm

>  <SCORE>
34.2574

>  <SCORE.INTER>
0.480552

>  <SCORE.INTER.CONST>
1

>  <SCORE.INTER.POLAR>
-1.04854

>  <SCORE.INTER.ROT>
10

>  <SCORE.INTER.SOLV>
16.553

>  <SCORE.INTER.VDW>
-11.9688

>  <SCORE.INTER.norm>
0.0120138

>  <SCORE.INTRA>
9.56498

>  <SCORE.INTRA.DIHEDRAL>
-2.92647

>  <SCORE.INTRA.DIHEDRAL.0>
22.5778

>  <SCORE.INTRA.POLAR>
0

>  <SCORE.INTRA.POLAR.0>
0

>  <SCORE.INTRA.REPUL>
0

>  <SCORE.INTRA.REPUL.0>
0

>  <SCORE.INTRA.SOLV>
9.85324

>  <SCORE.INTRA.SOLV.lig_0>
-102.332

>  <SCORE.INTRA.VDW>
6.1016

>  <SCORE.INTRA.VDW.0>
-5.08747

>  <SCORE.INTRA.norm>
0.239125

>  <SCORE.RESTR>
24.2118

>  <SCORE.RESTR.CAVITY>
24.2118

>  <SCORE.RESTR.norm>
0.605296

>  <SCORE.SYSTEM>
0

>  <SCORE.SYSTEM.CONST>
0

>  <SCORE.SYSTEM.DIHEDRAL>
0

>  <SCORE.SYSTEM.SOLV>
0

>  <SCORE.SYSTEM.norm>
0

>  <SCORE.heavy>
40

>  <SCORE.norm>
0.856434

>  <RMSD>
9.676

$$$$
2g5q_lig
 OpenBabel11021811433D
libRbt.so/2013.1/901 2013/11/27
 40 42  0  0  0  0  0  0  0  0999 V2000
   -7.4292  -11.6839   15.0251 C   0  0  2  0  0  0  0  0  0  0  0  0
   -7.1500  -10.5513   15.8181 O   0  0  0  0  0  0  0  0  0  0  0  0
   -8.6965  -11.3961   14.1673 C   0  0  1  0  0  0  0  0  0  0  0  0
   -9.9761  -11.2560   15.0486 C   0  0  2  0  0  0  0  0  0  0  0  0
  -10.1630  -12.5839   15.8276 C   0  0  2  0  0  0  0  0  0  0  0  0
  -11.3480  -12.5030   16.6361 O   0  0  0  0  0  0  0  0  0  0  0  0
   -8.8782  -12.8203   16.7206 C   0  0  2  0  0  0  0  0  0  0  0  0
   -7.6637  -12.8922   15.8589 O   0  0  0  0  0  0  0  0  0  0  0  0
   -8.9484  -14.1141   17.5249 C   0  0  0  0  0  0  0  0  0  0  0  0
   -7.7663  -14.2784   18.4288 N   0  0  0  0  0  0  0  0  0  0  0  0
   -3.2779   -8.9996   17.1129 C   0  0  2  0  0  0  0  0  0  0  0  0
   -2.0403   -8.8292   17.8646 N   0  0  0  0  0  0  0  0  0  0  0  0
   -4.5301   -8.8146   18.0688 C   0  0  0  0  0  0  0  0  0  0  0  0
   -5.8734   -8.9914   17.2570 C   0  0  2  0  0  0  0  0  0  0  0  0
   -7.0395   -8.8045   18.1620 N   0  0  0  0  0  0  0  0  0  0  0  0
   -5.8950  -10.4181   16.5773 C   0  0  2  0  0  0  0  0  0  0  0  0
   -4.6328  -10.5663   15.6383 C   0  0  2  0  0  0  0  0  0  0  0  0
   -4.6512  -11.8611   15.0290 O   0  0  0  0  0  0  0  0  0  0  0  0
   -3.3042  -10.4020   16.4706 C   0  0  1  0  0  0  0  0  0  0  0  0
   -2.1436  -10.5266   15.6012 O   0  0  0  0  0  0  0  0  0  0  0  0
   -0.8140  -10.5620   16.0585 C   0  0  2  0  0  0  0  0  0  0  0  0
    0.1153  -10.5896   14.7980 C   0  0  2  0  0  0  0  0  0  0  0  0
   -0.1066   -9.4495   14.0317 O   0  0  0  0  0  0  0  0  0  0  0  0
   -0.1187  -11.8948   13.9469 C   0  0  1  0  0  0  0  0  0  0  0  0
    0.7704  -11.9328   12.7393 N   0  0  0  0  0  0  0  0  0  0  0  0
    0.1434  -13.1465   14.8754 C   0  0  2  0  0  0  0  0  0  0  0  0
   -0.0470  -14.3652   14.1539 O   0  0  0  0  0  0  0  0  0  0  0  0
   -0.8145  -13.0605   16.1113 C   0  0  2  0  0  0  0  0  0  0  0  0
   -0.6064  -11.7772   16.8661 O   0  0  0  0  0  0  0  0  0  0  0  0
   -0.6023  -14.2043   17.0602 C   0  0  0  0  0  0  0  0  0  0  0  0
   -0.8735  -15.4651   16.4265 O   0  0  0  0  0  0  0  0  0  0  0  0
   -8.4575  -10.1758   13.3851 O   0  0  0  0  0  0  0  0  0  0  0  0
  -11.0652  -11.0162   14.2401 O   0  0  0  0  0  0  0  0  0  0  0  0
    1.1833  -10.8286   21.2630 N   0  0  0  0  0  0  0  0  0  0  0  0
   -1.7063   -7.7101   18.6145 C   0  0  0  0  0  0  0  0  0  0  0  0
   -2.4233   -6.7215   18.7238 O   0  0  0  0  0  0  0  0  0  0  0  0
   -0.3191   -7.8412   19.2844 C   0  0  1  0  0  0  0  0  0  0  0  0
   -0.2038   -9.2028   19.9991 C   0  0  0  0  0  0  0  0  0  0  0  0
    1.1516   -9.5024   20.6499 C   0  0  0  0  0  0  0  0  0  0  0  0
    0.7081   -7.6980   18.2776 O   0  0  0  0  0  0  0  0  0  0  0  0
  1  2  1  1  0  0  0
  1  3  1  0  0  0  0
  1  8  1  0  0  0  0
  3  4  1  0  0  0  0
  3 32  1  1  0  0  0
  4  5  1  0  0  0  0
  4 33  1  6  0  0  0
  5  6  1  1  0  0  0
  5  7  1  0  0  0  0
  7  8  1  0  0  0  0
  7  9  1  6  0  0  0
  9 10  1  0  0  0  0
 11 12  1  1  0  0  0
 11 13  1  0  0  0  0
 11 19  1  0  0  0  0
 12 35  1  0  0  0  0
 13 14  1  0  0  0  0
 14 15  1  1  0  0  0
 14 16  1  0  0  0  0
 16  2  1  6  0  0  0
 16 17  1  0  0  0  0
 17 18  1  1  0  0  0
 17 19  1  0  0  0  0
 19 20  1  6  0  0  0
 21 20  1  6  0  0  0
 21 22  1  0  0  0  0
 21 29  1  0  0  0  0
 22 23  1  6  0  0  0
 22 24  1  0  0  0  0
 24 25  1  6  0  0  0
 24 26  1  0  0  0  0
 26 27  1  6  0  0  0
 26 28  1  0  0  0  0
 28 29  1  0  0  0  0
 28 30  1  1  0  0  0
 30 31  1  0  0  0  0
 34 39  1  0  0  0  0
 35 36  2  0  0  0  0
 37 35  1  6  0  0  0
 37 38  1  0  0  0  0
 37 40  1  0  0  0  0
 38 39  1  0  0  0  0
M  END
>  <CHROM.1>
-169.85900093,-176.35566906,-55.93255029,175.80469722,67.20655623,-175.64993131
-61.32121863,-48.58742488,176.96051613,-178.09187854,-3.89988478,-11.00435591
16.48404934,-2.92250378,-0.03410835,0.68337298

>  <Name>
2g5q_lig

>  <RI>
224

>  <Rbt.Current_Directory>
/home/itssahil/PROJECTS/Mol_Feturizer/New_Systems/rnas/2g5q

>  <Rbt.Executable>
rbdock ($Id: //depot/dev/client3/rdock/2013.1/src/exe/rbdock.cxx#4 $)

>  <Rbt.Library>
libRbt.so (2013.1, Build901 2013/11/27)

>  <Rbt.Parameter_File>
/export/apps/rDock/src/rDock_2013.1_src/data/scripts/dock_solv.prm

>  <Rbt.Receptor>
prm/pocket_docking_8.prm

>  <SCORE>
-12.5407

>  <SCORE.INTER>
-3.18998

>  <SCORE.INTER.CONST>
1

>  <SCORE.INTER.POLAR>
-0.0888798

>  <SCORE.INTER.ROT>
10

>  <SCORE.INTER.SOLV>
14.8207

>  <SCORE.INTER.VDW>
-17.0373

>  <SCORE.INTER.norm>
-0.0797494

>  <SCORE.INTRA>
-9.35071

>  <SCORE.INTRA.DIHEDRAL>
-20.5642

>  <SCORE.INTRA.DIHEDRAL.0>
22.5778

>  <SCORE.INTRA.POLAR>
0

>  <SCORE.INTRA.POLAR.0>
0

>  <SCORE.INTRA.REPUL>
0

>  <SCORE.INTRA.REPUL.0>
0

>  <SCORE.INTRA.SOLV>
-1.62738

>  <SCORE.INTRA.SOLV.lig_0>
-102.332

>  <SCORE.INTRA.VDW>
1.74509

>  <SCORE.INTRA.VDW.0>
-5.08747

>  <SCORE.INTRA.norm>
-0.233768

>  <SCORE.RESTR>
0

>  <SCORE.RESTR.CAVITY>
0

>  <SCORE.RESTR.norm>
0

>  <SCORE.SYSTEM>
0

>  <SCORE.SYSTEM.CONST>
0

>  <SCORE.SYSTEM.DIHEDRAL>
0

>  <SCORE.SYSTEM.SOLV>
0

>  <SCORE.SYSTEM.norm>
0

>  <SCORE.heavy>
40

>  <SCORE.norm>
-0.313517

>  <RMSD>
9.688

$$$$
2g5q_lig
 OpenBabel11021811433D
libRbt.so/2013.1/901 2013/11/27
 40 42  0  0  0  0  0  0  0  0999 V2000
   -7.7673  -12.2561   16.1435 C   0  0  2  0  0  0  0  0  0  0  0  0
   -7.2118  -10.9644   16.0318 O   0  0  0  0  0  0  0  0  0  0  0  0
   -9.1218  -12.2882   15.3760 C   0  0  1  0  0  0  0  0  0  0  0  0
  -10.1954  -11.3807   16.0523 C   0  0  2  0  0  0  0  0  0  0  0  0
  -10.4038  -11.8921   17.5014 C   0  0  2  0  0  0  0  0  0  0  0  0
  -11.4055  -11.0939   18.1525 O   0  0  0  0  0  0  0  0  0  0  0  0
   -9.0196  -11.8028   18.2630 C   0  0  2  0  0  0  0  0  0  0  0  0
   -7.9975  -12.6325   17.5632 O   0  0  0  0  0  0  0  0  0  0  0  0
   -9.1053  -12.2972   19.7031 C   0  0  0  0  0  0  0  0  0  0  0  0
   -9.5313  -13.7305   19.7805 N   0  0  0  0  0  0  0  0  0  0  0  0
   -3.0699   -9.6302   16.4087 C   0  0  2  0  0  0  0  0  0  0  0  0
   -1.7895   -9.2509   16.9939 N   0  0  0  0  0  0  0  0  0  0  0  0
   -4.2245   -8.6932   16.9606 C   0  0  0  0  0  0  0  0  0  0  0  0
   -5.6125   -9.0961   16.3237 C   0  0  2  0  0  0  0  0  0  0  0  0
   -6.6845   -8.2030   16.8407 N   0  0  0  0  0  0  0  0  0  0  0  0
   -5.9208  -10.6122   16.6468 C   0  0  2  0  0  0  0  0  0  0  0  0
   -4.7490  -11.5122   16.0866 C   0  0  2  0  0  0  0  0  0  0  0  0
   -5.0271  -12.8837   16.3859 O   0  0  0  0  0  0  0  0  0  0  0  0
   -3.3767  -11.1040   16.7463 C   0  0  1  0  0  0  0  0  0  0  0  0
   -2.2974  -11.9261   16.2194 O   0  0  0  0  0  0  0  0  0  0  0  0
   -1.0472  -12.0840   16.8442 C   0  0  2  0  0  0  0  0  0  0  0  0
   -0.1610  -12.9691   15.9037 C   0  0  2  0  0  0  0  0  0  0  0  0
   -0.0146  -12.3371   14.6727 O   0  0  0  0  0  0  0  0  0  0  0  0
   -0.7784  -14.4081   15.7284 C   0  0  1  0  0  0  0  0  0  0  0  0
    0.0660  -15.2653   14.8326 N   0  0  0  0  0  0  0  0  0  0  0  0
   -0.9223  -15.0642   17.1589 C   0  0  2  0  0  0  0  0  0  0  0  0
   -1.4726  -16.3795   17.0635 O   0  0  0  0  0  0  0  0  0  0  0  0
   -1.8176  -14.1350   18.0464 C   0  0  2  0  0  0  0  0  0  0  0  0
   -1.2308  -12.7544   18.1438 O   0  0  0  0  0  0  0  0  0  0  0  0
   -1.9759  -14.6782   19.4369 C   0  0  0  0  0  0  0  0  0  0  0  0
   -0.7028  -14.8303   20.0857 O   0  0  0  0  0  0  0  0  0  0  0  0
   -8.8765  -11.8722   13.9886 O   0  0  0  0  0  0  0  0  0  0  0  0
  -11.3732  -11.4572   15.3421 O   0  0  0  0  0  0  0  0  0  0  0  0
    3.5774   -8.9824   18.1019 N   0  0  0  0  0  0  0  0  0  0  0  0
   -0.5765   -9.2276   16.3200 C   0  0  0  0  0  0  0  0  0  0  0  0
   -0.4435   -9.5357   15.1407 O   0  0  0  0  0  0  0  0  0  0  0  0
    0.5945   -8.7857   17.2278 C   0  0  1  0  0  0  0  0  0  0  0  0
    1.8528   -8.5216   16.3762 C   0  0  0  0  0  0  0  0  0  0  0  0
    3.0778   -8.0035   17.1385 C   0  0  0  0  0  0  0  0  0  0  0  0
    0.2064   -7.5996   17.9570 O   0  0  0  0  0  0  0  0  0  0  0  0
  1  2  1  1  0  0  0
  1  3  1  0  0  0  0
  1  8  1  0  0  0  0
  3  4  1  0  0  0  0
  3 32  1  6  0  0  0
  4  5  1  0  0  0  0
  4 33  1  6  0  0  0
  5  6  1  1  0  0  0
  5  7  1  0  0  0  0
  7  8  1  0  0  0  0
  7  9  1  1  0  0  0
  9 10  1  0  0  0  0
 11 12  1  1  0  0  0
 11 13  1  0  0  0  0
 11 19  1  0  0  0  0
 12 35  1  0  0  0  0
 13 14  1  0  0  0  0
 14 15  1  1  0  0  0
 14 16  1  0  0  0  0
 16  2  1  6  0  0  0
 16 17  1  0  0  0  0
 17 18  1  1  0  0  0
 17 19  1  0  0  0  0
 19 20  1  6  0  0  0
 21 20  1  6  0  0  0
 21 22  1  0  0  0  0
 21 29  1  0  0  0  0
 22 23  1  6  0  0  0
 22 24  1  0  0  0  0
 24 25  1  6  0  0  0
 24 26  1  0  0  0  0
 26 27  1  6  0  0  0
 26 28  1  0  0  0  0
 28 29  1  0  0  0  0
 28 30  1  1  0  0  0
 30 31  1  0  0  0  0
 34 39  1  0  0  0  0
 35 36  2  0  0  0  0
 37 35  1  6  0  0  0
 37 38  1  0  0  0  0
 37 40  1  0  0  0  0
 38 39  1  0  0  0  0
M  END
>  <CHROM.1>
-179.64735967,60.32376232,-141.02375144,-179.91353783,79.13547910,-176.47778308
58.82612297,-169.34443157,176.92753039,64.23400997,-3.93038428,-11.57552931
16.89105320,-3.06546871,-0.00698093,-0.14528460

>  <Name>
2g5q_lig

>  <RI>
2.90231e+07

>  <Rbt.Current_Directory>
/home/itssahil/PROJECTS/Mol_Feturizer/New_Systems/rnas/2g5q

>  <Rbt.Executable>
rbdock ($Id: //depot/dev/client3/rdock/2013.1/src/exe/rbdock.cxx#4 $)

>  <Rbt.Library>
libRbt.so (2013.1, Build901 2013/11/27)

>  <Rbt.Parameter_File>
/export/apps/rDock/src/rDock_2013.1_src/data/scripts/dock_solv.prm

>  <Rbt.Receptor>
prm/pocket_docking_6.prm

>  <SCORE>
-9.77989

>  <SCORE.INTER>
-1.90908

>  <SCORE.INTER.CONST>
1

>  <SCORE.INTER.POLAR>
-0.418032

>  <SCORE.INTER.ROT>
10

>  <SCORE.INTER.SOLV>
10.9516

>  <SCORE.INTER.VDW>
-13.7965

>  <SCORE.INTER.norm>
-0.0477269

>  <SCORE.INTRA>
-7.87081

>  <SCORE.INTRA.DIHEDRAL>
-18.9278

>  <SCORE.INTRA.DIHEDRAL.0>
22.5778

>  <SCORE.INTRA.POLAR>
0

>  <SCORE.INTRA.POLAR.0>
0

>  <SCORE.INTRA.REPUL>
0

>  <SCORE.INTRA.REPUL.0>
0

>  <SCORE.INTRA.SOLV>
2.02507

>  <SCORE.INTRA.SOLV.lig_0>
-102.332

>  <SCORE.INTRA.VDW>
0.580541

>  <SCORE.INTRA.VDW.0>
-5.08747

>  <SCORE.INTRA.norm>
-0.19677

>  <SCORE.RESTR>
0

>  <SCORE.RESTR.CAVITY>
0

>  <SCORE.RESTR.norm>
0

>  <SCORE.SYSTEM>
0

>  <SCORE.SYSTEM.CONST>
0

>  <SCORE.SYSTEM.DIHEDRAL>
0

>  <SCORE.SYSTEM.SOLV>
0

>  <SCORE.SYSTEM.norm>
0

>  <SCORE.heavy>
40

>  <SCORE.norm>
-0.244497

>  <RMSD>
9.876

$$$$
2g5q_lig
 OpenBabel11021811433D
libRbt.so/2013.1/901 2013/11/27
 40 42  0  0  0  0  0  0  0  0999 V2000
    7.9310   -2.9790   26.7471 C   0  0  2  0  0  0  0  0  0  0  0  0
    6.8213   -3.6569   26.2009 O   0  0  0  0  0  0  0  0  0  0  0  0
    8.0467   -1.5803   26.0725 C   0  0  1  0  0  0  0  0  0  0  0  0
    8.4092   -1.6924   24.5594 C   0  0  2  0  0  0  0  0  0  0  0  0
    9.7642   -2.4386   24.4504 C   0  0  2  0  0  0  0  0  0  0  0  0
   10.1453   -2.5420   23.0689 O   0  0  0  0  0  0  0  0  0  0  0  0
    9.5965   -3.8698   25.1044 C   0  0  2  0  0  0  0  0  0  0  0  0
    9.1937   -3.7339   26.5335 O   0  0  0  0  0  0  0  0  0  0  0  0
   10.8809   -4.6909   25.0650 C   0  0  0  0  0  0  0  0  0  0  0  0
   11.4758   -4.7376   23.6918 N   0  0  0  0  0  0  0  0  0  0  0  0
    2.9445   -2.8481   24.3586 C   0  0  2  0  0  0  0  0  0  0  0  0
    1.8645   -2.1623   23.6593 N   0  0  0  0  0  0  0  0  0  0  0  0
    3.3481   -2.0457   25.6660 C   0  0  0  0  0  0  0  0  0  0  0  0
    4.5131   -2.7891   26.4306 C   0  0  2  0  0  0  0  0  0  0  0  0
    4.8744   -2.0327   27.6600 N   0  0  0  0  0  0  0  0  0  0  0  0
    5.7563   -2.9510   25.4683 C   0  0  2  0  0  0  0  0  0  0  0  0
    5.3150   -3.7496   24.1782 C   0  0  2  0  0  0  0  0  0  0  0  0
    6.4406   -3.8895   23.3056 O   0  0  0  0  0  0  0  0  0  0  0  0
    4.1633   -2.9832   23.4225 C   0  0  1  0  0  0  0  0  0  0  0  0
    3.7503   -3.7270   22.2416 O   0  0  0  0  0  0  0  0  0  0  0  0
    4.6395   -4.2425   21.2815 C   0  0  2  0  0  0  0  0  0  0  0  0
    3.9117   -4.1968   19.8953 C   0  0  2  0  0  0  0  0  0  0  0  0
    3.5740   -2.8817   19.5907 O   0  0  0  0  0  0  0  0  0  0  0  0
    2.6360   -5.1215   19.8916 C   0  0  1  0  0  0  0  0  0  0  0  0
    1.9343   -5.0881   18.5662 N   0  0  0  0  0  0  0  0  0  0  0  0
    3.0883   -6.5928   20.2492 C   0  0  2  0  0  0  0  0  0  0  0  0
    1.9704   -7.4829   20.2541 O   0  0  0  0  0  0  0  0  0  0  0  0
    3.8047   -6.5703   21.6417 C   0  0  2  0  0  0  0  0  0  0  0  0
    4.9806   -5.6339   21.6276 O   0  0  0  0  0  0  0  0  0  0  0  0
    4.2932   -7.9333   22.0380 C   0  0  0  0  0  0  0  0  0  0  0  0
    5.1238   -7.8698   23.2089 O   0  0  0  0  0  0  0  0  0  0  0  0
    6.7742   -0.8705   26.2598 O   0  0  0  0  0  0  0  0  0  0  0  0
    8.5114   -0.4299   24.0180 O   0  0  0  0  0  0  0  0  0  0  0  0
    1.9073   -0.3687   19.6351 N   0  0  0  0  0  0  0  0  0  0  0  0
    0.6649   -2.7431   23.2726 C   0  0  0  0  0  0  0  0  0  0  0  0
    0.3785   -3.9184   23.4728 O   0  0  0  0  0  0  0  0  0  0  0  0
   -0.2659   -1.7462   22.5444 C   0  0  1  0  0  0  0  0  0  0  0  0
    0.2557   -1.4820   21.1174 C   0  0  0  0  0  0  0  0  0  0  0  0
    1.5520   -0.6693   21.0205 C   0  0  0  0  0  0  0  0  0  0  0  0
   -1.6060   -2.2869   22.5125 O   0  0  0  0  0  0  0  0  0  0  0  0
  1  2  1  6  0  0  0
  1  3  1  0  0  0  0
  1  8  1  0  0  0  0
  3  4  1  0  0  0  0
  3 32  1  6  0  0  0
  4  5  1  0  0  0  0
  4 33  1  1  0  0  0
  5  6  1  6  0  0  0
  5  7  1  0  0  0  0
  7  8  1  0  0  0  0
  7  9  1  1  0  0  0
  9 10  1  0  0  0  0
 11 12  1  6  0  0  0
 11 13  1  0  0  0  0
 11 19  1  0  0  0  0
 12 35  1  0  0  0  0
 13 14  1  0  0  0  0
 14 15  1  1  0  0  0
 14 16  1  0  0  0  0
 16  2  1  1  0  0  0
 16 17  1  0  0  0  0
 17 18  1  6  0  0  0
 17 19  1  0  0  0  0
 19 20  1  6  0  0  0
 21 20  1  1  0  0  0
 21 22  1  0  0  0  0
 21 29  1  0  0  0  0
 22 23  1  1  0  0  0
 22 24  1  0  0  0  0
 24 25  1  6  0  0  0
 24 26  1  0  0  0  0
 26 27  1  1  0  0  0
 26 28  1  0  0  0  0
 28 29  1  0  0  0  0
 28 30  1  6  0  0  0
 30 31  1  0  0  0  0
 34 39  1  0  0  0  0
 35 36  2  0  0  0  0
 37 35  1  6  0  0  0
 37 38  1  0  0  0  0
 37 40  1  0  0  0  0
 38 39  1  0  0  0  0
M  END
>  <CHROM.1>
-17.82411910,-50.97818474,-127.05107258,-101.95088937,-168.50450277,-147.63456670
171.09065698,74.15954232,-70.19407964,-175.01348048,4.84784898,-3.49500402
23.24213650,0.38085701,-0.33484040,0.72777984

>  <Name>
2g5q_lig

>  <RI>
224

>  <Rbt.Current_Directory>
/home/itssahil/PROJECTS/Mol_Feturizer/New_Systems/rnas/2g5q

>  <Rbt.Executable>
rbdock ($Id: //depot/dev/client3/rdock/2013.1/src/exe/rbdock.cxx#4 $)

>  <Rbt.Library>
libRbt.so (2013.1, Build901 2013/11/27)

>  <Rbt.Parameter_File>
/export/apps/rDock/src/rDock_2013.1_src/data/scripts/dock_solv.prm

>  <Rbt.Receptor>
prm/blind_docking_60.prm

>  <SCORE>
22.6732

>  <SCORE.INTER>
4.48372

>  <SCORE.INTER.CONST>
1

>  <SCORE.INTER.POLAR>
-0.00132056

>  <SCORE.INTER.ROT>
10

>  <SCORE.INTER.SOLV>
34.2559

>  <SCORE.INTER.VDW>
-18.6918

>  <SCORE.INTER.norm>
0.112093

>  <SCORE.INTRA>
4.96225

>  <SCORE.INTRA.DIHEDRAL>
-3.23455

>  <SCORE.INTRA.DIHEDRAL.0>
22.5778

>  <SCORE.INTRA.POLAR>
0

>  <SCORE.INTRA.POLAR.0>
0

>  <SCORE.INTRA.REPUL>
0

>  <SCORE.INTRA.REPUL.0>
0

>  <SCORE.INTRA.SOLV>
4.70046

>  <SCORE.INTRA.SOLV.lig_0>
-102.332

>  <SCORE.INTRA.VDW>
4.2293

>  <SCORE.INTRA.VDW.0>
-5.08747

>  <SCORE.INTRA.norm>
0.124056

>  <SCORE.RESTR>
13.2273

>  <SCORE.RESTR.CAVITY>
13.2273

>  <SCORE.RESTR.norm>
0.330682

>  <SCORE.SYSTEM>
0

>  <SCORE.SYSTEM.CONST>
0

>  <SCORE.SYSTEM.DIHEDRAL>
0

>  <SCORE.SYSTEM.SOLV>
0

>  <SCORE.SYSTEM.norm>
0

>  <SCORE.heavy>
40

>  <SCORE.norm>
0.566831

>  <RMSD>
9.893

$$$$
2g5q_lig
 OpenBabel11021811433D
libRbt.so/2013.1/901 2013/11/27
 40 42  0  0  0  0  0  0  0  0999 V2000
    7.7818   -2.5596   25.4679 C   0  0  2  0  0  0  0  0  0  0  0  0
    6.9637   -3.3617   24.6452 O   0  0  0  0  0  0  0  0  0  0  0  0
    8.4906   -1.4921   24.5830 C   0  0  1  0  0  0  0  0  0  0  0  0
    9.5085   -2.1393   23.5937 C   0  0  2  0  0  0  0  0  0  0  0  0
   10.5633   -2.9060   24.4330 C   0  0  2  0  0  0  0  0  0  0  0  0
   11.5350   -3.4990   23.5563 O   0  0  0  0  0  0  0  0  0  0  0  0
    9.8136   -4.0100   25.2835 C   0  0  2  0  0  0  0  0  0  0  0  0
    8.8070   -3.3694   26.1774 O   0  0  0  0  0  0  0  0  0  0  0  0
   10.7595   -4.8206   26.1630 C   0  0  0  0  0  0  0  0  0  0  0  0
   12.0308   -5.1660   25.4515 N   0  0  0  0  0  0  0  0  0  0  0  0
    2.7123   -2.5225   24.0992 C   0  0  2  0  0  0  0  0  0  0  0  0
    1.4670   -2.0086   23.5415 N   0  0  0  0  0  0  0  0  0  0  0  0
    3.6830   -1.3242   24.4701 C   0  0  0  0  0  0  0  0  0  0  0  0
    5.0306   -1.8763   25.0814 C   0  0  2  0  0  0  0  0  0  0  0  0
    5.9272   -0.7428   25.4351 N   0  0  0  0  0  0  0  0  0  0  0  0
    5.7183   -2.8527   24.0461 C   0  0  2  0  0  0  0  0  0  0  0  0
    4.7215   -4.0283   23.6984 C   0  0  2  0  0  0  0  0  0  0  0  0
    5.3438   -4.9075   22.7561 O   0  0  0  0  0  0  0  0  0  0  0  0
    3.3907   -3.4568   23.0759 C   0  0  1  0  0  0  0  0  0  0  0  0
    2.4695   -4.5407   22.7681 O   0  0  0  0  0  0  0  0  0  0  0  0
    1.6979   -4.6126   21.5944 C   0  0  2  0  0  0  0  0  0  0  0  0
    2.3910   -5.6423   20.6392 C   0  0  2  0  0  0  0  0  0  0  0  0
    2.4503   -6.8860   21.2607 O   0  0  0  0  0  0  0  0  0  0  0  0
    3.8289   -5.1522   20.2211 C   0  0  1  0  0  0  0  0  0  0  0  0
    4.4995   -6.1300   19.3021 N   0  0  0  0  0  0  0  0  0  0  0  0
    3.6898   -3.7381   19.5296 C   0  0  2  0  0  0  0  0  0  0  0  0
    4.9662   -3.2430   19.1201 O   0  0  0  0  0  0  0  0  0  0  0  0
    2.9939   -2.7579   20.5334 C   0  0  2  0  0  0  0  0  0  0  0  0
    1.6512   -3.2844   20.9574 O   0  0  0  0  0  0  0  0  0  0  0  0
    2.7974   -1.3954   19.9346 C   0  0  0  0  0  0  0  0  0  0  0  0
    3.5437   -0.3980   20.6511 O   0  0  0  0  0  0  0  0  0  0  0  0
    7.4607   -0.7336   23.8603 O   0  0  0  0  0  0  0  0  0  0  0  0
   10.1136   -1.1519   22.8480 O   0  0  0  0  0  0  0  0  0  0  0  0
    0.6666    0.7871   20.4655 N   0  0  0  0  0  0  0  0  0  0  0  0
    0.2916   -2.7337   23.4042 C   0  0  0  0  0  0  0  0  0  0  0  0
    0.1701   -3.9080   23.7350 O   0  0  0  0  0  0  0  0  0  0  0  0
   -0.8456   -1.8997   22.7703 C   0  0  1  0  0  0  0  0  0  0  0  0
   -0.3549   -1.2439   21.4637 C   0  0  0  0  0  0  0  0  0  0  0  0
    0.6496   -0.0975   21.6287 C   0  0  0  0  0  0  0  0  0  0  0  0
   -1.9808   -2.7593   22.5218 O   0  0  0  0  0  0  0  0  0  0  0  0
  1  2  1  6  0  0  0
  1  3  1  0  0  0  0
  1  8  1  0  0  0  0
  3  4  1  0  0  0  0
  3 32  1  6  0  0  0
  4  5  1  0  0  0  0
  4 33  1  1  0  0  0
  5  6  1  6  0  0  0
  5  7  1  0  0  0  0
  7  8  1  0  0  0  0
  7  9  1  1  0  0  0
  9 10  1  0  0  0  0
 11 12  1  6  0  0  0
 11 13  1  0  0  0  0
 11 19  1  0  0  0  0
 12 35  1  0  0  0  0
 13 14  1  0  0  0  0
 14 15  1  6  0  0  0
 14 16  1  0  0  0  0
 16  2  1  1  0  0  0
 16 17  1  0  0  0  0
 17 18  1  6  0  0  0
 17 19  1  0  0  0  0
 19 20  1  1  0  0  0
 21 20  1  1  0  0  0
 21 22  1  0  0  0  0
 21 29  1  0  0  0  0
 22 23  1  1  0  0  0
 22 24  1  0  0  0  0
 24 25  1  6  0  0  0
 24 26  1  0  0  0  0
 26 27  1  1  0  0  0
 26 28  1  0  0  0  0
 28 29  1  0  0  0  0
 28 30  1  6  0  0  0
 30 31  1  0  0  0  0
 34 39  1  0  0  0  0
 35 36  2  0  0  0  0
 37 35  1  6  0  0  0
 37 38  1  0  0  0  0
 37 40  1  0  0  0  0
 38 39  1  0  0  0  0
M  END
>  <CHROM.1>
-71.50103274,-41.31880598,-163.98432015,-36.27690343,102.29581566,102.44943233
-116.68835355,51.65929974,-71.25269888,-157.72196124,4.69791813,-2.96968116
22.85395989,0.14998112,-0.30495326,0.62680613

>  <Name>
2g5q_lig

>  <RI>
224

>  <Rbt.Current_Directory>
/home/itssahil/PROJECTS/Mol_Feturizer/New_Systems/rnas/2g5q

>  <Rbt.Executable>
rbdock ($Id: //depot/dev/client3/rdock/2013.1/src/exe/rbdock.cxx#4 $)

>  <Rbt.Library>
libRbt.so (2013.1, Build901 2013/11/27)

>  <Rbt.Parameter_File>
/export/apps/rDock/src/rDock_2013.1_src/data/scripts/dock_solv.prm

>  <Rbt.Receptor>
prm/blind_docking_60.prm

>  <SCORE>
74.3784

>  <SCORE.INTER>
42.1653

>  <SCORE.INTER.CONST>
1

>  <SCORE.INTER.POLAR>
-0.816472

>  <SCORE.INTER.ROT>
10

>  <SCORE.INTER.SOLV>
27.2175

>  <SCORE.INTER.VDW>
11.4926

>  <SCORE.INTER.norm>
1.05413

>  <SCORE.INTRA>
16.2485

>  <SCORE.INTRA.DIHEDRAL>
1.60012

>  <SCORE.INTRA.DIHEDRAL.0>
22.5778

>  <SCORE.INTRA.POLAR>
0

>  <SCORE.INTRA.POLAR.0>
0

>  <SCORE.INTRA.REPUL>
0

>  <SCORE.INTRA.REPUL.0>
0

>  <SCORE.INTRA.SOLV>
10.1817

>  <SCORE.INTRA.SOLV.lig_0>
-102.332

>  <SCORE.INTRA.VDW>
10.3576

>  <SCORE.INTRA.VDW.0>
-5.08747

>  <SCORE.INTRA.norm>
0.406212

>  <SCORE.RESTR>
15.9646

>  <SCORE.RESTR.CAVITY>
15.9646

>  <SCORE.RESTR.norm>
0.399115

>  <SCORE.SYSTEM>
0

>  <SCORE.SYSTEM.CONST>
0

>  <SCORE.SYSTEM.DIHEDRAL>
0

>  <SCORE.SYSTEM.SOLV>
0

>  <SCORE.SYSTEM.norm>
0

>  <SCORE.heavy>
40

>  <SCORE.norm>
1.85946

>  <RMSD>
9.895

$$$$
2g5q_lig
 OpenBabel11021811433D
libRbt.so/2013.1/901 2013/11/27
 40 42  0  0  0  0  0  0  0  0999 V2000
    8.5441   -3.5840   24.9997 C   0  0  2  0  0  0  0  0  0  0  0  0
    7.4640   -3.4824   25.9011 O   0  0  0  0  0  0  0  0  0  0  0  0
    9.8754   -3.5648   25.8072 C   0  0  1  0  0  0  0  0  0  0  0  0
   10.1176   -2.1868   26.4971 C   0  0  2  0  0  0  0  0  0  0  0  0
   10.1633   -1.1031   25.3887 C   0  0  2  0  0  0  0  0  0  0  0  0
   10.4085    0.1815   25.9836 O   0  0  0  0  0  0  0  0  0  0  0  0
    8.7802   -1.1210   24.6201 C   0  0  2  0  0  0  0  0  0  0  0  0
    8.5471   -2.4658   24.0200 O   0  0  0  0  0  0  0  0  0  0  0  0
    8.7189   -0.0972   23.4915 C   0  0  0  0  0  0  0  0  0  0  0  0
    7.5131   -0.2881   22.6247 N   0  0  0  0  0  0  0  0  0  0  0  0
    3.2137   -3.5381   24.8964 C   0  0  2  0  0  0  0  0  0  0  0  0
    1.8814   -3.0927   24.5060 N   0  0  0  0  0  0  0  0  0  0  0  0
    3.6726   -2.7989   26.2226 C   0  0  0  0  0  0  0  0  0  0  0  0
    5.1127   -3.2838   26.6532 C   0  0  2  0  0  0  0  0  0  0  0  0
    5.5265   -2.5917   27.9037 N   0  0  0  0  0  0  0  0  0  0  0  0
    6.1344   -3.0102   25.4788 C   0  0  2  0  0  0  0  0  0  0  0  0
    5.6423   -3.7576   24.1765 C   0  0  2  0  0  0  0  0  0  0  0  0
    6.5655   -3.5033   23.1129 O   0  0  0  0  0  0  0  0  0  0  0  0
    4.2112   -3.2480   23.7558 C   0  0  1  0  0  0  0  0  0  0  0  0
    3.7553   -3.9468   22.5633 O   0  0  0  0  0  0  0  0  0  0  0  0
    4.5832   -4.2752   21.4749 C   0  0  2  0  0  0  0  0  0  0  0  0
    3.6530   -4.5741   20.2508 C   0  0  2  0  0  0  0  0  0  0  0  0
    2.8902   -3.4471   19.9605 O   0  0  0  0  0  0  0  0  0  0  0  0
    2.7316   -5.8220   20.5274 C   0  0  1  0  0  0  0  0  0  0  0  0
    1.8397   -6.1193   19.3585 N   0  0  0  0  0  0  0  0  0  0  0  0
    3.6578   -7.0600   20.8546 C   0  0  2  0  0  0  0  0  0  0  0  0
    2.8758   -8.2288   21.1084 O   0  0  0  0  0  0  0  0  0  0  0  0
    4.5580   -6.6988   22.0842 C   0  0  2  0  0  0  0  0  0  0  0  0
    5.3790   -5.4700   21.8084 O   0  0  0  0  0  0  0  0  0  0  0  0
    5.4922   -7.8193   22.4379 C   0  0  0  0  0  0  0  0  0  0  0  0
    4.7689   -9.0021   22.8157 O   0  0  0  0  0  0  0  0  0  0  0  0
    9.8314   -4.6503   26.7961 O   0  0  0  0  0  0  0  0  0  0  0  0
   11.3112   -2.2218   27.1838 O   0  0  0  0  0  0  0  0  0  0  0  0
    0.6551   -2.0475   20.4675 N   0  0  0  0  0  0  0  0  0  0  0  0
    1.6053   -1.9699   23.7383 C   0  0  0  0  0  0  0  0  0  0  0  0
    2.4645   -1.2115   23.3025 O   0  0  0  0  0  0  0  0  0  0  0  0
    0.0895   -1.7711   23.5073 C   0  0  1  0  0  0  0  0  0  0  0  0
   -0.1435   -0.7173   22.4059 C   0  0  0  0  0  0  0  0  0  0  0  0
    0.8010   -0.7917   21.2006 C   0  0  0  0  0  0  0  0  0  0  0  0
   -0.5038   -3.0380   23.1435 O   0  0  0  0  0  0  0  0  0  0  0  0
  1  2  1  1  0  0  0
  1  3  1  0  0  0  0
  1  8  1  0  0  0  0
  3  4  1  0  0  0  0
  3 32  1  1  0  0  0
  4  5  1  0  0  0  0
  4 33  1  6  0  0  0
  5  6  1  1  0  0  0
  5  7  1  0  0  0  0
  7  8  1  0  0  0  0
  7  9  1  6  0  0  0
  9 10  1  0  0  0  0
 11 12  1  6  0  0  0
 11 13  1  0  0  0  0
 11 19  1  0  0  0  0
 12 35  1  0  0  0  0
 13 14  1  0  0  0  0
 14 15  1  1  0  0  0
 14 16  1  0  0  0  0
 16  2  1  1  0  0  0
 16 17  1  0  0  0  0
 17 18  1  6  0  0  0
 17 19  1  0  0  0  0
 19 20  1  6  0  0  0
 21 20  1  1  0  0  0
 21 22  1  0  0  0  0
 21 29  1  0  0  0  0
 22 23  1  1  0  0  0
 22 24  1  0  0  0  0
 24 25  1  6  0  0  0
 24 26  1  0  0  0  0
 26 27  1  1  0  0  0
 26 28  1  0  0  0  0
 28 29  1  0  0  0  0
 28 30  1  6  0  0  0
 30 31  1  0  0  0  0
 34 39  1  0  0  0  0
 35 36  2  0  0  0  0
 37 35  1  6  0  0  0
 37 38  1  0  0  0  0
 37 40  1  0  0  0  0
 38 39  1  0  0  0  0
M  END
>  <CHROM.1>
158.32609577,169.85424456,85.76250021,169.27737073,-158.90210702,-161.77499503
-61.92472133,-167.33121561,40.62279198,63.15884709,5.13828470,-3.45454823
23.57281686,-0.41214207,0.39138835,-2.73709865

>  <Name>
2g5q_lig

>  <RI>
224

>  <Rbt.Current_Directory>
/home/itssahil/PROJECTS/Mol_Feturizer/New_Systems/rnas/2g5q

>  <Rbt.Executable>
rbdock ($Id: //depot/dev/client3/rdock/2013.1/src/exe/rbdock.cxx#4 $)

>  <Rbt.Library>
libRbt.so (2013.1, Build901 2013/11/27)

>  <Rbt.Parameter_File>
/export/apps/rDock/src/rDock_2013.1_src/data/scripts/dock_solv.prm

>  <Rbt.Receptor>
prm/blind_docking_60.prm

>  <SCORE>
25.1552

>  <SCORE.INTER>
5.60231

>  <SCORE.INTER.CONST>
1

>  <SCORE.INTER.POLAR>
-0.725596

>  <SCORE.INTER.ROT>
10

>  <SCORE.INTER.SOLV>
30.7805

>  <SCORE.INTER.VDW>
-14.3733

>  <SCORE.INTER.norm>
0.140058

>  <SCORE.INTRA>
1.52367

>  <SCORE.INTRA.DIHEDRAL>
-13.361

>  <SCORE.INTRA.DIHEDRAL.0>
22.5778

>  <SCORE.INTRA.POLAR>
0

>  <SCORE.INTRA.POLAR.0>
0

>  <SCORE.INTRA.REPUL>
0

>  <SCORE.INTRA.REPUL.0>
0

>  <SCORE.INTRA.SOLV>
6.31168

>  <SCORE.INTRA.SOLV.lig_0>
-102.332

>  <SCORE.INTRA.VDW>
5.0483

>  <SCORE.INTRA.VDW.0>
-5.08747

>  <SCORE.INTRA.norm>
0.0380917

>  <SCORE.RESTR>
18.0292

>  <SCORE.RESTR.CAVITY>
18.0292

>  <SCORE.RESTR.norm>
0.450731

>  <SCORE.SYSTEM>
0

>  <SCORE.SYSTEM.CONST>
0

>  <SCORE.SYSTEM.DIHEDRAL>
0

>  <SCORE.SYSTEM.SOLV>
0

>  <SCORE.SYSTEM.norm>
0

>  <SCORE.heavy>
40

>  <SCORE.norm>
0.628881

>  <RMSD>
9.936

$$$$
2g5q_lig
 OpenBabel11021811433D
libRbt.so/2013.1/901 2013/11/27
 40 42  0  0  0  0  0  0  0  0999 V2000
    8.2851   -2.5170   26.2077 C   0  0  2  0  0  0  0  0  0  0  0  0
    7.1573   -3.3427   26.0183 O   0  0  0  0  0  0  0  0  0  0  0  0
    8.4381   -1.5847   24.9699 C   0  0  1  0  0  0  0  0  0  0  0  0
    8.7971   -2.3848   23.6797 C   0  0  2  0  0  0  0  0  0  0  0  0
   10.1315   -3.1306   23.9402 C   0  0  2  0  0  0  0  0  0  0  0  0
   10.5092   -3.8633   22.7633 O   0  0  0  0  0  0  0  0  0  0  0  0
    9.9255   -4.1000   25.1738 C   0  0  2  0  0  0  0  0  0  0  0  0
    9.5270   -3.3162   26.3779 O   0  0  0  0  0  0  0  0  0  0  0  0
   11.1874   -4.8789   25.5295 C   0  0  0  0  0  0  0  0  0  0  0  0
   12.4016   -4.0030   25.5487 N   0  0  0  0  0  0  0  0  0  0  0  0
    2.9988   -3.2163   24.6887 C   0  0  2  0  0  0  0  0  0  0  0  0
    1.7412   -2.7311   24.1331 N   0  0  0  0  0  0  0  0  0  0  0  0
    3.4274   -2.3302   25.9324 C   0  0  0  0  0  0  0  0  0  0  0  0
    4.7859   -2.8570   26.5418 C   0  0  2  0  0  0  0  0  0  0  0  0
    5.1709   -2.0248   27.7137 N   0  0  0  0  0  0  0  0  0  0  0  0
    5.9069   -2.8359   25.4278 C   0  0  2  0  0  0  0  0  0  0  0  0
    5.4430   -3.7241   24.2061 C   0  0  2  0  0  0  0  0  0  0  0  0
    6.4567   -3.6984   23.1962 O   0  0  0  0  0  0  0  0  0  0  0  0
    4.0948   -3.1722   23.6038 C   0  0  1  0  0  0  0  0  0  0  0  0
    3.6635   -3.9993   22.4867 O   0  0  0  0  0  0  0  0  0  0  0  0
    4.4930   -4.3743   21.4145 C   0  0  2  0  0  0  0  0  0  0  0  0
    3.5678   -4.6663   20.1849 C   0  0  2  0  0  0  0  0  0  0  0  0
    2.8449   -3.5211   19.8648 O   0  0  0  0  0  0  0  0  0  0  0  0
    2.6038   -5.8788   20.4733 C   0  0  1  0  0  0  0  0  0  0  0  0
    1.7164   -6.1694   19.2993 N   0  0  0  0  0  0  0  0  0  0  0  0
    3.4860   -7.1393   20.8343 C   0  0  2  0  0  0  0  0  0  0  0  0
    2.6641   -8.2777   21.1000 O   0  0  0  0  0  0  0  0  0  0  0  0
    4.3831   -6.7839   22.0679 C   0  0  2  0  0  0  0  0  0  0  0  0
    5.2462   -5.5873   21.7796 O   0  0  0  0  0  0  0  0  0  0  0  0
    5.2768   -7.9268   22.4534 C   0  0  0  0  0  0  0  0  0  0  0  0
    4.5153   -9.0409   22.9474 O   0  0  0  0  0  0  0  0  0  0  0  0
    7.1852   -0.8374   24.7967 O   0  0  0  0  0  0  0  0  0  0  0  0
    8.9330   -1.5123   22.6225 O   0  0  0  0  0  0  0  0  0  0  0  0
    1.0659   -0.2117   20.3713 N   0  0  0  0  0  0  0  0  0  0  0  0
    1.5787   -1.5398   23.4398 C   0  0  0  0  0  0  0  0  0  0  0  0
    2.4878   -0.7469   23.2204 O   0  0  0  0  0  0  0  0  0  0  0  0
    0.1172   -1.3144   22.9884 C   0  0  1  0  0  0  0  0  0  0  0  0
   -0.1256   -1.9930   21.6251 C   0  0  0  0  0  0  0  0  0  0  0  0
    0.8835   -1.6539   20.5218 C   0  0  0  0  0  0  0  0  0  0  0  0
   -0.7757   -1.8432   23.9946 O   0  0  0  0  0  0  0  0  0  0  0  0
  1  2  1  6  0  0  0
  1  3  1  0  0  0  0
  1  8  1  0  0  0  0
  3  4  1  0  0  0  0
  3 32  1  6  0  0  0
  4  5  1  0  0  0  0
  4 33  1  6  0  0  0
  5  6  1  6  0  0  0
  5  7  1  0  0  0  0
  7  8  1  0  0  0  0
  7  9  1  1  0  0  0
  9 10  1  0  0  0  0
 11 12  1  6  0  0  0
 11 13  1  0  0  0  0
 11 19  1  0  0  0  0
 12 35  1  0  0  0  0
 13 14  1  0  0  0  0
 14 15  1  1  0  0  0
 14 16  1  0  0  0  0
 16  2  1  1  0  0  0
 16 17  1  0  0  0  0
 17 18  1  6  0  0  0
 17 19  1  0  0  0  0
 19 20  1  6  0  0  0
 21 20  1  1  0  0  0
 21 22  1  0  0  0  0
 21 29  1  0  0  0  0
 22 23  1  1  0  0  0
 22 24  1  0  0  0  0
 24 25  1  6  0  0  0
 24 26  1  0  0  0  0
 26 27  1  1  0  0  0
 26 28  1  0  0  0  0
 28 29  1  0  0  0  0
 28 30  1  6  0  0  0
 30 31  1  0  0  0  0
 34 39  1  0  0  0  0
 35 36  2  0  0  0  0
 37 35  1  1  0  0  0
 37 38  1  0  0  0  0
 37 40  1  0  0  0  0
 38 39  1  0  0  0  0
M  END
>  <CHROM.1>
-40.20802939,45.49878725,70.50474284,-112.90351400,-169.12070992,-154.99114831
-66.63331611,-86.80285838,-51.28591701,-50.95234940,5.07199773,-3.63137883
23.33987733,0.23582478,-0.33160460,0.56397905

>  <Name>
2g5q_lig

>  <RI>
224

>  <Rbt.Current_Directory>
/home/itssahil/PROJECTS/Mol_Feturizer/New_Systems/rnas/2g5q

>  <Rbt.Executable>
rbdock ($Id: //depot/dev/client3/rdock/2013.1/src/exe/rbdock.cxx#4 $)

>  <Rbt.Library>
libRbt.so (2013.1, Build901 2013/11/27)

>  <Rbt.Parameter_File>
/export/apps/rDock/src/rDock_2013.1_src/data/scripts/dock_solv.prm

>  <Rbt.Receptor>
prm/blind_docking_60.prm

>  <SCORE>
12.6767

>  <SCORE.INTER>
-4.3097

>  <SCORE.INTER.CONST>
1

>  <SCORE.INTER.POLAR>
-0.0598283

>  <SCORE.INTER.ROT>
10

>  <SCORE.INTER.SOLV>
23.5747

>  <SCORE.INTER.VDW>
-20.7986

>  <SCORE.INTER.norm>
-0.107743

>  <SCORE.INTRA>
3.74583

>  <SCORE.INTRA.DIHEDRAL>
-7.6106

>  <SCORE.INTRA.DIHEDRAL.0>
22.5778

>  <SCORE.INTRA.POLAR>
0

>  <SCORE.INTRA.POLAR.0>
0

>  <SCORE.INTRA.REPUL>
0

>  <SCORE.INTRA.REPUL.0>
0

>  <SCORE.INTRA.SOLV>
6.18201

>  <SCORE.INTRA.SOLV.lig_0>
-102.332

>  <SCORE.INTRA.VDW>
4.46012

>  <SCORE.INTRA.VDW.0>
-5.08747

>  <SCORE.INTRA.norm>
0.0936458

>  <SCORE.RESTR>
13.2406

>  <SCORE.RESTR.CAVITY>
13.2406

>  <SCORE.RESTR.norm>
0.331014

>  <SCORE.SYSTEM>
0

>  <SCORE.SYSTEM.CONST>
0

>  <SCORE.SYSTEM.DIHEDRAL>
0

>  <SCORE.SYSTEM.SOLV>
0

>  <SCORE.SYSTEM.norm>
0

>  <SCORE.heavy>
40

>  <SCORE.norm>
0.316917

>  <RMSD>
9.990

$$$$
2g5q_lig
 OpenBabel11021811433D
libRbt.so/2013.1/901 2013/11/27
 40 42  0  0  0  0  0  0  0  0999 V2000
    5.1416   -6.5639   20.7784 C   0  0  2  0  0  0  0  0  0  0  0  0
    3.9917   -5.9788   20.2085 O   0  0  0  0  0  0  0  0  0  0  0  0
    4.7099   -7.7971   21.6256 C   0  0  1  0  0  0  0  0  0  0  0  0
    3.8688   -7.3812   22.8718 C   0  0  2  0  0  0  0  0  0  0  0  0
    4.7392   -6.4324   23.7362 C   0  0  2  0  0  0  0  0  0  0  0  0
    4.0058   -6.0442   24.9092 O   0  0  0  0  0  0  0  0  0  0  0  0
    5.1205   -5.1720   22.8588 C   0  0  2  0  0  0  0  0  0  0  0  0
    5.8726   -5.6030   21.6458 O   0  0  0  0  0  0  0  0  0  0  0  0
    5.9935   -4.1724   23.6099 C   0  0  0  0  0  0  0  0  0  0  0  0
    5.2165   -3.4081   24.6365 N   0  0  0  0  0  0  0  0  0  0  0  0
    0.6868   -3.3138   21.2347 C   0  0  2  0  0  0  0  0  0  0  0  0
   -0.3184   -2.5960   22.0093 N   0  0  0  0  0  0  0  0  0  0  0  0
    0.4745   -4.8792   21.3771 C   0  0  0  0  0  0  0  0  0  0  0  0
    1.5572   -5.6607   20.5336 C   0  0  2  0  0  0  0  0  0  0  0  0
    1.3403   -7.1268   20.6666 N   0  0  0  0  0  0  0  0  0  0  0  0
    3.0033   -5.2465   21.0184 C   0  0  2  0  0  0  0  0  0  0  0  0
    3.1752   -3.6832   20.8658 C   0  0  2  0  0  0  0  0  0  0  0  0
    4.4829   -3.3096   21.3113 O   0  0  0  0  0  0  0  0  0  0  0  0
    2.0957   -2.9232   21.7271 C   0  0  1  0  0  0  0  0  0  0  0  0
    2.2485   -1.4838   21.5750 O   0  0  0  0  0  0  0  0  0  0  0  0
    3.0287   -0.8731   20.5768 C   0  0  2  0  0  0  0  0  0  0  0  0
    3.3250    0.5923   21.0434 C   0  0  2  0  0  0  0  0  0  0  0  0
    4.0140    0.5650   22.2521 O   0  0  0  0  0  0  0  0  0  0  0  0
    1.9958    1.4286   21.1714 C   0  0  1  0  0  0  0  0  0  0  0  0
    2.2697    2.8357   21.6136 N   0  0  0  0  0  0  0  0  0  0  0  0
    1.2634    1.4139   19.7711 C   0  0  2  0  0  0  0  0  0  0  0  0
    0.0492    2.1657   19.8228 O   0  0  0  0  0  0  0  0  0  0  0  0
    0.9950   -0.0743   19.3638 C   0  0  2  0  0  0  0  0  0  0  0  0
    2.2769   -0.8576   19.3092 O   0  0  0  0  0  0  0  0  0  0  0  0
    0.3262   -0.1722   18.0234 C   0  0  0  0  0  0  0  0  0  0  0  0
    0.9999    0.6351   17.0440 O   0  0  0  0  0  0  0  0  0  0  0  0
    3.9539   -8.7111   20.7589 O   0  0  0  0  0  0  0  0  0  0  0  0
    3.5265   -8.5060   23.5896 O   0  0  0  0  0  0  0  0  0  0  0  0
   -0.5060    1.2466   22.5636 N   0  0  0  0  0  0  0  0  0  0  0  0
   -0.1028   -1.9996   23.2438 C   0  0  0  0  0  0  0  0  0  0  0  0
    0.9724   -2.0167   23.8329 O   0  0  0  0  0  0  0  0  0  0  0  0
   -1.3760   -1.3241   23.8033 C   0  0  1  0  0  0  0  0  0  0  0  0
   -0.9957   -0.0676   24.6124 C   0  0  0  0  0  0  0  0  0  0  0  0
   -0.0508    0.9161   23.9125 C   0  0  0  0  0  0  0  0  0  0  0  0
   -2.2533   -0.9854   22.7056 O   0  0  0  0  0  0  0  0  0  0  0  0
  1  2  1  1  0  0  0
  1  3  1  0  0  0  0
  1  8  1  0  0  0  0
  3  4  1  0  0  0  0
  3 32  1  6  0  0  0
  4  5  1  0  0  0  0
  4 33  1  1  0  0  0
  5  6  1  1  0  0  0
  5  7  1  0  0  0  0
  7  8  1  0  0  0  0
  7  9  1  1  0  0  0
  9 10  1  0  0  0  0
 11 12  1  1  0  0  0
 11 13  1  0  0  0  0
 11 19  1  0  0  0  0
 12 35  1  0  0  0  0
 13 14  1  0  0  0  0
 14 15  1  1  0  0  0
 14 16  1  0  0  0  0
 16  2  1  6  0  0  0
 16 17  1  0  0  0  0
 17 18  1  1  0  0  0
 17 19  1  0  0  0  0
 19 20  1  6  0  0  0
 21 20  1  1  0  0  0
 21 22  1  0  0  0  0
 21 29  1  0  0  0  0
 22 23  1  1  0  0  0
 22 24  1  0  0  0  0
 24 25  1  6  0  0  0
 24 26  1  0  0  0  0
 26 27  1  1  0  0  0
 26 28  1  0  0  0  0
 28 29  1  0  0  0  0
 28 30  1  6  0  0  0
 30 31  1  0  0  0  0
 34 39  1  0  0  0  0
 35 36  2  0  0  0  0
 37 35  1  6  0  0  0
 37 38  1  0  0  0  0
 37 40  1  0  0  0  0
 38 39  1  0  0  0  0
M  END
>  <CHROM.1>
70.88275375,-73.42557798,102.46962163,-137.60334357,-105.81744408,-160.87213749
48.66842476,-146.53421469,50.17631971,49.71145300,2.29003259,-2.81533942
21.69630049,-0.83305667,0.87298276,-0.76172439

>  <Name>
2g5q_lig

>  <RI>
224

>  <Rbt.Current_Directory>
/home/itssahil/PROJECTS/Mol_Feturizer/New_Systems/rnas/2g5q

>  <Rbt.Executable>
rbdock ($Id: //depot/dev/client3/rdock/2013.1/src/exe/rbdock.cxx#4 $)

>  <Rbt.Library>
libRbt.so (2013.1, Build901 2013/11/27)

>  <Rbt.Parameter_File>
/export/apps/rDock/src/rDock_2013.1_src/data/scripts/dock_solv.prm

>  <Rbt.Receptor>
prm/blind_docking_100.prm

>  <SCORE>
50.0857

>  <SCORE.INTER>
21.252

>  <SCORE.INTER.CONST>
1

>  <SCORE.INTER.POLAR>
0

>  <SCORE.INTER.ROT>
10

>  <SCORE.INTER.SOLV>
20.9918

>  <SCORE.INTER.VDW>
-3.09595

>  <SCORE.INTER.norm>
0.531299

>  <SCORE.INTRA>
10.4072

>  <SCORE.INTRA.DIHEDRAL>
-3.7723

>  <SCORE.INTRA.DIHEDRAL.0>
22.5778

>  <SCORE.INTRA.POLAR>
0

>  <SCORE.INTRA.POLAR.0>
0

>  <SCORE.INTRA.REPUL>
0

>  <SCORE.INTRA.REPUL.0>
0

>  <SCORE.INTRA.SOLV>
14.4845

>  <SCORE.INTRA.SOLV.lig_0>
-102.332

>  <SCORE.INTRA.VDW>
5.05112

>  <SCORE.INTRA.VDW.0>
-5.08747

>  <SCORE.INTRA.norm>
0.26018

>  <SCORE.RESTR>
18.4265

>  <SCORE.RESTR.CAVITY>
18.4265

>  <SCORE.RESTR.norm>
0.460663

>  <SCORE.SYSTEM>
0

>  <SCORE.SYSTEM.CONST>
0

>  <SCORE.SYSTEM.DIHEDRAL>
0

>  <SCORE.SYSTEM.SOLV>
0

>  <SCORE.SYSTEM.norm>
0

>  <SCORE.heavy>
40

>  <SCORE.norm>
1.25214

>  <RMSD>
9.994

$$$$
2g5q_lig
 OpenBabel11021811433D
libRbt.so/2013.1/901 2013/11/27
 40 42  0  0  0  0  0  0  0  0999 V2000
    8.4945   -2.4003   25.9891 C   0  0  2  0  0  0  0  0  0  0  0  0
    7.3763   -3.2591   26.0281 O   0  0  0  0  0  0  0  0  0  0  0  0
    8.9321   -2.2130   24.5064 C   0  0  1  0  0  0  0  0  0  0  0  0
    9.4801   -3.5371   23.8898 C   0  0  2  0  0  0  0  0  0  0  0  0
   10.6958   -3.9886   24.7403 C   0  0  2  0  0  0  0  0  0  0  0  0
   11.2448   -5.1965   24.1889 O   0  0  0  0  0  0  0  0  0  0  0  0
   10.2049   -4.2124   26.2279 C   0  0  2  0  0  0  0  0  0  0  0  0
    9.6333   -2.9476   26.7725 O   0  0  0  0  0  0  0  0  0  0  0  0
   11.3295   -4.6478   27.1612 C   0  0  0  0  0  0  0  0  0  0  0  0
   12.5352   -3.7690   27.0363 N   0  0  0  0  0  0  0  0  0  0  0  0
    3.1577   -3.4653   24.9153 C   0  0  2  0  0  0  0  0  0  0  0  0
    1.8347   -3.0782   24.4404 N   0  0  0  0  0  0  0  0  0  0  0  0
    3.5729   -2.5802   26.1644 C   0  0  0  0  0  0  0  0  0  0  0  0
    5.0028   -3.0012   26.6866 C   0  0  2  0  0  0  0  0  0  0  0  0
    5.3755   -2.1717   27.8643 N   0  0  0  0  0  0  0  0  0  0  0  0
    6.0567   -2.8489   25.5187 C   0  0  2  0  0  0  0  0  0  0  0  0
    5.6077   -3.7398   24.2933 C   0  0  2  0  0  0  0  0  0  0  0  0
    6.5600   -3.5954   23.2348 O   0  0  0  0  0  0  0  0  0  0  0  0
    4.1863   -3.2931   23.7785 C   0  0  1  0  0  0  0  0  0  0  0  0
    3.7699   -4.1232   22.6579 O   0  0  0  0  0  0  0  0  0  0  0  0
    4.6190   -4.5178   21.6084 C   0  0  2  0  0  0  0  0  0  0  0  0
    3.7224   -4.7730   20.3498 C   0  0  2  0  0  0  0  0  0  0  0  0
    3.0459   -3.6037   20.0161 O   0  0  0  0  0  0  0  0  0  0  0  0
    2.7126   -5.9561   20.6008 C   0  0  1  0  0  0  0  0  0  0  0  0
    1.8520   -6.2114   19.3989 N   0  0  0  0  0  0  0  0  0  0  0  0
    3.5434   -7.2460   20.9793 C   0  0  2  0  0  0  0  0  0  0  0  0
    2.6785   -8.3594   21.2125 O   0  0  0  0  0  0  0  0  0  0  0  0
    4.4138   -6.9266   22.2415 C   0  0  2  0  0  0  0  0  0  0  0  0
    5.3224   -5.7563   21.9874 O   0  0  0  0  0  0  0  0  0  0  0  0
    5.2591   -8.0996   22.6456 C   0  0  0  0  0  0  0  0  0  0  0  0
    6.1468   -8.4926   21.5862 O   0  0  0  0  0  0  0  0  0  0  0  0
    7.7801   -1.7125   23.7445 O   0  0  0  0  0  0  0  0  0  0  0  0
    9.8635   -3.3111   22.5862 O   0  0  0  0  0  0  0  0  0  0  0  0
    1.8640   -0.6567   20.5991 N   0  0  0  0  0  0  0  0  0  0  0  0
    1.5738   -2.0465   23.5495 C   0  0  0  0  0  0  0  0  0  0  0  0
    2.4402   -1.3296   23.0608 O   0  0  0  0  0  0  0  0  0  0  0  0
    0.0643   -1.8895   23.2540 C   0  0  1  0  0  0  0  0  0  0  0  0
   -0.1421   -0.9798   22.0260 C   0  0  0  0  0  0  0  0  0  0  0  0
    0.6109   -1.3924   20.7559 C   0  0  0  0  0  0  0  0  0  0  0  0
   -0.5127   -3.1960   23.0315 O   0  0  0  0  0  0  0  0  0  0  0  0
  1  2  1  6  0  0  0
  1  3  1  0  0  0  0
  1  8  1  0  0  0  0
  3  4  1  0  0  0  0
  3 32  1  6  0  0  0
  4  5  1  0  0  0  0
  4 33  1  6  0  0  0
  5  6  1  6  0  0  0
  5  7  1  0  0  0  0
  7  8  1  0  0  0  0
  7  9  1  1  0  0  0
  9 10  1  0  0  0  0
 11 12  1  6  0  0  0
 11 13  1  0  0  0  0
 11 19  1  0  0  0  0
 12 35  1  0  0  0  0
 13 14  1  0  0  0  0
 14 15  1  1  0  0  0
 14 16  1  0  0  0  0
 16  2  1  1  0  0  0
 16 17  1  0  0  0  0
 17 18  1  6  0  0  0
 17 19  1  0  0  0  0
 19 20  1  6  0  0  0
 21 20  1  1  0  0  0
 21 22  1  0  0  0  0
 21 29  1  0  0  0  0
 22 23  1  1  0  0  0
 22 24  1  0  0  0  0
 24 25  1  6  0  0  0
 24 26  1  0  0  0  0
 26 27  1  1  0  0  0
 26 28  1  0  0  0  0
 28 29  1  0  0  0  0
 28 30  1  6  0  0  0
 30 31  1  0  0  0  0
 34 39  1  0  0  0  0
 35 36  2  0  0  0  0
 37 35  1  6  0  0  0
 37 38  1  0  0  0  0
 37 40  1  0  0  0  0
 38 39  1  0  0  0  0
M  END
>  <CHROM.1>
-69.39216828,49.37912686,85.53277668,-123.21370233,-161.53212261,-153.62039354
59.35093300,-166.41566163,53.95651818,-97.19794067,5.32263297,-3.88197148
23.50748172,0.26143585,-0.35641654,0.66286008

>  <Name>
2g5q_lig

>  <RI>
224

>  <Rbt.Current_Directory>
/home/itssahil/PROJECTS/Mol_Feturizer/New_Systems/rnas/2g5q

>  <Rbt.Executable>
rbdock ($Id: //depot/dev/client3/rdock/2013.1/src/exe/rbdock.cxx#4 $)

>  <Rbt.Library>
libRbt.so (2013.1, Build901 2013/11/27)

>  <Rbt.Parameter_File>
/export/apps/rDock/src/rDock_2013.1_src/data/scripts/dock_solv.prm

>  <Rbt.Receptor>
prm/blind_docking_60.prm

>  <SCORE>
12.2151

>  <SCORE.INTER>
-8.56974

>  <SCORE.INTER.CONST>
1

>  <SCORE.INTER.POLAR>
-0.758533

>  <SCORE.INTER.ROT>
10

>  <SCORE.INTER.SOLV>
24.0041

>  <SCORE.INTER.VDW>
-21.4527

>  <SCORE.INTER.norm>
-0.214243

>  <SCORE.INTRA>
5.20204

>  <SCORE.INTRA.DIHEDRAL>
-4.74075

>  <SCORE.INTRA.DIHEDRAL.0>
22.5778

>  <SCORE.INTRA.POLAR>
0

>  <SCORE.INTRA.POLAR.0>
0

>  <SCORE.INTRA.REPUL>
0

>  <SCORE.INTRA.REPUL.0>
0

>  <SCORE.INTRA.SOLV>
6.04205

>  <SCORE.INTRA.SOLV.lig_0>
-102.332

>  <SCORE.INTRA.VDW>
4.5514

>  <SCORE.INTRA.VDW.0>
-5.08747

>  <SCORE.INTRA.norm>
0.130051

>  <SCORE.RESTR>
15.5828

>  <SCORE.RESTR.CAVITY>
15.5828

>  <SCORE.RESTR.norm>
0.38957

>  <SCORE.SYSTEM>
0

>  <SCORE.SYSTEM.CONST>
0

>  <SCORE.SYSTEM.DIHEDRAL>
0

>  <SCORE.SYSTEM.SOLV>
0

>  <SCORE.SYSTEM.norm>
0

>  <SCORE.heavy>
40

>  <SCORE.norm>
0.305378

>  <RMSD>
10.024

$$$$
2g5q_lig
 OpenBabel11021811433D
libRbt.so/2013.1/901 2013/11/27
 40 42  0  0  0  0  0  0  0  0999 V2000
    8.4937   -2.6126   26.2450 C   0  0  2  0  0  0  0  0  0  0  0  0
    7.3842   -3.4681   26.0819 O   0  0  0  0  0  0  0  0  0  0  0  0
    8.6069   -1.6930   24.9935 C   0  0  1  0  0  0  0  0  0  0  0  0
    8.9678   -2.5008   23.7087 C   0  0  2  0  0  0  0  0  0  0  0  0
   10.3237   -3.2102   23.9599 C   0  0  2  0  0  0  0  0  0  0  0  0
   10.7033   -3.9487   22.7873 O   0  0  0  0  0  0  0  0  0  0  0  0
   10.1585   -4.1682   25.2085 C   0  0  2  0  0  0  0  0  0  0  0  0
    9.7572   -3.3789   26.4080 O   0  0  0  0  0  0  0  0  0  0  0  0
   11.4440   -4.9114   25.5564 C   0  0  0  0  0  0  0  0  0  0  0  0
   12.6415   -4.0138   25.5113 N   0  0  0  0  0  0  0  0  0  0  0  0
    3.1814   -3.4542   24.8930 C   0  0  2  0  0  0  0  0  0  0  0  0
    1.8850   -2.9946   24.4094 N   0  0  0  0  0  0  0  0  0  0  0  0
    3.6118   -2.6290   26.1775 C   0  0  0  0  0  0  0  0  0  0  0  0
    5.0126   -3.1286   26.7091 C   0  0  2  0  0  0  0  0  0  0  0  0
    5.3993   -2.3548   27.9197 N   0  0  0  0  0  0  0  0  0  0  0  0
    6.0929   -2.9845   25.5645 C   0  0  2  0  0  0  0  0  0  0  0  0
    5.6282   -3.8148   24.3029 C   0  0  2  0  0  0  0  0  0  0  0  0
    6.6047   -3.6777   23.2658 O   0  0  0  0  0  0  0  0  0  0  0  0
    4.2368   -3.2901   23.7798 C   0  0  1  0  0  0  0  0  0  0  0  0
    3.8053   -4.0646   22.6255 O   0  0  0  0  0  0  0  0  0  0  0  0
    4.6649   -4.5039   21.6026 C   0  0  2  0  0  0  0  0  0  0  0  0
    3.7900   -4.7477   20.3265 C   0  0  2  0  0  0  0  0  0  0  0  0
    3.1622   -3.5612   19.9598 O   0  0  0  0  0  0  0  0  0  0  0  0
    2.7344   -5.8917   20.5703 C   0  0  1  0  0  0  0  0  0  0  0  0
    1.8942   -6.1359   19.3518 N   0  0  0  0  0  0  0  0  0  0  0  0
    3.5112   -7.2032   20.9874 C   0  0  2  0  0  0  0  0  0  0  0  0
    2.6031   -8.2828   21.2157 O   0  0  0  0  0  0  0  0  0  0  0  0
    4.3620   -6.8943   22.2654 C   0  0  2  0  0  0  0  0  0  0  0  0
    5.3161   -5.7597   22.0163 O   0  0  0  0  0  0  0  0  0  0  0  0
    5.1566   -8.0891   22.7068 C   0  0  0  0  0  0  0  0  0  0  0  0
    6.1416   -8.4520   21.7255 O   0  0  0  0  0  0  0  0  0  0  0  0
    7.3337   -0.9789   24.8284 O   0  0  0  0  0  0  0  0  0  0  0  0
    9.0679   -1.6390   22.6387 O   0  0  0  0  0  0  0  0  0  0  0  0
    0.9959   -0.7786   19.7205 N   0  0  0  0  0  0  0  0  0  0  0  0
    1.6463   -1.7727   23.7961 C   0  0  0  0  0  0  0  0  0  0  0  0
    2.5116   -0.9272   23.5966 O   0  0  0  0  0  0  0  0  0  0  0  0
    0.1614   -1.5878   23.4070 C   0  0  1  0  0  0  0  0  0  0  0  0
    0.0575   -0.9348   22.0139 C   0  0  0  0  0  0  0  0  0  0  0  0
    0.8206   -1.6410   20.8873 C   0  0  0  0  0  0  0  0  0  0  0  0
   -0.4961   -2.8750   23.4242 O   0  0  0  0  0  0  0  0  0  0  0  0
  1  2  1  6  0  0  0
  1  3  1  0  0  0  0
  1  8  1  0  0  0  0
  3  4  1  0  0  0  0
  3 32  1  6  0  0  0
  4  5  1  0  0  0  0
  4 33  1  6  0  0  0
  5  6  1  6  0  0  0
  5  7  1  0  0  0  0
  7  8  1  0  0  0  0
  7  9  1  1  0  0  0
  9 10  1  0  0  0  0
 11 12  1  6  0  0  0
 11 13  1  0  0  0  0
 11 19  1  0  0  0  0
 12 35  1  0  0  0  0
 13 14  1  0  0  0  0
 14 15  1  1  0  0  0
 14 16  1  0  0  0  0
 16  2  1  1  0  0  0
 16 17  1  0  0  0  0
 17 18  1  6  0  0  0
 17 19  1  0  0  0  0
 19 20  1  6  0  0  0
 21 20  1  1  0  0  0
 21 22  1  0  0  0  0
 21 29  1  0  0  0  0
 22 23  1  1  0  0  0
 22 24  1  0  0  0  0
 24 25  1  6  0  0  0
 24 26  1  0  0  0  0
 26 27  1  1  0  0  0
 26 28  1  0  0  0  0
 28 29  1  0  0  0  0
 28 30  1  6  0  0  0
 30 31  1  0  0  0  0
 34 39  1  0  0  0  0
 35 36  2  0  0  0  0
 37 35  1  6  0  0  0
 37 38  1  0  0  0  0
 37 40  1  0  0  0  0
 38 39  1  0  0  0  0
M  END
>  <CHROM.1>
-43.29331238,43.94603828,70.70994748,-115.15990439,-159.06694268,-156.93805589
64.74548570,-138.74376410,53.97873321,-163.41048193,5.25653232,-3.73617935
23.40703525,0.24651818,-0.30957928,0.63834722

>  <Name>
2g5q_lig

>  <RI>
224

>  <Rbt.Current_Directory>
/home/itssahil/PROJECTS/Mol_Feturizer/New_Systems/rnas/2g5q

>  <Rbt.Executable>
rbdock ($Id: //depot/dev/client3/rdock/2013.1/src/exe/rbdock.cxx#4 $)

>  <Rbt.Library>
libRbt.so (2013.1, Build901 2013/11/27)

>  <Rbt.Parameter_File>
/export/apps/rDock/src/rDock_2013.1_src/data/scripts/dock_solv.prm

>  <Rbt.Receptor>
prm/blind_docking_60.prm

>  <SCORE>
10.605

>  <SCORE.INTER>
-5.99782

>  <SCORE.INTER.CONST>
1

>  <SCORE.INTER.POLAR>
-0.0827927

>  <SCORE.INTER.ROT>
10

>  <SCORE.INTER.SOLV>
27.4041

>  <SCORE.INTER.VDW>
-23.1239

>  <SCORE.INTER.norm>
-0.149946

>  <SCORE.INTRA>
3.87203

>  <SCORE.INTRA.DIHEDRAL>
-5.66243

>  <SCORE.INTRA.DIHEDRAL.0>
22.5778

>  <SCORE.INTRA.POLAR>
0

>  <SCORE.INTRA.POLAR.0>
0

>  <SCORE.INTRA.REPUL>
0

>  <SCORE.INTRA.REPUL.0>
0

>  <SCORE.INTRA.SOLV>
4.07139

>  <SCORE.INTRA.SOLV.lig_0>
-102.332

>  <SCORE.INTRA.VDW>
4.66755

>  <SCORE.INTRA.VDW.0>
-5.08747

>  <SCORE.INTRA.norm>
0.0968007

>  <SCORE.RESTR>
12.7308

>  <SCORE.RESTR.CAVITY>
12.7308

>  <SCORE.RESTR.norm>
0.318269

>  <SCORE.SYSTEM>
0

>  <SCORE.SYSTEM.CONST>
0

>  <SCORE.SYSTEM.DIHEDRAL>
0

>  <SCORE.SYSTEM.SOLV>
0

>  <SCORE.SYSTEM.norm>
0

>  <SCORE.heavy>
40

>  <SCORE.norm>
0.265124

>  <RMSD>
10.043

$$$$
2g5q_lig
 OpenBabel11021811433D
libRbt.so/2013.1/901 2013/11/27
 40 42  0  0  0  0  0  0  0  0999 V2000
    8.5119   -2.5839   26.2224 C   0  0  2  0  0  0  0  0  0  0  0  0
    7.4296   -3.4648   26.0174 O   0  0  0  0  0  0  0  0  0  0  0  0
    8.6301   -1.6386   24.9905 C   0  0  1  0  0  0  0  0  0  0  0  0
    9.0424   -2.4128   23.7005 C   0  0  2  0  0  0  0  0  0  0  0  0
   10.4103   -3.0913   23.9715 C   0  0  2  0  0  0  0  0  0  0  0  0
   10.8368   -3.7978   22.7953 O   0  0  0  0  0  0  0  0  0  0  0  0
   10.2412   -4.0762   25.1984 C   0  0  2  0  0  0  0  0  0  0  0  0
    9.7911   -3.3199   26.4018 O   0  0  0  0  0  0  0  0  0  0  0  0
   11.5373   -4.7919   25.5636 C   0  0  0  0  0  0  0  0  0  0  0  0
   11.3259   -5.8339   26.6179 N   0  0  0  0  0  0  0  0  0  0  0  0
    3.2058   -3.5086   24.9063 C   0  0  2  0  0  0  0  0  0  0  0  0
    1.8915   -3.0642   24.4582 N   0  0  0  0  0  0  0  0  0  0  0  0
    3.6433   -2.7070   26.2032 C   0  0  0  0  0  0  0  0  0  0  0  0
    5.0638   -3.1905   26.6962 C   0  0  2  0  0  0  0  0  0  0  0  0
    5.4573   -2.4393   27.9189 N   0  0  0  0  0  0  0  0  0  0  0  0
    6.1192   -2.9954   25.5361 C   0  0  2  0  0  0  0  0  0  0  0  0
    5.6478   -3.8034   24.2626 C   0  0  2  0  0  0  0  0  0  0  0  0
    6.6017   -3.6201   23.2116 O   0  0  0  0  0  0  0  0  0  0  0  0
    4.2365   -3.2949   23.7785 C   0  0  1  0  0  0  0  0  0  0  0  0
    3.7992   -4.0490   22.6130 O   0  0  0  0  0  0  0  0  0  0  0  0
    4.6597   -4.5032   21.5973 C   0  0  2  0  0  0  0  0  0  0  0  0
    3.7899   -4.7407   20.3166 C   0  0  2  0  0  0  0  0  0  0  0  0
    3.1796   -3.5477   19.9413 O   0  0  0  0  0  0  0  0  0  0  0  0
    2.7182   -5.8702   20.5578 C   0  0  1  0  0  0  0  0  0  0  0  0
    1.8828   -6.1084   19.3349 N   0  0  0  0  0  0  0  0  0  0  0  0
    3.4755   -7.1899   20.9848 C   0  0  2  0  0  0  0  0  0  0  0  0
    2.5523   -8.2569   21.2114 O   0  0  0  0  0  0  0  0  0  0  0  0
    4.3220   -6.8870   22.2671 C   0  0  2  0  0  0  0  0  0  0  0  0
    5.2921   -5.7656   22.0199 O   0  0  0  0  0  0  0  0  0  0  0  0
    5.0984   -8.0901   22.7181 C   0  0  0  0  0  0  0  0  0  0  0  0
    6.1497   -8.4097   21.7921 O   0  0  0  0  0  0  0  0  0  0  0  0
    7.3427   -0.9550   24.8077 O   0  0  0  0  0  0  0  0  0  0  0  0
    9.1447   -1.5291   22.6488 O   0  0  0  0  0  0  0  0  0  0  0  0
    2.1214   -1.2324   20.8661 N   0  0  0  0  0  0  0  0  0  0  0  0
    1.6353   -1.8840   23.7743 C   0  0  0  0  0  0  0  0  0  0  0  0
    2.4987   -1.0674   23.4726 O   0  0  0  0  0  0  0  0  0  0  0  0
    0.1345   -1.7042   23.4491 C   0  0  1  0  0  0  0  0  0  0  0  0
   -0.0306   -1.0068   22.0837 C   0  0  0  0  0  0  0  0  0  0  0  0
    0.7211   -1.6482   20.9115 C   0  0  0  0  0  0  0  0  0  0  0  0
   -0.5080   -2.9991   23.4485 O   0  0  0  0  0  0  0  0  0  0  0  0
  1  2  1  6  0  0  0
  1  3  1  0  0  0  0
  1  8  1  0  0  0  0
  3  4  1  0  0  0  0
  3 32  1  6  0  0  0
  4  5  1  0  0  0  0
  4 33  1  6  0  0  0
  5  6  1  6  0  0  0
  5  7  1  0  0  0  0
  7  8  1  0  0  0  0
  7  9  1  1  0  0  0
  9 10  1  0  0  0  0
 11 12  1  6  0  0  0
 11 13  1  0  0  0  0
 11 19  1  0  0  0  0
 12 35  1  0  0  0  0
 13 14  1  0  0  0  0
 14 15  1  1  0  0  0
 14 16  1  0  0  0  0
 16  2  1  1  0  0  0
 16 17  1  0  0  0  0
 17 18  1  6  0  0  0
 17 19  1  0  0  0  0
 19 20  1  6  0  0  0
 21 20  1  1  0  0  0
 21 22  1  0  0  0  0
 21 29  1  0  0  0  0
 22 23  1  1  0  0  0
 22 24  1  0  0  0  0
 24 25  1  6  0  0  0
 24 26  1  0  0  0  0
 26 27  1  1  0  0  0
 26 28  1  0  0  0  0
 28 29  1  0  0  0  0
 28 30  1  6  0  0  0
 30 31  1  0  0  0  0
 34 39  1  0  0  0  0
 35 36  2  0  0  0  0
 37 35  1  6  0  0  0
 37 38  1  0  0  0  0
 37 40  1  0  0  0  0
 38 39  1  0  0  0  0
M  END
>  <CHROM.1>
-46.14622634,-173.35125941,76.76356678,-113.10428137,-155.69534920,-158.00944552
69.02534132,-144.83886565,52.66155417,-82.46895914,5.26246935,-3.78764955
23.45881225,0.25156392,-0.31784870,0.62629887

>  <Name>
2g5q_lig

>  <RI>
224

>  <Rbt.Current_Directory>
/home/itssahil/PROJECTS/Mol_Feturizer/New_Systems/rnas/2g5q

>  <Rbt.Executable>
rbdock ($Id: //depot/dev/client3/rdock/2013.1/src/exe/rbdock.cxx#4 $)

>  <Rbt.Library>
libRbt.so (2013.1, Build901 2013/11/27)

>  <Rbt.Parameter_File>
/export/apps/rDock/src/rDock_2013.1_src/data/scripts/dock_solv.prm

>  <Rbt.Receptor>
prm/blind_docking_60.prm

>  <SCORE>
14.9746

>  <SCORE.INTER>
-4.12647

>  <SCORE.INTER.CONST>
1

>  <SCORE.INTER.POLAR>
-0.097749

>  <SCORE.INTER.ROT>
10

>  <SCORE.INTER.SOLV>
26.7188

>  <SCORE.INTER.VDW>
-21.5981

>  <SCORE.INTER.norm>
-0.103162

>  <SCORE.INTRA>
4.90012

>  <SCORE.INTRA.DIHEDRAL>
-5.59089

>  <SCORE.INTRA.DIHEDRAL.0>
22.5778

>  <SCORE.INTRA.POLAR>
0

>  <SCORE.INTRA.POLAR.0>
0

>  <SCORE.INTRA.REPUL>
0

>  <SCORE.INTRA.REPUL.0>
0

>  <SCORE.INTRA.SOLV>
7.09136

>  <SCORE.INTRA.SOLV.lig_0>
-102.332

>  <SCORE.INTRA.VDW>
4.14989

>  <SCORE.INTRA.VDW.0>
-5.08747

>  <SCORE.INTRA.norm>
0.122503

>  <SCORE.RESTR>
14.201

>  <SCORE.RESTR.CAVITY>
14.201

>  <SCORE.RESTR.norm>
0.355024

>  <SCORE.SYSTEM>
0

>  <SCORE.SYSTEM.CONST>
0

>  <SCORE.SYSTEM.DIHEDRAL>
0

>  <SCORE.SYSTEM.SOLV>
0

>  <SCORE.SYSTEM.norm>
0

>  <SCORE.heavy>
40

>  <SCORE.norm>
0.374366

>  <RMSD>
10.054

$$$$
2g5q_lig
 OpenBabel11021811433D
libRbt.so/2013.1/901 2013/11/27
 40 42  0  0  0  0  0  0  0  0999 V2000
    8.5267   -2.5745   26.2698 C   0  0  2  0  0  0  0  0  0  0  0  0
    7.4919   -3.4736   25.9375 O   0  0  0  0  0  0  0  0  0  0  0  0
    8.6807   -1.5384   25.1177 C   0  0  1  0  0  0  0  0  0  0  0  0
    9.1961   -2.2021   23.8033 C   0  0  2  0  0  0  0  0  0  0  0  0
   10.5704   -2.8527   24.1080 C   0  0  2  0  0  0  0  0  0  0  0  0
   11.0907   -3.4568   22.9127 O   0  0  0  0  0  0  0  0  0  0  0  0
   10.3673   -3.9297   25.2494 C   0  0  2  0  0  0  0  0  0  0  0  0
    9.8199   -3.2788   26.4739 O   0  0  0  0  0  0  0  0  0  0  0  0
   11.6660   -4.6267   25.6409 C   0  0  0  0  0  0  0  0  0  0  0  0
   12.4497   -5.0679   24.4438 N   0  0  0  0  0  0  0  0  0  0  0  0
    3.2619   -3.5585   24.8528 C   0  0  2  0  0  0  0  0  0  0  0  0
    1.9346   -3.1225   24.4357 N   0  0  0  0  0  0  0  0  0  0  0  0
    3.6911   -2.8123   26.1850 C   0  0  0  0  0  0  0  0  0  0  0  0
    5.1257   -3.2871   26.6443 C   0  0  2  0  0  0  0  0  0  0  0  0
    5.5115   -2.5885   27.9001 N   0  0  0  0  0  0  0  0  0  0  0  0
    6.1678   -3.0109   25.4886 C   0  0  2  0  0  0  0  0  0  0  0  0
    5.7050   -3.7655   24.1796 C   0  0  2  0  0  0  0  0  0  0  0  0
    6.6465   -3.5088   23.1329 O   0  0  0  0  0  0  0  0  0  0  0  0
    4.2790   -3.2659   23.7303 C   0  0  1  0  0  0  0  0  0  0  0  0
    3.8500   -3.9713   22.5317 O   0  0  0  0  0  0  0  0  0  0  0  0
    4.7115   -4.3488   21.4860 C   0  0  2  0  0  0  0  0  0  0  0  0
    3.8864   -4.2961   20.1558 C   0  0  2  0  0  0  0  0  0  0  0  0
    3.4118   -3.0037   19.9539 O   0  0  0  0  0  0  0  0  0  0  0  0
    2.7013   -5.3342   20.1797 C   0  0  1  0  0  0  0  0  0  0  0  0
    1.9075   -5.2946   18.9075 N   0  0  0  0  0  0  0  0  0  0  0  0
    3.3075   -6.7741   20.4173 C   0  0  2  0  0  0  0  0  0  0  0  0
    2.2768   -7.7636   20.4416 O   0  0  0  0  0  0  0  0  0  0  0  0
    4.1156   -6.7604   21.7587 C   0  0  2  0  0  0  0  0  0  0  0  0
    5.1992   -5.7190   21.7243 O   0  0  0  0  0  0  0  0  0  0  0  0
    4.7509   -8.0914   22.0391 C   0  0  0  0  0  0  0  0  0  0  0  0
    5.5428   -8.0494   23.2375 O   0  0  0  0  0  0  0  0  0  0  0  0
    7.3814   -0.8864   24.9061 O   0  0  0  0  0  0  0  0  0  0  0  0
    9.3261   -1.2409   22.8252 O   0  0  0  0  0  0  0  0  0  0  0  0
    0.9064   -0.4922   19.7916 N   0  0  0  0  0  0  0  0  0  0  0  0
    1.6745   -2.1327   23.4983 C   0  0  0  0  0  0  0  0  0  0  0  0
    2.5461   -1.4997   22.9127 O   0  0  0  0  0  0  0  0  0  0  0  0
    0.1602   -1.9041   23.2860 C   0  0  1  0  0  0  0  0  0  0  0  0
   -0.0771   -1.1087   21.9864 C   0  0  0  0  0  0  0  0  0  0  0  0
    0.7310   -1.5665   20.7667 C   0  0  0  0  0  0  0  0  0  0  0  0
   -0.5093   -3.1842   23.2374 O   0  0  0  0  0  0  0  0  0  0  0  0
  1  2  1  6  0  0  0
  1  3  1  0  0  0  0
  1  8  1  0  0  0  0
  3  4  1  0  0  0  0
  3 32  1  6  0  0  0
  4  5  1  0  0  0  0
  4 33  1  6  0  0  0
  5  6  1  6  0  0  0
  5  7  1  0  0  0  0
  7  8  1  0  0  0  0
  7  9  1  1  0  0  0
  9 10  1  0  0  0  0
 11 12  1  6  0  0  0
 11 13  1  0  0  0  0
 11 19  1  0  0  0  0
 12 35  1  0  0  0  0
 13 14  1  0  0  0  0
 14 15  1  1  0  0  0
 14 16  1  0  0  0  0
 16  2  1  1  0  0  0
 16 17  1  0  0  0  0
 17 18  1  6  0  0  0
 17 19  1  0  0  0  0
 19 20  1  6  0  0  0
 21 20  1  1  0  0  0
 21 22  1  0  0  0  0
 21 29  1  0  0  0  0
 22 23  1  1  0  0  0
 22 24  1  0  0  0  0
 24 25  1  6  0  0  0
 24 26  1  0  0  0  0
 26 27  1  1  0  0  0
 26 28  1  0  0  0  0
 28 29  1  0  0  0  0
 28 30  1  6  0  0  0
 30 31  1  0  0  0  0
 34 39  1  0  0  0  0
 35 36  2  0  0  0  0
 37 35  1  6  0  0  0
 37 38  1  0  0  0  0
 37 40  1  0  0  0  0
 38 39  1  0  0  0  0
M  END
>  <CHROM.1>
-49.87430006,-46.48547725,96.21280951,-108.52466086,-156.04559948,-148.10457150
177.18112254,-164.11739075,44.77167197,-155.56652957,5.27061147,-3.64295658
23.29666387,0.28623138,-0.30240548,0.68999008

>  <Name>
2g5q_lig

>  <RI>
224

>  <Rbt.Current_Directory>
/home/itssahil/PROJECTS/Mol_Feturizer/New_Systems/rnas/2g5q

>  <Rbt.Executable>
rbdock ($Id: //depot/dev/client3/rdock/2013.1/src/exe/rbdock.cxx#4 $)

>  <Rbt.Library>
libRbt.so (2013.1, Build901 2013/11/27)

>  <Rbt.Parameter_File>
/export/apps/rDock/src/rDock_2013.1_src/data/scripts/dock_solv.prm

>  <Rbt.Receptor>
prm/blind_docking_60.prm

>  <SCORE>
17.0158

>  <SCORE.INTER>
0.136558

>  <SCORE.INTER.CONST>
1

>  <SCORE.INTER.POLAR>
-0.118515

>  <SCORE.INTER.ROT>
10

>  <SCORE.INTER.SOLV>
29.8919

>  <SCORE.INTER.VDW>
-19.7445

>  <SCORE.INTER.norm>
0.00341396

>  <SCORE.INTRA>
5.96419

>  <SCORE.INTRA.DIHEDRAL>
-3.78755

>  <SCORE.INTRA.DIHEDRAL.0>
22.5778

>  <SCORE.INTRA.POLAR>
0

>  <SCORE.INTRA.POLAR.0>
0

>  <SCORE.INTRA.REPUL>
0

>  <SCORE.INTRA.REPUL.0>
0

>  <SCORE.INTRA.SOLV>
4.68428

>  <SCORE.INTRA.SOLV.lig_0>
-102.332

>  <SCORE.INTRA.VDW>
5.51583

>  <SCORE.INTRA.VDW.0>
-5.08747

>  <SCORE.INTRA.norm>
0.149105

>  <SCORE.RESTR>
10.915

>  <SCORE.RESTR.CAVITY>
10.915

>  <SCORE.RESTR.norm>
0.272875

>  <SCORE.SYSTEM>
0

>  <SCORE.SYSTEM.CONST>
0

>  <SCORE.SYSTEM.DIHEDRAL>
0

>  <SCORE.SYSTEM.SOLV>
0

>  <SCORE.SYSTEM.norm>
0

>  <SCORE.heavy>
40

>  <SCORE.norm>
0.425394

>  <RMSD>
10.057

$$$$
2g5q_lig
 OpenBabel11021811433D
libRbt.so/2013.1/901 2013/11/27
 40 42  0  0  0  0  0  0  0  0999 V2000
   -7.7221  -11.4443   14.5133 C   0  0  2  0  0  0  0  0  0  0  0  0
   -7.5132  -10.3885   15.4249 O   0  0  0  0  0  0  0  0  0  0  0  0
   -8.9302  -11.0859   13.5984 C   0  0  1  0  0  0  0  0  0  0  0  0
  -10.2697  -11.0360   14.3964 C   0  0  2  0  0  0  0  0  0  0  0  0
  -10.4936  -12.4316   15.0346 C   0  0  2  0  0  0  0  0  0  0  0  0
  -11.7330  -12.4333   15.7616 O   0  0  0  0  0  0  0  0  0  0  0  0
   -9.2713  -12.7419   15.9905 C   0  0  2  0  0  0  0  0  0  0  0  0
   -7.9989  -12.7261   15.2136 O   0  0  0  0  0  0  0  0  0  0  0  0
   -9.3810  -14.1051   16.6652 C   0  0  0  0  0  0  0  0  0  0  0  0
  -10.5576  -14.1822   17.5879 N   0  0  0  0  0  0  0  0  0  0  0  0
   -3.7935   -9.1733   17.3652 C   0  0  2  0  0  0  0  0  0  0  0  0
   -2.6747   -9.1267   18.2989 N   0  0  0  0  0  0  0  0  0  0  0  0
   -5.1616   -8.9531   18.1369 C   0  0  0  0  0  0  0  0  0  0  0  0
   -6.3760   -8.9956   17.1280 C   0  0  2  0  0  0  0  0  0  0  0  0
   -7.6515   -8.7768   17.8623 N   0  0  0  0  0  0  0  0  0  0  0  0
   -6.3806  -10.3806   16.3664 C   0  0  2  0  0  0  0  0  0  0  0  0
   -5.0030  -10.5656   15.6149 C   0  0  2  0  0  0  0  0  0  0  0  0
   -5.0070  -11.8229   14.9314 O   0  0  0  0  0  0  0  0  0  0  0  0
   -3.8068  -10.5356   16.6413 C   0  0  1  0  0  0  0  0  0  0  0  0
   -2.5385  -10.6939   15.9451 O   0  0  0  0  0  0  0  0  0  0  0  0
   -1.3136  -10.9564   16.5846 C   0  0  2  0  0  0  0  0  0  0  0  0
   -0.1878  -10.8607   15.4999 C   0  0  2  0  0  0  0  0  0  0  0  0
   -0.1844   -9.5846   14.9448 O   0  0  0  0  0  0  0  0  0  0  0  0
   -0.3758  -11.9591   14.3860 C   0  0  1  0  0  0  0  0  0  0  0  0
    0.7007  -11.8785   13.3444 N   0  0  0  0  0  0  0  0  0  0  0  0
   -0.3763  -13.3775   15.0828 C   0  0  2  0  0  0  0  0  0  0  0  0
   -0.5367  -14.4195   14.1180 O   0  0  0  0  0  0  0  0  0  0  0  0
   -1.5214  -13.4087   16.1507 C   0  0  2  0  0  0  0  0  0  0  0  0
   -1.3441  -12.3116   17.1630 O   0  0  0  0  0  0  0  0  0  0  0  0
   -1.5658  -14.7198   16.8805 C   0  0  0  0  0  0  0  0  0  0  0  0
   -0.3247  -14.9838   17.5549 O   0  0  0  0  0  0  0  0  0  0  0  0
   -8.6527   -9.7968   12.9508 O   0  0  0  0  0  0  0  0  0  0  0  0
  -11.3028  -10.7290   13.5386 O   0  0  0  0  0  0  0  0  0  0  0  0
    1.7928   -7.1258   18.6569 N   0  0  0  0  0  0  0  0  0  0  0  0
   -2.1183   -7.9693   18.8251 C   0  0  0  0  0  0  0  0  0  0  0  0
   -2.5073   -6.8388   18.5529 O   0  0  0  0  0  0  0  0  0  0  0  0
   -0.9395   -8.2630   19.7814 C   0  0  1  0  0  0  0  0  0  0  0  0
    0.1902   -8.9868   19.0211 C   0  0  0  0  0  0  0  0  0  0  0  0
    0.9624   -8.1367   18.0055 C   0  0  0  0  0  0  0  0  0  0  0  0
   -0.4671   -7.0192   20.3462 O   0  0  0  0  0  0  0  0  0  0  0  0
  1  2  1  1  0  0  0
  1  3  1  0  0  0  0
  1  8  1  0  0  0  0
  3  4  1  0  0  0  0
  3 32  1  1  0  0  0
  4  5  1  0  0  0  0
  4 33  1  6  0  0  0
  5  6  1  1  0  0  0
  5  7  1  0  0  0  0
  7  8  1  0  0  0  0
  7  9  1  6  0  0  0
  9 10  1  0  0  0  0
 11 12  1  1  0  0  0
 11 13  1  0  0  0  0
 11 19  1  0  0  0  0
 12 35  1  0  0  0  0
 13 14  1  0  0  0  0
 14 15  1  1  0  0  0
 14 16  1  0  0  0  0
 16  2  1  6  0  0  0
 16 17  1  0  0  0  0
 17 18  1  1  0  0  0
 17 19  1  0  0  0  0
 19 20  1  6  0  0  0
 21 20  1  6  0  0  0
 21 22  1  0  0  0  0
 21 29  1  0  0  0  0
 22 23  1  6  0  0  0
 22 24  1  0  0  0  0
 24 25  1  6  0  0  0
 24 26  1  0  0  0  0
 26 27  1  6  0  0  0
 26 28  1  0  0  0  0
 28 29  1  0  0  0  0
 28 30  1  1  0  0  0
 30 31  1  0  0  0  0
 34 39  1  0  0  0  0
 35 36  2  0  0  0  0
 37 35  1  6  0  0  0
 37 38  1  0  0  0  0
 37 40  1  0  0  0  0
 38 39  1  0  0  0  0
M  END
>  <CHROM.1>
-175.58249625,-64.35882432,-78.40322836,174.50849322,72.83780289,-172.55066821
59.25807711,61.41123798,70.64795403,69.58405663,-4.31663049,-10.88609647
16.32979836,-2.86903997,-0.09789499,0.53394033

>  <Name>
2g5q_lig

>  <RI>
2.47104e+07

>  <Rbt.Current_Directory>
/home/itssahil/PROJECTS/Mol_Feturizer/New_Systems/rnas/2g5q

>  <Rbt.Executable>
rbdock ($Id: //depot/dev/client3/rdock/2013.1/src/exe/rbdock.cxx#4 $)

>  <Rbt.Library>
libRbt.so (2013.1, Build901 2013/11/27)

>  <Rbt.Parameter_File>
/export/apps/rDock/src/rDock_2013.1_src/data/scripts/dock_solv.prm

>  <Rbt.Receptor>
prm/pocket_docking_7.prm

>  <SCORE>
-12.5483

>  <SCORE.INTER>
-4.32225

>  <SCORE.INTER.CONST>
1

>  <SCORE.INTER.POLAR>
-0.195017

>  <SCORE.INTER.ROT>
10

>  <SCORE.INTER.SOLV>
14.8625

>  <SCORE.INTER.VDW>
-17.4523

>  <SCORE.INTER.norm>
-0.108056

>  <SCORE.INTRA>
-8.22602

>  <SCORE.INTRA.DIHEDRAL>
-19.4032

>  <SCORE.INTRA.DIHEDRAL.0>
22.5778

>  <SCORE.INTRA.POLAR>
0

>  <SCORE.INTRA.POLAR.0>
0

>  <SCORE.INTRA.REPUL>
0

>  <SCORE.INTRA.REPUL.0>
0

>  <SCORE.INTRA.SOLV>
2.04751

>  <SCORE.INTRA.SOLV.lig_0>
-102.332

>  <SCORE.INTRA.VDW>
0.451837

>  <SCORE.INTRA.VDW.0>
-5.08747

>  <SCORE.INTRA.norm>
-0.20565

>  <SCORE.RESTR>
0

>  <SCORE.RESTR.CAVITY>
0

>  <SCORE.RESTR.norm>
0

>  <SCORE.SYSTEM>
0

>  <SCORE.SYSTEM.CONST>
0

>  <SCORE.SYSTEM.DIHEDRAL>
0

>  <SCORE.SYSTEM.SOLV>
0

>  <SCORE.SYSTEM.norm>
0

>  <SCORE.heavy>
40

>  <SCORE.norm>
-0.313707

>  <RMSD>
10.059

$$$$
2g5q_lig
 OpenBabel11021811433D
libRbt.so/2013.1/901 2013/11/27
 40 42  0  0  0  0  0  0  0  0999 V2000
    8.4733   -2.6505   26.2462 C   0  0  2  0  0  0  0  0  0  0  0  0
    7.3951   -3.5070   25.9403 O   0  0  0  0  0  0  0  0  0  0  0  0
    8.6655   -1.6463   25.0717 C   0  0  1  0  0  0  0  0  0  0  0  0
    9.1383   -2.3599   23.7675 C   0  0  2  0  0  0  0  0  0  0  0  0
   10.4835   -3.0675   24.0752 C   0  0  2  0  0  0  0  0  0  0  0  0
   10.9650   -3.7193   22.8887 O   0  0  0  0  0  0  0  0  0  0  0  0
   10.2403   -4.1105   25.2401 C   0  0  2  0  0  0  0  0  0  0  0  0
    9.7341   -3.4101   26.4550 O   0  0  0  0  0  0  0  0  0  0  0  0
   11.5084   -4.8593   25.6362 C   0  0  0  0  0  0  0  0  0  0  0  0
   11.2271   -5.9701   26.5998 N   0  0  0  0  0  0  0  0  0  0  0  0
    3.1640   -3.4174   24.8599 C   0  0  2  0  0  0  0  0  0  0  0  0
    1.8581   -2.9290   24.4337 N   0  0  0  0  0  0  0  0  0  0  0  0
    3.6300   -2.6620   26.1745 C   0  0  0  0  0  0  0  0  0  0  0  0
    5.0414   -3.1932   26.6438 C   0  0  2  0  0  0  0  0  0  0  0  0
    5.4617   -2.4851   27.8832 N   0  0  0  0  0  0  0  0  0  0  0  0
    6.0935   -2.9928   25.4815 C   0  0  2  0  0  0  0  0  0  0  0  0
    5.5937   -3.7544   24.1904 C   0  0  2  0  0  0  0  0  0  0  0  0
    6.5446   -3.5663   23.1376 O   0  0  0  0  0  0  0  0  0  0  0  0
    4.1920   -3.1986   23.7305 C   0  0  1  0  0  0  0  0  0  0  0  0
    3.7284   -3.9101   22.5485 O   0  0  0  0  0  0  0  0  0  0  0  0
    4.5608   -4.3009   21.4843 C   0  0  2  0  0  0  0  0  0  0  0  0
    3.6395   -4.6029   20.2542 C   0  0  2  0  0  0  0  0  0  0  0  0
    2.9229   -3.4584   19.9179 O   0  0  0  0  0  0  0  0  0  0  0  0
    2.6691   -5.8080   20.5523 C   0  0  1  0  0  0  0  0  0  0  0  0
    1.7853   -6.1081   19.3779 N   0  0  0  0  0  0  0  0  0  0  0  0
    3.5443   -7.0680   20.9314 C   0  0  2  0  0  0  0  0  0  0  0  0
    2.7164   -8.1997   21.2066 O   0  0  0  0  0  0  0  0  0  0  0  0
    4.4377   -6.7024   22.1646 C   0  0  2  0  0  0  0  0  0  0  0  0
    5.3072   -5.5129   21.8664 O   0  0  0  0  0  0  0  0  0  0  0  0
    5.3248   -7.8447   22.5670 C   0  0  0  0  0  0  0  0  0  0  0  0
    4.5532   -8.9789   22.9947 O   0  0  0  0  0  0  0  0  0  0  0  0
    7.3961   -0.9389   24.8564 O   0  0  0  0  0  0  0  0  0  0  0  0
    9.3046   -1.4259   22.7688 O   0  0  0  0  0  0  0  0  0  0  0  0
    0.8875   -0.4638   19.7496 N   0  0  0  0  0  0  0  0  0  0  0  0
    1.6407   -1.8081   23.6446 C   0  0  0  0  0  0  0  0  0  0  0  0
    2.5367   -1.0882   23.2177 O   0  0  0  0  0  0  0  0  0  0  0  0
    0.1387   -1.5570   23.3771 C   0  0  1  0  0  0  0  0  0  0  0  0
   -0.0455   -0.8536   22.0172 C   0  0  0  0  0  0  0  0  0  0  0  0
    0.7912   -1.4099   20.8593 C   0  0  0  0  0  0  0  0  0  0  0  0
   -0.5644   -2.8197   23.4047 O   0  0  0  0  0  0  0  0  0  0  0  0
  1  2  1  6  0  0  0
  1  3  1  0  0  0  0
  1  8  1  0  0  0  0
  3  4  1  0  0  0  0
  3 32  1  6  0  0  0
  4  5  1  0  0  0  0
  4 33  1  6  0  0  0
  5  6  1  6  0  0  0
  5  7  1  0  0  0  0
  7  8  1  0  0  0  0
  7  9  1  1  0  0  0
  9 10  1  0  0  0  0
 11 12  1  6  0  0  0
 11 13  1  0  0  0  0
 11 19  1  0  0  0  0
 12 35  1  0  0  0  0
 13 14  1  0  0  0  0
 14 15  1  1  0  0  0
 14 16  1  0  0  0  0
 16  2  1  1  0  0  0
 16 17  1  0  0  0  0
 17 18  1  6  0  0  0
 17 19  1  0  0  0  0
 19 20  1  6  0  0  0
 21 20  1  1  0  0  0
 21 22  1  0  0  0  0
 21 29  1  0  0  0  0
 22 23  1  1  0  0  0
 22 24  1  0  0  0  0
 24 25  1  6  0  0  0
 24 26  1  0  0  0  0
 26 27  1  1  0  0  0
 26 28  1  0  0  0  0
 28 29  1  0  0  0  0
 28 30  1  6  0  0  0
 30 31  1  0  0  0  0
 34 39  1  0  0  0  0
 35 36  2  0  0  0  0
 37 35  1  6  0  0  0
 37 38  1  0  0  0  0
 37 40  1  0  0  0  0
 38 39  1  0  0  0  0
M  END
>  <CHROM.1>
-49.37637818,-172.04974463,84.98399716,-108.79190264,-158.90759013,-162.11132410
-63.15925897,-150.75688065,44.07469624,-162.02310635,5.18529075,-3.72186460
23.43689592,0.20100744,-0.36995105,0.52795982

>  <Name>
2g5q_lig

>  <RI>
224

>  <Rbt.Current_Directory>
/home/itssahil/PROJECTS/Mol_Feturizer/New_Systems/rnas/2g5q

>  <Rbt.Executable>
rbdock ($Id: //depot/dev/client3/rdock/2013.1/src/exe/rbdock.cxx#4 $)

>  <Rbt.Library>
libRbt.so (2013.1, Build901 2013/11/27)

>  <Rbt.Parameter_File>
/export/apps/rDock/src/rDock_2013.1_src/data/scripts/dock_solv.prm

>  <Rbt.Receptor>
prm/blind_docking_60.prm

>  <SCORE>
12.2747

>  <SCORE.INTER>
-3.66218

>  <SCORE.INTER.CONST>
1

>  <SCORE.INTER.POLAR>
-0.100759

>  <SCORE.INTER.ROT>
10

>  <SCORE.INTER.SOLV>
28.304

>  <SCORE.INTER.VDW>
-21.8069

>  <SCORE.INTER.norm>
-0.0915545

>  <SCORE.INTRA>
2.15104

>  <SCORE.INTRA.DIHEDRAL>
-7.6838

>  <SCORE.INTRA.DIHEDRAL.0>
22.5778

>  <SCORE.INTRA.POLAR>
0

>  <SCORE.INTRA.POLAR.0>
0

>  <SCORE.INTRA.REPUL>
0

>  <SCORE.INTRA.REPUL.0>
0

>  <SCORE.INTRA.SOLV>
2.80162

>  <SCORE.INTRA.SOLV.lig_0>
-102.332

>  <SCORE.INTRA.VDW>
4.59213

>  <SCORE.INTRA.VDW.0>
-5.08747

>  <SCORE.INTRA.norm>
0.053776

>  <SCORE.RESTR>
13.7859

>  <SCORE.RESTR.CAVITY>
13.7859

>  <SCORE.RESTR.norm>
0.344646

>  <SCORE.SYSTEM>
0

>  <SCORE.SYSTEM.CONST>
0

>  <SCORE.SYSTEM.DIHEDRAL>
0

>  <SCORE.SYSTEM.SOLV>
0

>  <SCORE.SYSTEM.norm>
0

>  <SCORE.heavy>
40

>  <SCORE.norm>
0.306868

>  <RMSD>
10.067

$$$$
2g5q_lig
 OpenBabel11021811433D
libRbt.so/2013.1/901 2013/11/27
 40 42  0  0  0  0  0  0  0  0999 V2000
    5.3511   -5.7080   12.9511 C   0  0  2  0  0  0  0  0  0  0  0  0
    5.3453   -6.5685   11.8335 O   0  0  0  0  0  0  0  0  0  0  0  0
    6.4777   -4.6495   12.7638 C   0  0  1  0  0  0  0  0  0  0  0  0
    7.8967   -5.2962   12.8068 C   0  0  2  0  0  0  0  0  0  0  0  0
    8.0585   -5.9934   14.1825 C   0  0  2  0  0  0  0  0  0  0  0  0
    9.3656   -6.5836   14.2705 O   0  0  0  0  0  0  0  0  0  0  0  0
    6.9269   -7.0911   14.3185 C   0  0  2  0  0  0  0  0  0  0  0  0
    5.5828   -6.4541   14.2159 O   0  0  0  0  0  0  0  0  0  0  0  0
    6.9827   -7.8347   15.6488 C   0  0  0  0  0  0  0  0  0  0  0  0
    5.9370   -8.9023   15.7400 N   0  0  0  0  0  0  0  0  0  0  0  0
    6.9837  -10.3590   10.4103 C   0  0  2  0  0  0  0  0  0  0  0  0
    7.7971  -11.5660   10.3244 N   0  0  0  0  0  0  0  0  0  0  0  0
    7.9086   -9.0708   10.3798 C   0  0  0  0  0  0  0  0  0  0  0  0
    7.0309   -7.7606   10.4655 C   0  0  2  0  0  0  0  0  0  0  0  0
    7.9090   -6.5600   10.4247 N   0  0  0  0  0  0  0  0  0  0  0  0
    6.1618   -7.7934   11.7852 C   0  0  2  0  0  0  0  0  0  0  0  0
    5.2589   -9.0901   11.7814 C   0  0  2  0  0  0  0  0  0  0  0  0
    4.4777   -9.1209   12.9801 O   0  0  0  0  0  0  0  0  0  0  0  0
    6.1547  -10.3853   11.7112 C   0  0  1  0  0  0  0  0  0  0  0  0
    5.3202  -11.5777   11.6954 O   0  0  0  0  0  0  0  0  0  0  0  0
    4.7452  -12.1550   12.8418 C   0  0  2  0  0  0  0  0  0  0  0  0
    4.0473  -13.4850   12.3979 C   0  0  2  0  0  0  0  0  0  0  0  0
    4.9918  -14.3424   11.8417 O   0  0  0  0  0  0  0  0  0  0  0  0
    2.8762  -13.2019   11.3825 C   0  0  1  0  0  0  0  0  0  0  0  0
    2.1983  -14.4699   10.9548 N   0  0  0  0  0  0  0  0  0  0  0  0
    1.8469  -12.2215   12.0729 C   0  0  2  0  0  0  0  0  0  0  0  0
    0.7536  -11.9324   11.1993 O   0  0  0  0  0  0  0  0  0  0  0  0
    2.6040  -10.9154   12.4896 C   0  0  2  0  0  0  0  0  0  0  0  0
    3.7506  -11.2277   13.4102 O   0  0  0  0  0  0  0  0  0  0  0  0
    1.6949   -9.9428   13.1833 C   0  0  0  0  0  0  0  0  0  0  0  0
    1.9010   -9.9591   14.6053 O   0  0  0  0  0  0  0  0  0  0  0  0
    6.2519   -3.9552   11.4890 O   0  0  0  0  0  0  0  0  0  0  0  0
    8.8518   -4.3161   12.6500 O   0  0  0  0  0  0  0  0  0  0  0  0
   12.6805  -12.4757    7.4756 N   0  0  0  0  0  0  0  0  0  0  0  0
    8.8762  -11.7454    9.4703 C   0  0  0  0  0  0  0  0  0  0  0  0
    9.2669  -10.8979    8.6750 O   0  0  0  0  0  0  0  0  0  0  0  0
    9.5220  -13.1421    9.6207 C   0  0  1  0  0  0  0  0  0  0  0  0
   11.0057  -13.0859    9.2040 C   0  0  0  0  0  0  0  0  0  0  0  0
   11.2726  -12.7771    7.7262 C   0  0  0  0  0  0  0  0  0  0  0  0
    9.3870  -13.5807   10.9913 O   0  0  0  0  0  0  0  0  0  0  0  0
  1  2  1  6  0  0  0
  1  3  1  0  0  0  0
  1  8  1  0  0  0  0
  3  4  1  0  0  0  0
  3 32  1  6  0  0  0
  4  5  1  0  0  0  0
  4 33  1  1  0  0  0
  5  6  1  6  0  0  0
  5  7  1  0  0  0  0
  7  8  1  0  0  0  0
  7  9  1  1  0  0  0
  9 10  1  0  0  0  0
 11 12  1  1  0  0  0
 11 13  1  0  0  0  0
 11 19  1  0  0  0  0
 12 35  1  0  0  0  0
 13 14  1  0  0  0  0
 14 15  1  1  0  0  0
 14 16  1  0  0  0  0
 16  2  1  6  0  0  0
 16 17  1  0  0  0  0
 17 18  1  1  0  0  0
 17 19  1  0  0  0  0
 19 20  1  6  0  0  0
 21 20  1  6  0  0  0
 21 22  1  0  0  0  0
 21 29  1  0  0  0  0
 22 23  1  6  0  0  0
 22 24  1  0  0  0  0
 24 25  1  1  0  0  0
 24 26  1  0  0  0  0
 26 27  1  6  0  0  0
 26 28  1  0  0  0  0
 28 29  1  0  0  0  0
 28 30  1  1  0  0  0
 30 31  1  0  0  0  0
 34 39  1  0  0  0  0
 35 36  2  0  0  0  0
 37 35  1  1  0  0  0
 37 38  1  0  0  0  0
 37 40  1  0  0  0  0
 38 39  1  0  0  0  0
M  END
>  <CHROM.1>
89.21777776,-177.92788773,-43.06629514,-126.59116736,159.96421939,-174.69992972
102.58806373,-153.75900010,-65.39328354,168.38516687,6.26976606,-9.68852603
11.88012136,1.59666379,0.40331518,0.38279175

>  <Name>
2g5q_lig

>  <RI>
0

>  <Rbt.Current_Directory>
/home/itssahil/PROJECTS/Mol_Feturizer/New_Systems/rnas/2g5q

>  <Rbt.Executable>
rbdock ($Id: //depot/dev/client3/rdock/2013.1/src/exe/rbdock.cxx#4 $)

>  <Rbt.Library>
libRbt.so (2013.1, Build901 2013/11/27)

>  <Rbt.Parameter_File>
/export/apps/rDock/src/rDock_2013.1_src/data/scripts/dock_solv.prm

>  <Rbt.Receptor>
prm/blind_docking_20.prm

>  <SCORE>
35.6881

>  <SCORE.INTER>
3.1462

>  <SCORE.INTER.CONST>
1

>  <SCORE.INTER.POLAR>
-0.959166

>  <SCORE.INTER.ROT>
10

>  <SCORE.INTER.SOLV>
23.951

>  <SCORE.INTER.VDW>
-12.9557

>  <SCORE.INTER.norm>
0.0786549

>  <SCORE.INTRA>
9.57695

>  <SCORE.INTRA.DIHEDRAL>
-3.62053

>  <SCORE.INTRA.DIHEDRAL.0>
22.5778

>  <SCORE.INTRA.POLAR>
0

>  <SCORE.INTRA.POLAR.0>
0

>  <SCORE.INTRA.REPUL>
0.330335

>  <SCORE.INTRA.REPUL.0>
0

>  <SCORE.INTRA.SOLV>
6.83882

>  <SCORE.INTRA.SOLV.lig_0>
-102.332

>  <SCORE.INTRA.VDW>
6.31613

>  <SCORE.INTRA.VDW.0>
-5.08747

>  <SCORE.INTRA.norm>
0.239424

>  <SCORE.RESTR>
22.965

>  <SCORE.RESTR.CAVITY>
22.965

>  <SCORE.RESTR.norm>
0.574124

>  <SCORE.SYSTEM>
0

>  <SCORE.SYSTEM.CONST>
0

>  <SCORE.SYSTEM.DIHEDRAL>
0

>  <SCORE.SYSTEM.SOLV>
0

>  <SCORE.SYSTEM.norm>
0

>  <SCORE.heavy>
40

>  <SCORE.norm>
0.892203

>  <RMSD>
10.310

$$$$
2g5q_lig
 OpenBabel11021811433D
libRbt.so/2013.1/901 2013/11/27
 40 42  0  0  0  0  0  0  0  0999 V2000
    8.9596   -2.5779   26.3196 C   0  0  2  0  0  0  0  0  0  0  0  0
    7.8510   -3.4439   26.4227 O   0  0  0  0  0  0  0  0  0  0  0  0
    8.8441   -1.7705   24.9931 C   0  0  1  0  0  0  0  0  0  0  0  0
    8.9921   -2.6870   23.7394 C   0  0  2  0  0  0  0  0  0  0  0  0
   10.3810   -3.3726   23.8144 C   0  0  2  0  0  0  0  0  0  0  0  0
   10.5655   -4.2102   22.6617 O   0  0  0  0  0  0  0  0  0  0  0  0
   10.4452   -4.2185   25.1502 C   0  0  2  0  0  0  0  0  0  0  0  0
   10.2432   -3.3278   26.3287 O   0  0  0  0  0  0  0  0  0  0  0  0
   11.7818   -4.9292   25.3350 C   0  0  0  0  0  0  0  0  0  0  0  0
   12.9389   -3.9843   25.2356 N   0  0  0  0  0  0  0  0  0  0  0  0
    3.6510   -3.8037   25.2790 C   0  0  2  0  0  0  0  0  0  0  0  0
    2.3492   -3.5062   24.6937 N   0  0  0  0  0  0  0  0  0  0  0  0
    4.0666   -2.6639   26.3007 C   0  0  0  0  0  0  0  0  0  0  0  0
    5.4733   -2.9859   26.9426 C   0  0  2  0  0  0  0  0  0  0  0  0
    5.8461   -1.9156   27.9067 N   0  0  0  0  0  0  0  0  0  0  0  0
    6.5539   -3.1320   25.7986 C   0  0  2  0  0  0  0  0  0  0  0  0
    6.1040   -4.2712   24.8003 C   0  0  2  0  0  0  0  0  0  0  0  0
    7.0807   -4.3973   23.7620 O   0  0  0  0  0  0  0  0  0  0  0  0
    4.7064   -3.9227   24.1600 C   0  0  1  0  0  0  0  0  0  0  0  0
    4.2887   -4.9794   23.2505 O   0  0  0  0  0  0  0  0  0  0  0  0
    3.0608   -4.9921   22.5647 C   0  0  2  0  0  0  0  0  0  0  0  0
    3.2204   -5.9474   21.3338 C   0  0  2  0  0  0  0  0  0  0  0  0
    3.5447   -7.2261   21.7768 O   0  0  0  0  0  0  0  0  0  0  0  0
    4.3079   -5.4061   20.3304 C   0  0  1  0  0  0  0  0  0  0  0  0
    4.4649   -6.3123   19.1453 N   0  0  0  0  0  0  0  0  0  0  0  0
    3.8826   -3.9544   19.8733 C   0  0  2  0  0  0  0  0  0  0  0  0
    4.8310   -3.4115   18.9524 O   0  0  0  0  0  0  0  0  0  0  0  0
    3.7424   -3.0515   21.1452 C   0  0  2  0  0  0  0  0  0  0  0  0
    2.7415   -3.6278   22.1074 O   0  0  0  0  0  0  0  0  0  0  0  0
    3.3085   -1.6581   20.7932 C   0  0  0  0  0  0  0  0  0  0  0  0
    2.0331   -1.6604   20.1313 O   0  0  0  0  0  0  0  0  0  0  0  0
    7.5513   -1.0729   24.9880 O   0  0  0  0  0  0  0  0  0  0  0  0
    8.8955   -1.9214   22.5983 O   0  0  0  0  0  0  0  0  0  0  0  0
   -1.2925    0.2886   21.3370 N   0  0  0  0  0  0  0  0  0  0  0  0
    2.0162   -2.3295   24.0375 C   0  0  0  0  0  0  0  0  0  0  0  0
    2.7900   -1.3914   23.8811 O   0  0  0  0  0  0  0  0  0  0  0  0
    0.5525   -2.3256   23.5392 C   0  0  1  0  0  0  0  0  0  0  0  0
    0.3003   -1.0911   22.6501 C   0  0  0  0  0  0  0  0  0  0  0  0
   -1.1603   -0.8375   22.2592 C   0  0  0  0  0  0  0  0  0  0  0  0
    0.2975   -3.5475   22.8104 O   0  0  0  0  0  0  0  0  0  0  0  0
  1  2  1  6  0  0  0
  1  3  1  0  0  0  0
  1  8  1  0  0  0  0
  3  4  1  0  0  0  0
  3 32  1  6  0  0  0
  4  5  1  0  0  0  0
  4 33  1  6  0  0  0
  5  6  1  6  0  0  0
  5  7  1  0  0  0  0
  7  8  1  0  0  0  0
  7  9  1  1  0  0  0
  9 10  1  0  0  0  0
 11 12  1  6  0  0  0
 11 13  1  0  0  0  0
 11 19  1  0  0  0  0
 12 35  1  0  0  0  0
 13 14  1  0  0  0  0
 14 15  1  1  0  0  0
 14 16  1  0  0  0  0
 16  2  1  1  0  0  0
 16 17  1  0  0  0  0
 17 18  1  6  0  0  0
 17 19  1  0  0  0  0
 19 20  1  6  0  0  0
 21 20  1  6  0  0  0
 21 22  1  0  0  0  0
 21 29  1  0  0  0  0
 22 23  1  1  0  0  0
 22 24  1  0  0  0  0
 24 25  1  6  0  0  0
 24 26  1  0  0  0  0
 26 27  1  6  0  0  0
 26 28  1  0  0  0  0
 28 29  1  0  0  0  0
 28 30  1  6  0  0  0
 30 31  1  0  0  0  0
 34 39  1  0  0  0  0
 35 36  2  0  0  0  0
 37 35  1  6  0  0  0
 37 38  1  0  0  0  0
 37 40  1  0  0  0  0
 38 39  1  0  0  0  0
M  END
>  <CHROM.1>
-28.12838737,53.59709224,54.82896329,-117.09849695,57.80441119,158.89806405
60.19849336,-171.95847337,-170.96765013,-175.65652622,5.26648127,-3.28762449
23.45012965,0.27908418,-0.25088993,1.10191771

>  <Name>
2g5q_lig

>  <RI>
224

>  <Rbt.Current_Directory>
/home/itssahil/PROJECTS/Mol_Feturizer/New_Systems/rnas/2g5q

>  <Rbt.Executable>
rbdock ($Id: //depot/dev/client3/rdock/2013.1/src/exe/rbdock.cxx#4 $)

>  <Rbt.Library>
libRbt.so (2013.1, Build901 2013/11/27)

>  <Rbt.Parameter_File>
/export/apps/rDock/src/rDock_2013.1_src/data/scripts/dock_solv.prm

>  <Rbt.Receptor>
prm/blind_docking_60.prm

>  <SCORE>
46.6913

>  <SCORE.INTER>
25.3707

>  <SCORE.INTER.CONST>
1

>  <SCORE.INTER.POLAR>
-1.05594

>  <SCORE.INTER.ROT>
10

>  <SCORE.INTER.SOLV>
28.3425

>  <SCORE.INTER.VDW>
0.719456

>  <SCORE.INTER.norm>
0.634268

>  <SCORE.INTRA>
6.40997

>  <SCORE.INTRA.DIHEDRAL>
-8.04457

>  <SCORE.INTRA.DIHEDRAL.0>
22.5778

>  <SCORE.INTRA.POLAR>
0

>  <SCORE.INTRA.POLAR.0>
0

>  <SCORE.INTRA.REPUL>
0

>  <SCORE.INTRA.REPUL.0>
0

>  <SCORE.INTRA.SOLV>
6.03472

>  <SCORE.INTRA.SOLV.lig_0>
-102.332

>  <SCORE.INTRA.VDW>
7.41489

>  <SCORE.INTRA.VDW.0>
-5.08747

>  <SCORE.INTRA.norm>
0.160249

>  <SCORE.RESTR>
14.9106

>  <SCORE.RESTR.CAVITY>
14.9106

>  <SCORE.RESTR.norm>
0.372766

>  <SCORE.SYSTEM>
0

>  <SCORE.SYSTEM.CONST>
0

>  <SCORE.SYSTEM.DIHEDRAL>
0

>  <SCORE.SYSTEM.SOLV>
0

>  <SCORE.SYSTEM.norm>
0

>  <SCORE.heavy>
40

>  <SCORE.norm>
1.16728

>  <RMSD>
10.329

$$$$
2g5q_lig
 OpenBabel11021811433D
libRbt.so/2013.1/901 2013/11/27
 40 42  0  0  0  0  0  0  0  0999 V2000
    4.4461   -5.8361   20.7564 C   0  0  2  0  0  0  0  0  0  0  0  0
    3.0487   -5.6450   20.7408 O   0  0  0  0  0  0  0  0  0  0  0  0
    4.7600   -7.1892   21.4600 C   0  0  1  0  0  0  0  0  0  0  0  0
    4.3896   -7.1568   22.9751 C   0  0  2  0  0  0  0  0  0  0  0  0
    5.2091   -6.0201   23.6394 C   0  0  2  0  0  0  0  0  0  0  0  0
    4.9123   -5.9728   25.0444 O   0  0  0  0  0  0  0  0  0  0  0  0
    4.8315   -4.6567   22.9304 C   0  0  2  0  0  0  0  0  0  0  0  0
    5.1416   -4.7356   21.4742 O   0  0  0  0  0  0  0  0  0  0  0  0
    5.5943   -3.4649   23.4989 C   0  0  0  0  0  0  0  0  0  0  0  0
    5.5566   -3.4358   24.9954 N   0  0  0  0  0  0  0  0  0  0  0  0
    1.7413   -1.4796   20.8715 C   0  0  2  0  0  0  0  0  0  0  0  0
    1.1667   -0.1999   20.4742 N   0  0  0  0  0  0  0  0  0  0  0  0
    2.9284   -1.8744   19.8965 C   0  0  0  0  0  0  0  0  0  0  0  0
    3.5586   -3.2570   20.3277 C   0  0  2  0  0  0  0  0  0  0  0  0
    4.6774   -3.6102   19.4126 N   0  0  0  0  0  0  0  0  0  0  0  0
    2.4379   -4.3715   20.3237 C   0  0  2  0  0  0  0  0  0  0  0  0
    1.2731   -3.9415   21.3010 C   0  0  2  0  0  0  0  0  0  0  0  0
    0.2568   -4.9490   21.2908 O   0  0  0  0  0  0  0  0  0  0  0  0
    0.6486   -2.5683   20.8438 C   0  0  1  0  0  0  0  0  0  0  0  0
   -0.4156   -2.1686   21.7527 O   0  0  0  0  0  0  0  0  0  0  0  0
   -0.4906   -2.5589   23.1019 C   0  0  2  0  0  0  0  0  0  0  0  0
   -1.2586   -1.4333   23.8742 C   0  0  2  0  0  0  0  0  0  0  0  0
   -2.5341   -1.2881   23.3370 O   0  0  0  0  0  0  0  0  0  0  0  0
   -0.4691   -0.0706   23.8274 C   0  0  1  0  0  0  0  0  0  0  0  0
   -1.1947    1.0131   24.5686 N   0  0  0  0  0  0  0  0  0  0  0  0
    0.9664   -0.3071   24.4445 C   0  0  2  0  0  0  0  0  0  0  0  0
    1.7303    0.9005   24.4362 O   0  0  0  0  0  0  0  0  0  0  0  0
    1.6799   -1.4382   23.6296 C   0  0  2  0  0  0  0  0  0  0  0  0
    0.8715   -2.7055   23.6453 O   0  0  0  0  0  0  0  0  0  0  0  0
    3.0437   -1.7432   24.1778 C   0  0  0  0  0  0  0  0  0  0  0  0
    3.0195   -2.9081   25.0188 O   0  0  0  0  0  0  0  0  0  0  0  0
    4.0293   -8.2543   20.7601 O   0  0  0  0  0  0  0  0  0  0  0  0
    4.6995   -8.3704   23.5485 O   0  0  0  0  0  0  0  0  0  0  0  0
    0.3647    0.5295   17.4877 N   0  0  0  0  0  0  0  0  0  0  0  0
    1.8731    0.9867   20.3357 C   0  0  0  0  0  0  0  0  0  0  0  0
    3.0768    1.0940   20.5428 O   0  0  0  0  0  0  0  0  0  0  0  0
    0.9688    2.1653   19.9071 C   0  0  1  0  0  0  0  0  0  0  0  0
    1.3160    2.6021   18.4694 C   0  0  0  0  0  0  0  0  0  0  0  0
    1.4830    1.4695   17.4498 C   0  0  0  0  0  0  0  0  0  0  0  0
   -0.4151    1.7592   20.0033 O   0  0  0  0  0  0  0  0  0  0  0  0
  1  2  1  1  0  0  0
  1  3  1  0  0  0  0
  1  8  1  0  0  0  0
  3  4  1  0  0  0  0
  3 32  1  6  0  0  0
  4  5  1  0  0  0  0
  4 33  1  1  0  0  0
  5  6  1  1  0  0  0
  5  7  1  0  0  0  0
  7  8  1  0  0  0  0
  7  9  1  1  0  0  0
  9 10  1  0  0  0  0
 11 12  1  6  0  0  0
 11 13  1  0  0  0  0
 11 19  1  0  0  0  0
 12 35  1  0  0  0  0
 13 14  1  0  0  0  0
 14 15  1  6  0  0  0
 14 16  1  0  0  0  0
 16  2  1  1  0  0  0
 16 17  1  0  0  0  0
 17 18  1  6  0  0  0
 17 19  1  0  0  0  0
 19 20  1  1  0  0  0
 21 20  1  6  0  0  0
 21 22  1  0  0  0  0
 21 29  1  0  0  0  0
 22 23  1  6  0  0  0
 22 24  1  0  0  0  0
 24 25  1  1  0  0  0
 24 26  1  0  0  0  0
 26 27  1  6  0  0  0
 26 28  1  0  0  0  0
 28 29  1  0  0  0  0
 28 30  1  1  0  0  0
 30 31  1  0  0  0  0
 34 39  1  0  0  0  0
 35 36  2  0  0  0  0
 37 35  1  6  0  0  0
 37 38  1  0  0  0  0
 37 40  1  0  0  0  0
 38 39  1  0  0  0  0
M  END
>  <CHROM.1>
170.83874236,-48.15265481,-55.95199380,-15.66779750,-92.95608177,151.77437782
99.22514990,-111.55148376,45.60836887,49.53941470,2.22077149,-2.55886740
21.93700109,-0.56023559,0.93695458,-1.14378921

>  <Name>
2g5q_lig

>  <RI>
224

>  <Rbt.Current_Directory>
/home/itssahil/PROJECTS/Mol_Feturizer/New_Systems/rnas/2g5q

>  <Rbt.Executable>
rbdock ($Id: //depot/dev/client3/rdock/2013.1/src/exe/rbdock.cxx#4 $)

>  <Rbt.Library>
libRbt.so (2013.1, Build901 2013/11/27)

>  <Rbt.Parameter_File>
/export/apps/rDock/src/rDock_2013.1_src/data/scripts/dock_solv.prm

>  <Rbt.Receptor>
prm/blind_docking_100.prm

>  <SCORE>
38.2608

>  <SCORE.INTER>
6.76223

>  <SCORE.INTER.CONST>
1

>  <SCORE.INTER.POLAR>
0

>  <SCORE.INTER.ROT>
10

>  <SCORE.INTER.SOLV>
28.6482

>  <SCORE.INTER.VDW>
-15.3079

>  <SCORE.INTER.norm>
0.169056

>  <SCORE.INTRA>
14.4488

>  <SCORE.INTRA.DIHEDRAL>
-0.858839

>  <SCORE.INTRA.DIHEDRAL.0>
22.5778

>  <SCORE.INTRA.POLAR>
0

>  <SCORE.INTRA.POLAR.0>
0

>  <SCORE.INTRA.REPUL>
0

>  <SCORE.INTRA.REPUL.0>
0

>  <SCORE.INTRA.SOLV>
11.8367

>  <SCORE.INTRA.SOLV.lig_0>
-102.332

>  <SCORE.INTRA.VDW>
8.95983

>  <SCORE.INTRA.VDW.0>
-5.08747

>  <SCORE.INTRA.norm>
0.361219

>  <SCORE.RESTR>
17.0498

>  <SCORE.RESTR.CAVITY>
17.0498

>  <SCORE.RESTR.norm>
0.426244

>  <SCORE.SYSTEM>
0

>  <SCORE.SYSTEM.CONST>
0

>  <SCORE.SYSTEM.DIHEDRAL>
0

>  <SCORE.SYSTEM.SOLV>
0

>  <SCORE.SYSTEM.norm>
0

>  <SCORE.heavy>
40

>  <SCORE.norm>
0.956519

>  <RMSD>
10.498

$$$$
2g5q_lig
 OpenBabel11021811433D
libRbt.so/2013.1/901 2013/11/27
 40 42  0  0  0  0  0  0  0  0999 V2000
    4.5533   -5.5803   20.8526 C   0  0  2  0  0  0  0  0  0  0  0  0
    3.1481   -5.4989   20.7614 O   0  0  0  0  0  0  0  0  0  0  0  0
    4.9348   -6.9252   21.5386 C   0  0  1  0  0  0  0  0  0  0  0  0
    4.4794   -6.9673   23.0300 C   0  0  2  0  0  0  0  0  0  0  0  0
    5.1674   -5.7903   23.7693 C   0  0  2  0  0  0  0  0  0  0  0  0
    4.7902   -5.8085   25.1556 O   0  0  0  0  0  0  0  0  0  0  0  0
    4.7219   -4.4401   23.0747 C   0  0  2  0  0  0  0  0  0  0  0  0
    5.1177   -4.4507   21.6373 O   0  0  0  0  0  0  0  0  0  0  0  0
    5.3544   -3.2097   23.7164 C   0  0  0  0  0  0  0  0  0  0  0  0
    6.8496   -3.2871   23.7261 N   0  0  0  0  0  0  0  0  0  0  0  0
    1.6072   -1.4135   20.8724 C   0  0  2  0  0  0  0  0  0  0  0  0
    0.9568   -0.1719   20.4709 N   0  0  0  0  0  0  0  0  0  0  0  0
    2.8050   -1.7486   19.8881 C   0  0  0  0  0  0  0  0  0  0  0  0
    3.5171   -3.0894   20.3238 C   0  0  2  0  0  0  0  0  0  0  0  0
    4.6449   -3.3863   19.3998 N   0  0  0  0  0  0  0  0  0  0  0  0
    2.4617   -4.2657   20.3405 C   0  0  2  0  0  0  0  0  0  0  0  0
    1.2842   -3.8942   21.3266 C   0  0  2  0  0  0  0  0  0  0  0  0
    0.3268   -4.9579   21.3352 O   0  0  0  0  0  0  0  0  0  0  0  0
    0.5780   -2.5626   20.8650 C   0  0  1  0  0  0  0  0  0  0  0  0
   -0.4980   -2.2163   21.7818 O   0  0  0  0  0  0  0  0  0  0  0  0
   -0.5460   -2.6138   23.1301 C   0  0  2  0  0  0  0  0  0  0  0  0
   -1.3474   -1.5199   23.9138 C   0  0  2  0  0  0  0  0  0  0  0  0
   -2.6323   -1.4196   23.3890 O   0  0  0  0  0  0  0  0  0  0  0  0
   -0.6088   -0.1289   23.8650 C   0  0  1  0  0  0  0  0  0  0  0  0
   -1.3666    0.9248   24.6171 N   0  0  0  0  0  0  0  0  0  0  0  0
    0.8401   -0.3149   24.4679 C   0  0  2  0  0  0  0  0  0  0  0  0
    1.5592    0.9200   24.4572 O   0  0  0  0  0  0  0  0  0  0  0  0
    1.5868   -1.4162   23.6420 C   0  0  2  0  0  0  0  0  0  0  0  0
    0.8256   -2.7124   23.6603 O   0  0  0  0  0  0  0  0  0  0  0  0
    2.9660   -1.6729   24.1765 C   0  0  0  0  0  0  0  0  0  0  0  0
    3.7742   -0.4858   24.1266 O   0  0  0  0  0  0  0  0  0  0  0  0
    4.3314   -8.0227   20.7707 O   0  0  0  0  0  0  0  0  0  0  0  0
    4.8529   -8.1695   23.5893 O   0  0  0  0  0  0  0  0  0  0  0  0
    2.8986    3.5720   18.7210 N   0  0  0  0  0  0  0  0  0  0  0  0
    0.2583    0.0198   19.2871 C   0  0  0  0  0  0  0  0  0  0  0  0
    0.1146   -0.8454   18.4302 O   0  0  0  0  0  0  0  0  0  0  0  0
   -0.3055    1.4538   19.1600 C   0  0  1  0  0  0  0  0  0  0  0  0
    0.7361    2.3738   18.4916 C   0  0  0  0  0  0  0  0  0  0  0  0
    2.1132    2.4217   19.1636 C   0  0  0  0  0  0  0  0  0  0  0  0
   -1.5289    1.4149   18.3913 O   0  0  0  0  0  0  0  0  0  0  0  0
  1  2  1  1  0  0  0
  1  3  1  0  0  0  0
  1  8  1  0  0  0  0
  3  4  1  0  0  0  0
  3 32  1  6  0  0  0
  4  5  1  0  0  0  0
  4 33  1  1  0  0  0
  5  6  1  1  0  0  0
  5  7  1  0  0  0  0
  7  8  1  0  0  0  0
  7  9  1  1  0  0  0
  9 10  1  0  0  0  0
 11 12  1  6  0  0  0
 11 13  1  0  0  0  0
 11 19  1  0  0  0  0
 12 35  1  0  0  0  0
 13 14  1  0  0  0  0
 14 15  1  6  0  0  0
 14 16  1  0  0  0  0
 16  2  1  1  0  0  0
 16 17  1  0  0  0  0
 17 18  1  6  0  0  0
 17 19  1  0  0  0  0
 19 20  1  1  0  0  0
 21 20  1  6  0  0  0
 21 22  1  0  0  0  0
 21 29  1  0  0  0  0
 22 23  1  6  0  0  0
 22 24  1  0  0  0  0
 24 25  1  1  0  0  0
 24 26  1  0  0  0  0
 26 27  1  6  0  0  0
 26 28  1  0  0  0  0
 28 29  1  0  0  0  0
 28 30  1  1  0  0  0
 30 31  1  0  0  0  0
 34 39  1  0  0  0  0
 35 36  2  0  0  0  0
 37 35  1  6  0  0  0
 37 38  1  0  0  0  0
 37 40  1  0  0  0  0
 38 39  1  0  0  0  0
M  END
>  <CHROM.1>
170.92432683,56.38135650,65.34650837,-11.17030349,-93.85587846,151.15373066
-60.28687427,88.77154422,-55.11211638,-163.59380649,2.12939726,-2.42482988
21.84611603,-0.58942724,0.85084877,-1.11741460

>  <Name>
2g5q_lig

>  <RI>
224

>  <Rbt.Current_Directory>
/home/itssahil/PROJECTS/Mol_Feturizer/New_Systems/rnas/2g5q

>  <Rbt.Executable>
rbdock ($Id: //depot/dev/client3/rdock/2013.1/src/exe/rbdock.cxx#4 $)

>  <Rbt.Library>
libRbt.so (2013.1, Build901 2013/11/27)

>  <Rbt.Parameter_File>
/export/apps/rDock/src/rDock_2013.1_src/data/scripts/dock_solv.prm

>  <Rbt.Receptor>
prm/blind_docking_100.prm

>  <SCORE>
37.5012

>  <SCORE.INTER>
7.98372

>  <SCORE.INTER.CONST>
1

>  <SCORE.INTER.POLAR>
-0.242957

>  <SCORE.INTER.ROT>
10

>  <SCORE.INTER.SOLV>
36.8006

>  <SCORE.INTER.VDW>
-16.4012

>  <SCORE.INTER.norm>
0.199593

>  <SCORE.INTRA>
8.63796

>  <SCORE.INTRA.DIHEDRAL>
-5.15555

>  <SCORE.INTRA.DIHEDRAL.0>
22.5778

>  <SCORE.INTRA.POLAR>
0

>  <SCORE.INTRA.POLAR.0>
0

>  <SCORE.INTRA.REPUL>
0

>  <SCORE.INTRA.REPUL.0>
0

>  <SCORE.INTRA.SOLV>
5.05064

>  <SCORE.INTRA.SOLV.lig_0>
-102.332

>  <SCORE.INTRA.VDW>
8.69042

>  <SCORE.INTRA.VDW.0>
-5.08747

>  <SCORE.INTRA.norm>
0.215949

>  <SCORE.RESTR>
20.8796

>  <SCORE.RESTR.CAVITY>
20.8796

>  <SCORE.RESTR.norm>
0.521989

>  <SCORE.SYSTEM>
0

>  <SCORE.SYSTEM.CONST>
0

>  <SCORE.SYSTEM.DIHEDRAL>
0

>  <SCORE.SYSTEM.SOLV>
0

>  <SCORE.SYSTEM.norm>
0

>  <SCORE.heavy>
40

>  <SCORE.norm>
0.937531

>  <RMSD>
10.528

$$$$
2g5q_lig
 OpenBabel11021811433D
libRbt.so/2013.1/901 2013/11/27
 40 42  0  0  0  0  0  0  0  0999 V2000
    3.0152   -9.1790   18.1445 C   0  0  2  0  0  0  0  0  0  0  0  0
    3.7303   -9.3058   19.3537 O   0  0  0  0  0  0  0  0  0  0  0  0
    2.6860  -10.6019   17.6043 C   0  0  1  0  0  0  0  0  0  0  0  0
    3.9724  -11.3737   17.1763 C   0  0  2  0  0  0  0  0  0  0  0  0
    4.6766  -10.5452   16.0706 C   0  0  2  0  0  0  0  0  0  0  0  0
    5.8575  -11.2362   15.6321 O   0  0  0  0  0  0  0  0  0  0  0  0
    5.0358   -9.1246   16.6681 C   0  0  2  0  0  0  0  0  0  0  0  0
    3.7954   -8.4332   17.1222 O   0  0  0  0  0  0  0  0  0  0  0  0
    5.7243   -8.2155   15.6556 C   0  0  0  0  0  0  0  0  0  0  0  0
    7.0411   -8.7695   15.2075 N   0  0  0  0  0  0  0  0  0  0  0  0
    4.5969   -6.3728   22.4720 C   0  0  2  0  0  0  0  0  0  0  0  0
    5.1898   -5.2442   23.1793 N   0  0  0  0  0  0  0  0  0  0  0  0
    5.7163   -7.4292   22.0885 C   0  0  0  0  0  0  0  0  0  0  0  0
    5.0772   -8.6572   21.3282 C   0  0  2  0  0  0  0  0  0  0  0  0
    6.1352   -9.6453   20.9842 N   0  0  0  0  0  0  0  0  0  0  0  0
    4.3264   -8.1443   20.0354 C   0  0  2  0  0  0  0  0  0  0  0  0
    3.2244   -7.0930   20.4564 C   0  0  2  0  0  0  0  0  0  0  0  0
    2.5504   -6.6254   19.2839 O   0  0  0  0  0  0  0  0  0  0  0  0
    3.8850   -5.8695   21.1992 C   0  0  1  0  0  0  0  0  0  0  0  0
    2.8666   -4.9088   21.5967 O   0  0  0  0  0  0  0  0  0  0  0  0
    2.0936   -4.1574   20.6933 C   0  0  2  0  0  0  0  0  0  0  0  0
    2.8874   -2.8453   20.3746 C   0  0  2  0  0  0  0  0  0  0  0  0
    4.1170   -3.1713   19.8105 O   0  0  0  0  0  0  0  0  0  0  0  0
    3.0764   -1.9660   21.6684 C   0  0  1  0  0  0  0  0  0  0  0  0
    3.8319   -0.7043   21.3724 N   0  0  0  0  0  0  0  0  0  0  0  0
    1.6476   -1.6382   22.2588 C   0  0  2  0  0  0  0  0  0  0  0  0
    1.7543   -0.8332   23.4347 O   0  0  0  0  0  0  0  0  0  0  0  0
    0.9092   -2.9867   22.5567 C   0  0  2  0  0  0  0  0  0  0  0  0
    0.7988   -3.8264   21.3147 O   0  0  0  0  0  0  0  0  0  0  0  0
   -0.4737   -2.7568   23.0937 C   0  0  0  0  0  0  0  0  0  0  0  0
   -1.2294   -1.8879   22.2342 O   0  0  0  0  0  0  0  0  0  0  0  0
    1.9531  -11.3334   18.6464 O   0  0  0  0  0  0  0  0  0  0  0  0
    3.6225  -12.6163   16.6958 O   0  0  0  0  0  0  0  0  0  0  0  0
    5.9632   -0.5816   24.9699 N   0  0  0  0  0  0  0  0  0  0  0  0
    4.9327   -4.9019   24.4995 C   0  0  0  0  0  0  0  0  0  0  0  0
    4.1602   -5.5162   25.2270 O   0  0  0  0  0  0  0  0  0  0  0  0
    5.7169   -3.6470   24.9473 C   0  0  1  0  0  0  0  0  0  0  0  0
    4.7674   -2.6508   25.6431 C   0  0  0  0  0  0  0  0  0  0  0  0
    5.4001   -1.3287   26.0927 C   0  0  0  0  0  0  0  0  0  0  0  0
    6.7849   -4.0481   25.8349 O   0  0  0  0  0  0  0  0  0  0  0  0
  1  2  1  1  0  0  0
  1  3  1  0  0  0  0
  1  8  1  0  0  0  0
  3  4  1  0  0  0  0
  3 32  1  1  0  0  0
  4  5  1  0  0  0  0
  4 33  1  6  0  0  0
  5  6  1  1  0  0  0
  5  7  1  0  0  0  0
  7  8  1  0  0  0  0
  7  9  1  6  0  0  0
  9 10  1  0  0  0  0
 11 12  1  6  0  0  0
 11 13  1  0  0  0  0
 11 19  1  0  0  0  0
 12 35  1  0  0  0  0
 13 14  1  0  0  0  0
 14 15  1  6  0  0  0
 14 16  1  0  0  0  0
 16  2  1  1  0  0  0
 16 17  1  0  0  0  0
 17 18  1  6  0  0  0
 17 19  1  0  0  0  0
 19 20  1  1  0  0  0
 21 20  1  1  0  0  0
 21 22  1  0  0  0  0
 21 29  1  0  0  0  0
 22 23  1  1  0  0  0
 22 24  1  0  0  0  0
 24 25  1  6  0  0  0
 24 26  1  0  0  0  0
 26 27  1  1  0  0  0
 26 28  1  0  0  0  0
 28 29  1  0  0  0  0
 28 30  1  6  0  0  0
 30 31  1  0  0  0  0
 34 39  1  0  0  0  0
 35 36  2  0  0  0  0
 37 35  1  1  0  0  0
 37 38  1  0  0  0  0
 37 40  1  0  0  0  0
 38 39  1  0  0  0  0
M  END
>  <CHROM.1>
172.67937809,-62.79857671,-115.12761350,-178.53942291,174.41273878,-88.14204327
52.98224740,131.18523368,-177.65645772,60.05486655,3.76820147,-6.01369304
20.80389771,1.44707134,0.59230888,-2.37597715

>  <Name>
2g5q_lig

>  <RI>
2.90231e+07

>  <Rbt.Current_Directory>
/home/itssahil/PROJECTS/Mol_Feturizer/New_Systems/rnas/2g5q

>  <Rbt.Executable>
rbdock ($Id: //depot/dev/client3/rdock/2013.1/src/exe/rbdock.cxx#4 $)

>  <Rbt.Library>
libRbt.so (2013.1, Build901 2013/11/27)

>  <Rbt.Parameter_File>
/export/apps/rDock/src/rDock_2013.1_src/data/scripts/dock_solv.prm

>  <Rbt.Receptor>
prm/pocket_docking_6.prm

>  <SCORE>
-17.5498

>  <SCORE.INTER>
-11.1317

>  <SCORE.INTER.CONST>
1

>  <SCORE.INTER.POLAR>
0

>  <SCORE.INTER.ROT>
10

>  <SCORE.INTER.SOLV>
17.4413

>  <SCORE.INTER.VDW>
-23.5016

>  <SCORE.INTER.norm>
-0.278294

>  <SCORE.INTRA>
-6.43507

>  <SCORE.INTRA.DIHEDRAL>
-15.1911

>  <SCORE.INTRA.DIHEDRAL.0>
22.5778

>  <SCORE.INTRA.POLAR>
0

>  <SCORE.INTRA.POLAR.0>
0

>  <SCORE.INTRA.REPUL>
0

>  <SCORE.INTRA.REPUL.0>
0

>  <SCORE.INTRA.SOLV>
1.27037

>  <SCORE.INTRA.SOLV.lig_0>
-102.332

>  <SCORE.INTRA.VDW>
0.525296

>  <SCORE.INTRA.VDW.0>
-5.08747

>  <SCORE.INTRA.norm>
-0.160877

>  <SCORE.RESTR>
0.0170066

>  <SCORE.RESTR.CAVITY>
0.0170066

>  <SCORE.RESTR.norm>
0.000425165

>  <SCORE.SYSTEM>
0

>  <SCORE.SYSTEM.CONST>
0

>  <SCORE.SYSTEM.DIHEDRAL>
0

>  <SCORE.SYSTEM.SOLV>
0

>  <SCORE.SYSTEM.norm>
0

>  <SCORE.heavy>
40

>  <SCORE.norm>
-0.438745

>  <RMSD>
10.602

$$$$
2g5q_lig
 OpenBabel11021811433D
libRbt.so/2013.1/901 2013/11/27
 40 42  0  0  0  0  0  0  0  0999 V2000
    5.2652   -8.5206   21.6366 C   0  0  2  0  0  0  0  0  0  0  0  0
    4.4159   -7.7755   20.7923 O   0  0  0  0  0  0  0  0  0  0  0  0
    5.7939   -9.7574   20.8521 C   0  0  1  0  0  0  0  0  0  0  0  0
    4.6518  -10.7663   20.5181 C   0  0  2  0  0  0  0  0  0  0  0  0
    4.0204  -11.2280   21.8571 C   0  0  2  0  0  0  0  0  0  0  0  0
    2.9761  -12.1787   21.5925 O   0  0  0  0  0  0  0  0  0  0  0  0
    3.4548   -9.9530   22.6046 C   0  0  2  0  0  0  0  0  0  0  0  0
    4.5558   -8.9805   22.8595 O   0  0  0  0  0  0  0  0  0  0  0  0
    2.8193  -10.2907   23.9491 C   0  0  0  0  0  0  0  0  0  0  0  0
    1.6706  -11.2401   23.8048 N   0  0  0  0  0  0  0  0  0  0  0  0
    2.6516   -3.7909   21.0878 C   0  0  2  0  0  0  0  0  0  0  0  0
    1.8368   -2.6724   21.5470 N   0  0  0  0  0  0  0  0  0  0  0  0
    1.7251   -5.0032   20.6546 C   0  0  0  0  0  0  0  0  0  0  0  0
    2.6036   -6.2146   20.1496 C   0  0  2  0  0  0  0  0  0  0  0  0
    1.7228   -7.3403   19.7360 N   0  0  0  0  0  0  0  0  0  0  0  0
    3.6018   -6.6550   21.2931 C   0  0  2  0  0  0  0  0  0  0  0  0
    4.5030   -5.4225   21.7001 C   0  0  2  0  0  0  0  0  0  0  0  0
    5.4015   -5.8218   22.7399 O   0  0  0  0  0  0  0  0  0  0  0  0
    3.6080   -4.2315   22.2153 C   0  0  1  0  0  0  0  0  0  0  0  0
    4.4397   -3.0934   22.5778 O   0  0  0  0  0  0  0  0  0  0  0  0
    5.3976   -3.1108   23.6075 C   0  0  2  0  0  0  0  0  0  0  0  0
    4.6316   -2.9490   24.9640 C   0  0  2  0  0  0  0  0  0  0  0  0
    3.7313   -3.9990   25.1177 O   0  0  0  0  0  0  0  0  0  0  0  0
    3.8938   -1.5588   25.0387 C   0  0  1  0  0  0  0  0  0  0  0  0
    3.1606   -1.3923   26.3368 N   0  0  0  0  0  0  0  0  0  0  0  0
    4.9688   -0.4157   24.8517 C   0  0  2  0  0  0  0  0  0  0  0  0
    4.3579    0.8745   24.9177 O   0  0  0  0  0  0  0  0  0  0  0  0
    5.6951   -0.6327   23.4813 C   0  0  2  0  0  0  0  0  0  0  0  0
    6.3371   -1.9907   23.4209 O   0  0  0  0  0  0  0  0  0  0  0  0
    6.7577    0.4010   23.2450 C   0  0  0  0  0  0  0  0  0  0  0  0
    6.1843    1.7053   23.0582 O   0  0  0  0  0  0  0  0  0  0  0  0
    6.4527   -9.2811   19.6284 O   0  0  0  0  0  0  0  0  0  0  0  0
    5.1763  -11.8433   19.8380 O   0  0  0  0  0  0  0  0  0  0  0  0
    0.9900   -0.0232   18.7676 N   0  0  0  0  0  0  0  0  0  0  0  0
    2.0767   -1.3359   21.2602 C   0  0  0  0  0  0  0  0  0  0  0  0
    3.0200   -0.9403   20.5841 O   0  0  0  0  0  0  0  0  0  0  0  0
    1.0301   -0.3972   21.9035 C   0  0  1  0  0  0  0  0  0  0  0  0
    0.8977    0.8952   21.0725 C   0  0  0  0  0  0  0  0  0  0  0  0
    0.1931    0.7489   19.7188 C   0  0  0  0  0  0  0  0  0  0  0  0
   -0.2366   -1.0883   21.9884 O   0  0  0  0  0  0  0  0  0  0  0  0
  1  2  1  6  0  0  0
  1  3  1  0  0  0  0
  1  8  1  0  0  0  0
  3  4  1  0  0  0  0
  3 32  1  6  0  0  0
  4  5  1  0  0  0  0
  4 33  1  1  0  0  0
  5  6  1  6  0  0  0
  5  7  1  0  0  0  0
  7  8  1  0  0  0  0
  7  9  1  1  0  0  0
  9 10  1  0  0  0  0
 11 12  1  1  0  0  0
 11 13  1  0  0  0  0
 11 19  1  0  0  0  0
 12 35  1  0  0  0  0
 13 14  1  0  0  0  0
 14 15  1  1  0  0  0
 14 16  1  0  0  0  0
 16  2  1  6  0  0  0
 16 17  1  0  0  0  0
 17 18  1  1  0  0  0
 17 19  1  0  0  0  0
 19 20  1  6  0  0  0
 21 20  1  6  0  0  0
 21 22  1  0  0  0  0
 21 29  1  0  0  0  0
 22 23  1  6  0  0  0
 22 24  1  0  0  0  0
 24 25  1  1  0  0  0
 24 26  1  0  0  0  0
 26 27  1  6  0  0  0
 26 28  1  0  0  0  0
 28 29  1  0  0  0  0
 28 30  1  1  0  0  0
 30 31  1  0  0  0  0
 34 39  1  0  0  0  0
 35 36  2  0  0  0  0
 37 35  1  6  0  0  0
 37 38  1  0  0  0  0
 37 40  1  0  0  0  0
 38 39  1  0  0  0  0
M  END
>  <CHROM.1>
170.95320315,-59.99703430,-139.30483644,-170.57763280,177.56114194,-78.94567720
-67.46935722,-152.86495816,71.85513901,-68.80157670,3.68601065,-4.68699621
22.17516953,-1.47312961,-0.72943139,0.18819461

>  <Name>
2g5q_lig

>  <RI>
2.47104e+07

>  <Rbt.Current_Directory>
/home/itssahil/PROJECTS/Mol_Feturizer/New_Systems/rnas/2g5q

>  <Rbt.Executable>
rbdock ($Id: //depot/dev/client3/rdock/2013.1/src/exe/rbdock.cxx#4 $)

>  <Rbt.Library>
libRbt.so (2013.1, Build901 2013/11/27)

>  <Rbt.Parameter_File>
/export/apps/rDock/src/rDock_2013.1_src/data/scripts/dock_solv.prm

>  <Rbt.Receptor>
prm/pocket_docking_7.prm

>  <SCORE>
-22.8927

>  <SCORE.INTER>
-17.4423

>  <SCORE.INTER.CONST>
1

>  <SCORE.INTER.POLAR>
-1.66485

>  <SCORE.INTER.ROT>
10

>  <SCORE.INTER.SOLV>
18.2451

>  <SCORE.INTER.VDW>
-22.4271

>  <SCORE.INTER.norm>
-0.436057

>  <SCORE.INTRA>
-5.45043

>  <SCORE.INTRA.DIHEDRAL>
-16.6755

>  <SCORE.INTRA.DIHEDRAL.0>
22.5778

>  <SCORE.INTRA.POLAR>
0

>  <SCORE.INTRA.POLAR.0>
0

>  <SCORE.INTRA.REPUL>
0

>  <SCORE.INTRA.REPUL.0>
0

>  <SCORE.INTRA.SOLV>
4.30834

>  <SCORE.INTRA.SOLV.lig_0>
-102.332

>  <SCORE.INTRA.VDW>
0.733167

>  <SCORE.INTRA.VDW.0>
-5.08747

>  <SCORE.INTRA.norm>
-0.136261

>  <SCORE.RESTR>
0

>  <SCORE.RESTR.CAVITY>
0

>  <SCORE.RESTR.norm>
0

>  <SCORE.SYSTEM>
0

>  <SCORE.SYSTEM.CONST>
0

>  <SCORE.SYSTEM.DIHEDRAL>
0

>  <SCORE.SYSTEM.SOLV>
0

>  <SCORE.SYSTEM.norm>
0

>  <SCORE.heavy>
40

>  <SCORE.norm>
-0.572318

>  <RMSD>
10.602

$$$$
2g5q_lig
 OpenBabel11021811433D
libRbt.so/2013.1/901 2013/11/27
 40 42  0  0  0  0  0  0  0  0999 V2000
    4.0410   -5.9392   21.1599 C   0  0  2  0  0  0  0  0  0  0  0  0
    2.7258   -5.5637   21.5046 O   0  0  0  0  0  0  0  0  0  0  0  0
    4.2596   -7.4279   21.5611 C   0  0  1  0  0  0  0  0  0  0  0  0
    4.2287   -7.6240   23.1084 C   0  0  2  0  0  0  0  0  0  0  0  0
    5.3526   -6.7478   23.7200 C   0  0  2  0  0  0  0  0  0  0  0  0
    5.3720   -6.9191   25.1464 O   0  0  0  0  0  0  0  0  0  0  0  0
    5.0734   -5.2397   23.3304 C   0  0  2  0  0  0  0  0  0  0  0  0
    5.0507   -5.0915   21.8470 O   0  0  0  0  0  0  0  0  0  0  0  0
    6.1320   -4.2847   23.8715 C   0  0  0  0  0  0  0  0  0  0  0  0
    5.8306   -2.8589   23.5279 N   0  0  0  0  0  0  0  0  0  0  0  0
    2.5207   -1.4314   20.1049 C   0  0  2  0  0  0  0  0  0  0  0  0
    1.9898   -0.1314   19.7126 N   0  0  0  0  0  0  0  0  0  0  0  0
    1.9003   -2.5742   19.1967 C   0  0  0  0  0  0  0  0  0  0  0  0
    2.4783   -3.9837   19.6137 C   0  0  2  0  0  0  0  0  0  0  0  0
    1.8973   -5.0449   18.7475 N   0  0  0  0  0  0  0  0  0  0  0  0
    2.1660   -4.2513   21.1397 C   0  0  2  0  0  0  0  0  0  0  0  0
    2.7949   -3.0923   22.0105 C   0  0  2  0  0  0  0  0  0  0  0  0
    2.5055   -3.3334   23.3911 O   0  0  0  0  0  0  0  0  0  0  0  0
    2.1934   -1.6976   21.5889 C   0  0  1  0  0  0  0  0  0  0  0  0
    2.7833   -0.6307   22.3839 O   0  0  0  0  0  0  0  0  0  0  0  0
    2.1705   -0.0534   23.5105 C   0  0  2  0  0  0  0  0  0  0  0  0
    1.1571   -1.1017   24.0825 C   0  0  2  0  0  0  0  0  0  0  0  0
    1.8392   -2.2611   24.4390 O   0  0  0  0  0  0  0  0  0  0  0  0
    0.0161   -1.4165   23.0425 C   0  0  1  0  0  0  0  0  0  0  0  0
   -0.9626   -2.4166   23.5831 N   0  0  0  0  0  0  0  0  0  0  0  0
   -0.7110   -0.0615   22.6781 C   0  0  2  0  0  0  0  0  0  0  0  0
   -1.7655   -0.2850   21.7399 O   0  0  0  0  0  0  0  0  0  0  0  0
    0.3525    0.9391   22.1122 C   0  0  2  0  0  0  0  0  0  0  0  0
    1.4566    1.1708   23.1057 O   0  0  0  0  0  0  0  0  0  0  0  0
   -0.2594    2.2667   21.7706 C   0  0  0  0  0  0  0  0  0  0  0  0
   -1.4284    2.1069   20.9504 O   0  0  0  0  0  0  0  0  0  0  0  0
    3.2258   -8.2396   20.9049 O   0  0  0  0  0  0  0  0  0  0  0  0
    4.4398   -8.9523   23.4061 O   0  0  0  0  0  0  0  0  0  0  0  0
    1.9999    3.7138   16.0397 N   0  0  0  0  0  0  0  0  0  0  0  0
    0.7121    0.0965   19.2208 C   0  0  0  0  0  0  0  0  0  0  0  0
   -0.1228   -0.7853   19.0518 O   0  0  0  0  0  0  0  0  0  0  0  0
    0.4634    1.5867   18.8925 C   0  0  1  0  0  0  0  0  0  0  0  0
    1.4559    2.0628   17.8124 C   0  0  0  0  0  0  0  0  0  0  0  0
    1.1886    3.4543   17.2272 C   0  0  0  0  0  0  0  0  0  0  0  0
   -0.9020    1.7517   18.4476 O   0  0  0  0  0  0  0  0  0  0  0  0
  1  2  1  1  0  0  0
  1  3  1  0  0  0  0
  1  8  1  0  0  0  0
  3  4  1  0  0  0  0
  3 32  1  6  0  0  0
  4  5  1  0  0  0  0
  4 33  1  6  0  0  0
  5  6  1  1  0  0  0
  5  7  1  0  0  0  0
  7  8  1  0  0  0  0
  7  9  1  1  0  0  0
  9 10  1  0  0  0  0
 11 12  1  6  0  0  0
 11 13  1  0  0  0  0
 11 19  1  0  0  0  0
 12 35  1  0  0  0  0
 13 14  1  0  0  0  0
 14 15  1  6  0  0  0
 14 16  1  0  0  0  0
 16  2  1  1  0  0  0
 16 17  1  0  0  0  0
 17 18  1  1  0  0  0
 17 19  1  0  0  0  0
 19 20  1  1  0  0  0
 21 20  1  6  0  0  0
 21 22  1  0  0  0  0
 21 29  1  0  0  0  0
 22 23  1  6  0  0  0
 22 24  1  0  0  0  0
 24 25  1  1  0  0  0
 24 26  1  0  0  0  0
 26 27  1  6  0  0  0
 26 28  1  0  0  0  0
 28 29  1  0  0  0  0
 28 30  1  1  0  0  0
 30 31  1  0  0  0  0
 34 39  1  0  0  0  0
 35 36  2  0  0  0  0
 37 35  1  6  0  0  0
 37 38  1  0  0  0  0
 37 40  1  0  0  0  0
 38 39  1  0  0  0  0
M  END
>  <CHROM.1>
-174.14494332,-178.31833747,32.78064747,47.58281068,141.66647623,23.85912137
-50.38258580,60.74116688,170.76841430,-168.55487547,2.12878037,-2.27220402
21.48591256,-0.48580512,1.06724638,-1.40680148

>  <Name>
2g5q_lig

>  <RI>
224

>  <Rbt.Current_Directory>
/home/itssahil/PROJECTS/Mol_Feturizer/New_Systems/rnas/2g5q

>  <Rbt.Executable>
rbdock ($Id: //depot/dev/client3/rdock/2013.1/src/exe/rbdock.cxx#4 $)

>  <Rbt.Library>
libRbt.so (2013.1, Build901 2013/11/27)

>  <Rbt.Parameter_File>
/export/apps/rDock/src/rDock_2013.1_src/data/scripts/dock_solv.prm

>  <Rbt.Receptor>
prm/blind_docking_100.prm

>  <SCORE>
118.092

>  <SCORE.INTER>
74.0304

>  <SCORE.INTER.CONST>
1

>  <SCORE.INTER.POLAR>
-0.6371

>  <SCORE.INTER.ROT>
10

>  <SCORE.INTER.SOLV>
37.0257

>  <SCORE.INTER.VDW>
28.8687

>  <SCORE.INTER.norm>
1.85076

>  <SCORE.INTRA>
21.4852

>  <SCORE.INTRA.DIHEDRAL>
-9.37116

>  <SCORE.INTRA.DIHEDRAL.0>
22.5778

>  <SCORE.INTRA.POLAR>
0

>  <SCORE.INTRA.POLAR.0>
0

>  <SCORE.INTRA.REPUL>
0.0365145

>  <SCORE.INTRA.REPUL.0>
0

>  <SCORE.INTRA.SOLV>
7.87285

>  <SCORE.INTRA.SOLV.lig_0>
-102.332

>  <SCORE.INTRA.VDW>
22.0518

>  <SCORE.INTRA.VDW.0>
-5.08747

>  <SCORE.INTRA.norm>
0.53713

>  <SCORE.RESTR>
22.5761

>  <SCORE.RESTR.CAVITY>
22.5761

>  <SCORE.RESTR.norm>
0.564402

>  <SCORE.SYSTEM>
0

>  <SCORE.SYSTEM.CONST>
0

>  <SCORE.SYSTEM.DIHEDRAL>
0

>  <SCORE.SYSTEM.SOLV>
0

>  <SCORE.SYSTEM.norm>
0

>  <SCORE.heavy>
40

>  <SCORE.norm>
2.95229

>  <RMSD>
10.606

$$$$
2g5q_lig
 OpenBabel11021811433D
libRbt.so/2013.1/901 2013/11/27
 40 42  0  0  0  0  0  0  0  0999 V2000
    3.3370   -5.9211   21.0014 C   0  0  2  0  0  0  0  0  0  0  0  0
    2.0363   -5.6808   21.4911 O   0  0  0  0  0  0  0  0  0  0  0  0
    3.8310   -7.2954   21.5416 C   0  0  1  0  0  0  0  0  0  0  0  0
    4.0327   -7.2741   23.0884 C   0  0  2  0  0  0  0  0  0  0  0  0
    5.0795   -6.1776   23.4151 C   0  0  2  0  0  0  0  0  0  0  0  0
    5.3108   -6.1422   24.8327 O   0  0  0  0  0  0  0  0  0  0  0  0
    4.5246   -4.7907   22.8929 C   0  0  2  0  0  0  0  0  0  0  0  0
    4.2862   -4.8572   21.4227 O   0  0  0  0  0  0  0  0  0  0  0  0
    5.4863   -3.6356   23.1508 C   0  0  0  0  0  0  0  0  0  0  0  0
    6.4244   -3.9271   24.2807 N   0  0  0  0  0  0  0  0  0  0  0  0
    0.9772   -1.5204   20.6875 C   0  0  2  0  0  0  0  0  0  0  0  0
    0.2292   -0.3439   20.2605 N   0  0  0  0  0  0  0  0  0  0  0  0
    1.2118   -2.4967   19.4597 C   0  0  0  0  0  0  0  0  0  0  0  0
    2.0281   -3.7694   19.9164 C   0  0  2  0  0  0  0  0  0  0  0  0
    2.2510   -4.6711   18.7540 N   0  0  0  0  0  0  0  0  0  0  0  0
    1.2486   -4.5076   21.0763 C   0  0  2  0  0  0  0  0  0  0  0  0
    1.0304   -3.5040   22.2772 C   0  0  2  0  0  0  0  0  0  0  0  0
    0.3190   -4.1726   23.3235 O   0  0  0  0  0  0  0  0  0  0  0  0
    0.2012   -2.2497   21.8037 C   0  0  1  0  0  0  0  0  0  0  0  0
    0.0123   -1.3213   22.9085 O   0  0  0  0  0  0  0  0  0  0  0  0
    0.9552   -1.1059   23.9296 C   0  0  2  0  0  0  0  0  0  0  0  0
    0.9180    0.4181   24.2891 C   0  0  2  0  0  0  0  0  0  0  0  0
   -0.3584    0.7622   24.7236 O   0  0  0  0  0  0  0  0  0  0  0  0
    1.3527    1.3034   23.0603 C   0  0  1  0  0  0  0  0  0  0  0  0
    1.3247    2.7652   23.3962 N   0  0  0  0  0  0  0  0  0  0  0  0
    2.8024    0.8583   22.6159 C   0  0  2  0  0  0  0  0  0  0  0  0
    3.2558    1.6342   21.5048 O   0  0  0  0  0  0  0  0  0  0  0  0
    2.7715   -0.6687   22.2697 C   0  0  2  0  0  0  0  0  0  0  0  0
    2.2960   -1.4780   23.4439 O   0  0  0  0  0  0  0  0  0  0  0  0
    4.1260   -1.1752   21.8666 C   0  0  0  0  0  0  0  0  0  0  0  0
    4.0253   -2.1676   20.8323 O   0  0  0  0  0  0  0  0  0  0  0  0
    2.8568   -8.3229   21.1499 O   0  0  0  0  0  0  0  0  0  0  0  0
    4.4813   -8.5067   23.5089 O   0  0  0  0  0  0  0  0  0  0  0  0
    2.4500    1.9941   18.8570 N   0  0  0  0  0  0  0  0  0  0  0  0
    0.3610    0.2861   19.0309 C   0  0  0  0  0  0  0  0  0  0  0  0
    1.1389   -0.0781   18.1559 O   0  0  0  0  0  0  0  0  0  0  0  0
   -0.5717    1.5115   18.8927 C   0  0  1  0  0  0  0  0  0  0  0  0
    0.1537    2.7846   19.3733 C   0  0  0  0  0  0  0  0  0  0  0  0
    1.4935    3.0867   18.6922 C   0  0  0  0  0  0  0  0  0  0  0  0
   -0.9817    1.6408   17.5126 O   0  0  0  0  0  0  0  0  0  0  0  0
  1  2  1  1  0  0  0
  1  3  1  0  0  0  0
  1  8  1  0  0  0  0
  3  4  1  0  0  0  0
  3 32  1  1  0  0  0
  4  5  1  0  0  0  0
  4 33  1  6  0  0  0
  5  6  1  1  0  0  0
  5  7  1  0  0  0  0
  7  8  1  0  0  0  0
  7  9  1  6  0  0  0
  9 10  1  0  0  0  0
 11 12  1  6  0  0  0
 11 13  1  0  0  0  0
 11 19  1  0  0  0  0
 12 35  1  0  0  0  0
 13 14  1  0  0  0  0
 14 15  1  6  0  0  0
 14 16  1  0  0  0  0
 16  2  1  1  0  0  0
 16 17  1  0  0  0  0
 17 18  1  1  0  0  0
 17 19  1  0  0  0  0
 19 20  1  1  0  0  0
 21 20  1  6  0  0  0
 21 22  1  0  0  0  0
 21 29  1  0  0  0  0
 22 23  1  6  0  0  0
 22 24  1  0  0  0  0
 24 25  1  1  0  0  0
 24 26  1  0  0  0  0
 26 27  1  6  0  0  0
 26 28  1  0  0  0  0
 28 29  1  0  0  0  0
 28 30  1  1  0  0  0
 30 31  1  0  0  0  0
 34 39  1  0  0  0  0
 35 36  2  0  0  0  0
 37 35  1  6  0  0  0
 37 38  1  0  0  0  0
 37 40  1  0  0  0  0
 38 39  1  0  0  0  0
M  END
>  <CHROM.1>
-175.21800149,-23.37437145,-35.99215056,7.44916115,-85.60793296,142.91326180
-143.91258887,90.82370598,55.38200963,-58.41108734,2.22542422,-2.24492255
21.62744587,0.58759878,1.10228960,-2.49910554

>  <Name>
2g5q_lig

>  <RI>
224

>  <Rbt.Current_Directory>
/home/itssahil/PROJECTS/Mol_Feturizer/New_Systems/rnas/2g5q

>  <Rbt.Executable>
rbdock ($Id: //depot/dev/client3/rdock/2013.1/src/exe/rbdock.cxx#4 $)

>  <Rbt.Library>
libRbt.so (2013.1, Build901 2013/11/27)

>  <Rbt.Parameter_File>
/export/apps/rDock/src/rDock_2013.1_src/data/scripts/dock_solv.prm

>  <Rbt.Receptor>
prm/blind_docking_100.prm

>  <SCORE>
73.3498

>  <SCORE.INTER>
35.4515

>  <SCORE.INTER.CONST>
1

>  <SCORE.INTER.POLAR>
0

>  <SCORE.INTER.ROT>
10

>  <SCORE.INTER.SOLV>
29.8131

>  <SCORE.INTER.VDW>
3.42994

>  <SCORE.INTER.norm>
0.886287

>  <SCORE.INTRA>
15.7454

>  <SCORE.INTRA.DIHEDRAL>
1.34143

>  <SCORE.INTRA.DIHEDRAL.0>
22.5778

>  <SCORE.INTRA.POLAR>
0

>  <SCORE.INTRA.POLAR.0>
0

>  <SCORE.INTRA.REPUL>
0.0119299

>  <SCORE.INTRA.REPUL.0>
0

>  <SCORE.INTRA.SOLV>
12.4106

>  <SCORE.INTRA.SOLV.lig_0>
-102.332

>  <SCORE.INTRA.VDW>
8.80969

>  <SCORE.INTRA.VDW.0>
-5.08747

>  <SCORE.INTRA.norm>
0.393634

>  <SCORE.RESTR>
22.153

>  <SCORE.RESTR.CAVITY>
22.153

>  <SCORE.RESTR.norm>
0.553824

>  <SCORE.SYSTEM>
0

>  <SCORE.SYSTEM.CONST>
0

>  <SCORE.SYSTEM.DIHEDRAL>
0

>  <SCORE.SYSTEM.SOLV>
0

>  <SCORE.SYSTEM.norm>
0

>  <SCORE.heavy>
40

>  <SCORE.norm>
1.83374

>  <RMSD>
10.607

$$$$
2g5q_lig
 OpenBabel11021811433D
libRbt.so/2013.1/901 2013/11/27
 40 42  0  0  0  0  0  0  0  0999 V2000
    3.6161   -9.2414   18.6180 C   0  0  2  0  0  0  0  0  0  0  0  0
    3.0097   -8.0911   19.1645 O   0  0  0  0  0  0  0  0  0  0  0  0
    4.1180   -8.9099   17.1817 C   0  0  1  0  0  0  0  0  0  0  0  0
    2.9362   -8.6326   16.2019 C   0  0  2  0  0  0  0  0  0  0  0  0
    2.0442   -9.9006   16.1640 C   0  0  2  0  0  0  0  0  0  0  0  0
    0.9536   -9.6928   15.2519 O   0  0  0  0  0  0  0  0  0  0  0  0
    1.5167  -10.1801   17.6295 C   0  0  2  0  0  0  0  0  0  0  0  0
    2.6671  -10.3840   18.5558 O   0  0  0  0  0  0  0  0  0  0  0  0
    0.6344  -11.4212   17.7123 C   0  0  0  0  0  0  0  0  0  0  0  0
   -0.6736  -11.2285   17.0096 N   0  0  0  0  0  0  0  0  0  0  0  0
    4.3618   -5.3226   22.2604 C   0  0  2  0  0  0  0  0  0  0  0  0
    5.1352   -4.3022   22.9578 N   0  0  0  0  0  0  0  0  0  0  0  0
    5.2915   -6.5495   21.8778 C   0  0  0  0  0  0  0  0  0  0  0  0
    4.4561   -7.6607   21.1283 C   0  0  2  0  0  0  0  0  0  0  0  0
    5.3366   -8.8100   20.7850 N   0  0  0  0  0  0  0  0  0  0  0  0
    3.7914   -7.0389   19.8361 C   0  0  2  0  0  0  0  0  0  0  0  0
    2.8783   -5.8197   20.2562 C   0  0  2  0  0  0  0  0  0  0  0  0
    2.2826   -5.2545   19.0842 O   0  0  0  0  0  0  0  0  0  0  0  0
    3.7341   -4.7166   20.9881 C   0  0  1  0  0  0  0  0  0  0  0  0
    2.8884   -3.6004   21.3848 O   0  0  0  0  0  0  0  0  0  0  0  0
    3.3659   -2.4221   21.9864 C   0  0  2  0  0  0  0  0  0  0  0  0
    2.3438   -2.0172   23.1020 C   0  0  2  0  0  0  0  0  0  0  0  0
    2.2503   -3.0404   24.0405 O   0  0  0  0  0  0  0  0  0  0  0  0
    0.9315   -1.6860   22.4870 C   0  0  1  0  0  0  0  0  0  0  0  0
   -0.0536   -1.2925   23.5476 N   0  0  0  0  0  0  0  0  0  0  0  0
    1.1103   -0.5251   21.4298 C   0  0  2  0  0  0  0  0  0  0  0  0
   -0.1435   -0.1744   20.8406 O   0  0  0  0  0  0  0  0  0  0  0  0
    2.1388   -0.9920   20.3449 C   0  0  2  0  0  0  0  0  0  0  0  0
    3.4555   -1.3565   20.9722 O   0  0  0  0  0  0  0  0  0  0  0  0
    2.3862    0.0743   19.3176 C   0  0  0  0  0  0  0  0  0  0  0  0
    1.2234    0.2930   18.5022 O   0  0  0  0  0  0  0  0  0  0  0  0
    5.0196   -7.7529   17.2629 O   0  0  0  0  0  0  0  0  0  0  0  0
    3.4355   -8.3591   14.9476 O   0  0  0  0  0  0  0  0  0  0  0  0
    3.5426   -1.1007   26.4686 N   0  0  0  0  0  0  0  0  0  0  0  0
    5.5615   -4.3820   24.2761 C   0  0  0  0  0  0  0  0  0  0  0  0
    5.3250   -5.3316   25.0149 O   0  0  0  0  0  0  0  0  0  0  0  0
    6.3550   -3.1303   24.7166 C   0  0  1  0  0  0  0  0  0  0  0  0
    5.3840   -1.9810   25.0548 C   0  0  0  0  0  0  0  0  0  0  0  0
    4.4279   -2.2378   26.2254 C   0  0  0  0  0  0  0  0  0  0  0  0
    7.1742   -3.4671   25.8589 O   0  0  0  0  0  0  0  0  0  0  0  0
  1  2  1  6  0  0  0
  1  3  1  0  0  0  0
  1  8  1  0  0  0  0
  3  4  1  0  0  0  0
  3 32  1  1  0  0  0
  4  5  1  0  0  0  0
  4 33  1  6  0  0  0
  5  6  1  6  0  0  0
  5  7  1  0  0  0  0
  7  8  1  0  0  0  0
  7  9  1  6  0  0  0
  9 10  1  0  0  0  0
 11 12  1  6  0  0  0
 11 13  1  0  0  0  0
 11 19  1  0  0  0  0
 12 35  1  0  0  0  0
 13 14  1  0  0  0  0
 14 15  1  6  0  0  0
 14 16  1  0  0  0  0
 16  2  1  1  0  0  0
 16 17  1  0  0  0  0
 17 18  1  6  0  0  0
 17 19  1  0  0  0  0
 19 20  1  1  0  0  0
 21 20  1  6  0  0  0
 21 22  1  0  0  0  0
 21 29  1  0  0  0  0
 22 23  1  1  0  0  0
 22 24  1  0  0  0  0
 24 25  1  1  0  0  0
 24 26  1  0  0  0  0
 26 27  1  6  0  0  0
 26 28  1  0  0  0  0
 28 29  1  0  0  0  0
 28 30  1  6  0  0  0
 30 31  1  0  0  0  0
 34 39  1  0  0  0  0
 35 36  2  0  0  0  0
 37 35  1  1  0  0  0
 37 38  1  0  0  0  0
 37 40  1  0  0  0  0
 38 39  1  0  0  0  0
M  END
>  <CHROM.1>
-84.72568079,-68.62890957,-75.25638225,-64.03101132,64.55758399,-139.84030226
-68.42469942,79.46250686,62.74285478,-179.69498960,3.14313519,-5.18027237
20.73103161,-1.74259132,-0.87695067,0.56731339

>  <Name>
2g5q_lig

>  <RI>
224

>  <Rbt.Current_Directory>
/home/itssahil/PROJECTS/Mol_Feturizer/New_Systems/rnas/2g5q

>  <Rbt.Executable>
rbdock ($Id: //depot/dev/client3/rdock/2013.1/src/exe/rbdock.cxx#4 $)

>  <Rbt.Library>
libRbt.so (2013.1, Build901 2013/11/27)

>  <Rbt.Parameter_File>
/export/apps/rDock/src/rDock_2013.1_src/data/scripts/dock_solv.prm

>  <Rbt.Receptor>
prm/pocket_docking_8.prm

>  <SCORE>
-20.6364

>  <SCORE.INTER>
-16.7799

>  <SCORE.INTER.CONST>
1

>  <SCORE.INTER.POLAR>
-1.32724

>  <SCORE.INTER.ROT>
10

>  <SCORE.INTER.SOLV>
19.9572

>  <SCORE.INTER.VDW>
-23.6815

>  <SCORE.INTER.norm>
-0.419497

>  <SCORE.INTRA>
-3.8565

>  <SCORE.INTRA.DIHEDRAL>
-12.4139

>  <SCORE.INTRA.DIHEDRAL.0>
22.5778

>  <SCORE.INTRA.POLAR>
0

>  <SCORE.INTRA.POLAR.0>
0

>  <SCORE.INTRA.REPUL>
0

>  <SCORE.INTRA.REPUL.0>
0

>  <SCORE.INTRA.SOLV>
3.96999

>  <SCORE.INTRA.SOLV.lig_0>
-102.332

>  <SCORE.INTRA.VDW>
0.365464

>  <SCORE.INTRA.VDW.0>
-5.08747

>  <SCORE.INTRA.norm>
-0.0964125

>  <SCORE.RESTR>
0

>  <SCORE.RESTR.CAVITY>
0

>  <SCORE.RESTR.norm>
0

>  <SCORE.SYSTEM>
0

>  <SCORE.SYSTEM.CONST>
0

>  <SCORE.SYSTEM.DIHEDRAL>
0

>  <SCORE.SYSTEM.SOLV>
0

>  <SCORE.SYSTEM.norm>
0

>  <SCORE.heavy>
40

>  <SCORE.norm>
-0.515909

>  <RMSD>
10.796

$$$$
2g5q_lig
 OpenBabel11021811433D
libRbt.so/2013.1/901 2013/11/27
 40 42  0  0  0  0  0  0  0  0999 V2000
  -10.4666   -8.9922   15.2308 C   0  0  2  0  0  0  0  0  0  0  0  0
   -9.3888   -8.7733   14.3477 O   0  0  0  0  0  0  0  0  0  0  0  0
  -11.6764   -8.1263   14.7708 C   0  0  1  0  0  0  0  0  0  0  0  0
  -11.3930   -6.6003   14.9284 C   0  0  2  0  0  0  0  0  0  0  0  0
  -11.0931   -6.3258   16.4250 C   0  0  2  0  0  0  0  0  0  0  0  0
  -10.8488   -4.9228   16.6157 O   0  0  0  0  0  0  0  0  0  0  0  0
   -9.8331   -7.1864   16.8445 C   0  0  2  0  0  0  0  0  0  0  0  0
  -10.1102   -8.6355   16.6293 O   0  0  0  0  0  0  0  0  0  0  0  0
   -9.4551   -7.0034   18.3105 C   0  0  0  0  0  0  0  0  0  0  0  0
   -9.2912   -5.5598   18.6723 N   0  0  0  0  0  0  0  0  0  0  0  0
   -6.0563  -10.7736   16.3403 C   0  0  2  0  0  0  0  0  0  0  0  0
   -4.7685  -11.4195   16.5642 N   0  0  0  0  0  0  0  0  0  0  0  0
   -6.8958  -11.5821   15.2644 C   0  0  0  0  0  0  0  0  0  0  0  0
   -8.2948  -10.8897   15.0240 C   0  0  2  0  0  0  0  0  0  0  0  0
   -9.0764  -11.6635   14.0218 N   0  0  0  0  0  0  0  0  0  0  0  0
   -8.0708   -9.3980   14.5521 C   0  0  2  0  0  0  0  0  0  0  0  0
   -7.2291   -8.6275   15.6450 C   0  0  2  0  0  0  0  0  0  0  0  0
   -7.0222   -7.2790   15.2127 O   0  0  0  0  0  0  0  0  0  0  0  0
   -5.8318   -9.3255   15.8580 C   0  0  1  0  0  0  0  0  0  0  0  0
   -5.0637   -8.6210   16.8739 O   0  0  0  0  0  0  0  0  0  0  0  0
   -5.5328   -8.3482   18.1715 C   0  0  2  0  0  0  0  0  0  0  0  0
   -4.5213   -7.3549   18.8372 C   0  0  2  0  0  0  0  0  0  0  0  0
   -4.4561   -6.1851   18.0864 O   0  0  0  0  0  0  0  0  0  0  0  0
   -3.0956   -8.0091   18.9860 C   0  0  1  0  0  0  0  0  0  0  0  0
   -2.1203   -7.0666   19.6271 N   0  0  0  0  0  0  0  0  0  0  0  0
   -3.2425   -9.3303   19.8405 C   0  0  2  0  0  0  0  0  0  0  0  0
   -1.9754   -9.9672   20.0165 O   0  0  0  0  0  0  0  0  0  0  0  0
   -4.2618  -10.2782   19.1229 C   0  0  2  0  0  0  0  0  0  0  0  0
   -5.5925   -9.6020   18.9439 O   0  0  0  0  0  0  0  0  0  0  0  0
   -4.4790  -11.5476   19.8942 C   0  0  0  0  0  0  0  0  0  0  0  0
   -5.1032  -11.2874   21.1621 O   0  0  0  0  0  0  0  0  0  0  0  0
  -11.9827   -8.4654   13.3747 O   0  0  0  0  0  0  0  0  0  0  0  0
  -12.4972   -5.8848   14.5209 O   0  0  0  0  0  0  0  0  0  0  0  0
    0.2904  -10.9261   13.9237 N   0  0  0  0  0  0  0  0  0  0  0  0
   -3.8021  -11.6376   15.5923 C   0  0  0  0  0  0  0  0  0  0  0  0
   -3.9292  -11.3129   14.4168 O   0  0  0  0  0  0  0  0  0  0  0  0
   -2.5515  -12.3527   16.1536 C   0  0  1  0  0  0  0  0  0  0  0  0
   -1.4007  -12.2869   15.1290 C   0  0  0  0  0  0  0  0  0  0  0  0
   -0.8726  -10.8840   14.8078 C   0  0  0  0  0  0  0  0  0  0  0  0
   -2.1691  -11.7287   17.4001 O   0  0  0  0  0  0  0  0  0  0  0  0
  1  2  1  6  0  0  0
  1  3  1  0  0  0  0
  1  8  1  0  0  0  0
  3  4  1  0  0  0  0
  3 32  1  6  0  0  0
  4  5  1  0  0  0  0
  4 33  1  1  0  0  0
  5  6  1  6  0  0  0
  5  7  1  0  0  0  0
  7  8  1  0  0  0  0
  7  9  1  1  0  0  0
  9 10  1  0  0  0  0
 11 12  1  6  0  0  0
 11 13  1  0  0  0  0
 11 19  1  0  0  0  0
 12 35  1  0  0  0  0
 13 14  1  0  0  0  0
 14 15  1  6  0  0  0
 14 16  1  0  0  0  0
 16  2  1  1  0  0  0
 16 17  1  0  0  0  0
 17 18  1  6  0  0  0
 17 19  1  0  0  0  0
 19 20  1  1  0  0  0
 21 20  1  6  0  0  0
 21 22  1  0  0  0  0
 21 29  1  0  0  0  0
 22 23  1  6  0  0  0
 22 24  1  0  0  0  0
 24 25  1  1  0  0  0
 24 26  1  0  0  0  0
 26 27  1  6  0  0  0
 26 28  1  0  0  0  0
 28 29  1  0  0  0  0
 28 30  1  1  0  0  0
 30 31  1  0  0  0  0
 34 39  1  0  0  0  0
 35 36  2  0  0  0  0
 37 35  1  6  0  0  0
 37 38  1  0  0  0  0
 37 40  1  0  0  0  0
 38 39  1  0  0  0  0
M  END
>  <CHROM.1>
176.84489016,-52.67195281,59.73569858,40.77754547,-65.11122035,-169.53612942
65.00051950,-167.37957156,64.07068194,174.87346346,-6.39377820,-9.13125350
16.66060107,3.10334538,-0.43242742,0.94060641

>  <Name>
2g5q_lig

>  <RI>
224

>  <Rbt.Current_Directory>
/home/itssahil/PROJECTS/Mol_Feturizer/New_Systems/rnas/2g5q

>  <Rbt.Executable>
rbdock ($Id: //depot/dev/client3/rdock/2013.1/src/exe/rbdock.cxx#4 $)

>  <Rbt.Library>
libRbt.so (2013.1, Build901 2013/11/27)

>  <Rbt.Parameter_File>
/export/apps/rDock/src/rDock_2013.1_src/data/scripts/dock_solv.prm

>  <Rbt.Receptor>
prm/pocket_docking_8.prm

>  <SCORE>
-9.9959

>  <SCORE.INTER>
-2.36408

>  <SCORE.INTER.CONST>
1

>  <SCORE.INTER.POLAR>
-0.582757

>  <SCORE.INTER.ROT>
10

>  <SCORE.INTER.SOLV>
19.7468

>  <SCORE.INTER.VDW>
-16.4825

>  <SCORE.INTER.norm>
-0.0591021

>  <SCORE.INTRA>
-7.64697

>  <SCORE.INTRA.DIHEDRAL>
-18.7492

>  <SCORE.INTRA.DIHEDRAL.0>
22.5778

>  <SCORE.INTRA.POLAR>
0

>  <SCORE.INTRA.POLAR.0>
0

>  <SCORE.INTRA.REPUL>
0

>  <SCORE.INTRA.REPUL.0>
0

>  <SCORE.INTRA.SOLV>
3.07135

>  <SCORE.INTRA.SOLV.lig_0>
-102.332

>  <SCORE.INTRA.VDW>
0.191942

>  <SCORE.INTRA.VDW.0>
-5.08747

>  <SCORE.INTRA.norm>
-0.191174

>  <SCORE.RESTR>
0.0151519

>  <SCORE.RESTR.CAVITY>
0.0151519

>  <SCORE.RESTR.norm>
0.000378797

>  <SCORE.SYSTEM>
0

>  <SCORE.SYSTEM.CONST>
0

>  <SCORE.SYSTEM.DIHEDRAL>
0

>  <SCORE.SYSTEM.SOLV>
0

>  <SCORE.SYSTEM.norm>
0

>  <SCORE.heavy>
40

>  <SCORE.norm>
-0.249898

>  <RMSD>
10.865

$$$$
2g5q_lig
 OpenBabel11021811433D
libRbt.so/2013.1/901 2013/11/27
 40 42  0  0  0  0  0  0  0  0999 V2000
    9.8195   -1.9373   24.1997 C   0  0  2  0  0  0  0  0  0  0  0  0
    9.1452   -2.3299   25.3748 O   0  0  0  0  0  0  0  0  0  0  0  0
   10.5064   -3.1868   23.5738 C   0  0  1  0  0  0  0  0  0  0  0  0
   11.6556   -3.7324   24.4766 C   0  0  2  0  0  0  0  0  0  0  0  0
   12.6977   -2.5978   24.6551 C   0  0  2  0  0  0  0  0  0  0  0  0
   13.7870   -3.0699   25.4644 O   0  0  0  0  0  0  0  0  0  0  0  0
   11.9762   -1.3637   25.3335 C   0  0  2  0  0  0  0  0  0  0  0  0
   10.8467   -0.8993   24.4783 O   0  0  0  0  0  0  0  0  0  0  0  0
   12.9104   -0.1771   25.5451 C   0  0  0  0  0  0  0  0  0  0  0  0
   14.2289   -0.5955   26.1182 N   0  0  0  0  0  0  0  0  0  0  0  0
    5.1240   -3.9679   25.8478 C   0  0  2  0  0  0  0  0  0  0  0  0
    3.6723   -4.0554   25.9517 N   0  0  0  0  0  0  0  0  0  0  0  0
    5.6993   -3.0228   26.9844 C   0  0  0  0  0  0  0  0  0  0  0  0
    7.2726   -2.9309   26.8800 C   0  0  2  0  0  0  0  0  0  0  0  0
    7.8004   -2.0511   27.9576 N   0  0  0  0  0  0  0  0  0  0  0  0
    7.6757   -2.3937   25.4493 C   0  0  2  0  0  0  0  0  0  0  0  0
    7.0823   -3.3566   24.3458 C   0  0  2  0  0  0  0  0  0  0  0  0
    7.4432   -2.8648   23.0513 O   0  0  0  0  0  0  0  0  0  0  0  0
    5.5113   -3.4216   24.4580 C   0  0  1  0  0  0  0  0  0  0  0  0
    4.9684   -4.3186   23.4486 O   0  0  0  0  0  0  0  0  0  0  0  0
    5.2120   -4.1955   22.0689 C   0  0  2  0  0  0  0  0  0  0  0  0
    4.0929   -3.2746   21.4749 C   0  0  2  0  0  0  0  0  0  0  0  0
    4.1406   -2.0281   22.0917 O   0  0  0  0  0  0  0  0  0  0  0  0
    2.6696   -3.9303   21.6393 C   0  0  1  0  0  0  0  0  0  0  0  0
    1.5909   -3.0576   21.0691 N   0  0  0  0  0  0  0  0  0  0  0  0
    2.6868   -5.3394   20.9241 C   0  0  2  0  0  0  0  0  0  0  0  0
    1.4152   -5.9822   21.0335 O   0  0  0  0  0  0  0  0  0  0  0  0
    3.8217   -6.2094   21.5625 C   0  0  2  0  0  0  0  0  0  0  0  0
    5.1560   -5.5278   21.4412 O   0  0  0  0  0  0  0  0  0  0  0  0
    3.9215   -7.5584   20.9114 C   0  0  0  0  0  0  0  0  0  0  0  0
    4.4691   -7.4591   19.5866 O   0  0  0  0  0  0  0  0  0  0  0  0
    9.4800   -4.2131   23.3471 O   0  0  0  0  0  0  0  0  0  0  0  0
   12.2348   -4.8253   23.8705 O   0  0  0  0  0  0  0  0  0  0  0  0
   -0.5555   -2.1730   22.5532 N   0  0  0  0  0  0  0  0  0  0  0  0
    2.7712   -3.2287   25.2955 C   0  0  0  0  0  0  0  0  0  0  0  0
    3.1013   -2.3134   24.5494 O   0  0  0  0  0  0  0  0  0  0  0  0
    1.3016   -3.5794   25.6236 C   0  0  1  0  0  0  0  0  0  0  0  0
    0.4569   -3.5767   24.3334 C   0  0  0  0  0  0  0  0  0  0  0  0
    0.5843   -2.3268   23.4549 C   0  0  0  0  0  0  0  0  0  0  0  0
    1.2562   -4.8726   26.2677 O   0  0  0  0  0  0  0  0  0  0  0  0
  1  2  1  1  0  0  0
  1  3  1  0  0  0  0
  1  8  1  0  0  0  0
  3  4  1  0  0  0  0
  3 32  1  1  0  0  0
  4  5  1  0  0  0  0
  4 33  1  6  0  0  0
  5  6  1  1  0  0  0
  5  7  1  0  0  0  0
  7  8  1  0  0  0  0
  7  9  1  6  0  0  0
  9 10  1  0  0  0  0
 11 12  1  6  0  0  0
 11 13  1  0  0  0  0
 11 19  1  0  0  0  0
 12 35  1  0  0  0  0
 13 14  1  0  0  0  0
 14 15  1  1  0  0  0
 14 16  1  0  0  0  0
 16  2  1  1  0  0  0
 16 17  1  0  0  0  0
 17 18  1  6  0  0  0
 17 19  1  0  0  0  0
 19 20  1  6  0  0  0
 21 20  1  1  0  0  0
 21 22  1  0  0  0  0
 21 29  1  0  0  0  0
 22 23  1  1  0  0  0
 22 24  1  0  0  0  0
 24 25  1  6  0  0  0
 24 26  1  0  0  0  0
 26 27  1  1  0  0  0
 26 28  1  0  0  0  0
 28 29  1  0  0  0  0
 28 30  1  6  0  0  0
 30 31  1  0  0  0  0
 34 39  1  0  0  0  0
 35 36  2  0  0  0  0
 37 35  1  6  0  0  0
 37 38  1  0  0  0  0
 37 40  1  0  0  0  0
 38 39  1  0  0  0  0
M  END
>  <CHROM.1>
-108.49788865,-45.36720644,91.47907403,177.43015457,-174.75643020,-89.90948724
71.63507031,-135.70145842,-50.78552500,-159.23828143,6.25871289,-3.46953652
23.88855542,-0.31249866,-0.03926817,-2.16048294

>  <Name>
2g5q_lig

>  <RI>
224

>  <Rbt.Current_Directory>
/home/itssahil/PROJECTS/Mol_Feturizer/New_Systems/rnas/2g5q

>  <Rbt.Executable>
rbdock ($Id: //depot/dev/client3/rdock/2013.1/src/exe/rbdock.cxx#4 $)

>  <Rbt.Library>
libRbt.so (2013.1, Build901 2013/11/27)

>  <Rbt.Parameter_File>
/export/apps/rDock/src/rDock_2013.1_src/data/scripts/dock_solv.prm

>  <Rbt.Receptor>
prm/blind_docking_60.prm

>  <SCORE>
149.124

>  <SCORE.INTER>
131.272

>  <SCORE.INTER.CONST>
1

>  <SCORE.INTER.POLAR>
-0.183601

>  <SCORE.INTER.ROT>
10

>  <SCORE.INTER.SOLV>
24.8659

>  <SCORE.INTER.VDW>
69.5715

>  <SCORE.INTER.norm>
3.2818

>  <SCORE.INTRA>
5.51176

>  <SCORE.INTRA.DIHEDRAL>
-6.40665

>  <SCORE.INTRA.DIHEDRAL.0>
22.5778

>  <SCORE.INTRA.POLAR>
0

>  <SCORE.INTRA.POLAR.0>
0

>  <SCORE.INTRA.REPUL>
0

>  <SCORE.INTRA.REPUL.0>
0

>  <SCORE.INTRA.SOLV>
7.84328

>  <SCORE.INTRA.SOLV.lig_0>
-102.332

>  <SCORE.INTRA.VDW>
4.79345

>  <SCORE.INTRA.VDW.0>
-5.08747

>  <SCORE.INTRA.norm>
0.137794

>  <SCORE.RESTR>
12.3399

>  <SCORE.RESTR.CAVITY>
12.3399

>  <SCORE.RESTR.norm>
0.308497

>  <SCORE.SYSTEM>
0

>  <SCORE.SYSTEM.CONST>
0

>  <SCORE.SYSTEM.DIHEDRAL>
0

>  <SCORE.SYSTEM.SOLV>
0

>  <SCORE.SYSTEM.norm>
0

>  <SCORE.heavy>
40

>  <SCORE.norm>
3.7281

>  <RMSD>
10.962

$$$$
2g5q_lig
 OpenBabel11021811433D
libRbt.so/2013.1/901 2013/11/27
 40 42  0  0  0  0  0  0  0  0999 V2000
   10.4286   -3.3456   25.8847 C   0  0  2  0  0  0  0  0  0  0  0  0
    9.8682   -2.1445   25.4021 O   0  0  0  0  0  0  0  0  0  0  0  0
   11.6382   -3.0018   26.8032 C   0  0  1  0  0  0  0  0  0  0  0  0
   12.8126   -2.3590   26.0024 C   0  0  2  0  0  0  0  0  0  0  0  0
   13.2544   -3.3714   24.9140 C   0  0  2  0  0  0  0  0  0  0  0  0
   14.3532   -2.8241   24.1674 O   0  0  0  0  0  0  0  0  0  0  0  0
   12.0148   -3.6620   23.9742 C   0  0  2  0  0  0  0  0  0  0  0  0
   10.8877   -4.2209   24.7742 O   0  0  0  0  0  0  0  0  0  0  0  0
   12.3343   -4.6625   22.8685 C   0  0  0  0  0  0  0  0  0  0  0  0
   11.1034   -5.1094   22.1426 N   0  0  0  0  0  0  0  0  0  0  0  0
    5.6048   -2.8929   24.8190 C   0  0  2  0  0  0  0  0  0  0  0  0
    4.2566   -2.8393   24.2664 N   0  0  0  0  0  0  0  0  0  0  0  0
    6.0679   -1.4466   25.2769 C   0  0  0  0  0  0  0  0  0  0  0  0
    7.5254   -1.5013   25.8828 C   0  0  2  0  0  0  0  0  0  0  0  0
    7.9434   -0.1413   26.3184 N   0  0  0  0  0  0  0  0  0  0  0  0
    8.5216   -2.0929   24.8079 C   0  0  2  0  0  0  0  0  0  0  0  0
    8.0259   -3.5292   24.3740 C   0  0  2  0  0  0  0  0  0  0  0  0
    8.9258   -4.0602   23.3961 O   0  0  0  0  0  0  0  0  0  0  0  0
    6.5769   -3.4496   23.7583 C   0  0  1  0  0  0  0  0  0  0  0  0
    6.1180   -4.7753   23.3710 O   0  0  0  0  0  0  0  0  0  0  0  0
    4.7687   -5.1722   23.3592 C   0  0  2  0  0  0  0  0  0  0  0  0
    4.7221   -6.6631   22.8812 C   0  0  2  0  0  0  0  0  0  0  0  0
    5.4559   -7.4557   23.7585 O   0  0  0  0  0  0  0  0  0  0  0  0
    5.2617   -6.8054   21.4077 C   0  0  1  0  0  0  0  0  0  0  0  0
    5.2168   -8.2297   20.9389 N   0  0  0  0  0  0  0  0  0  0  0  0
    4.3915   -5.8788   20.4688 C   0  0  2  0  0  0  0  0  0  0  0  0
    4.8307   -5.9715   19.1121 O   0  0  0  0  0  0  0  0  0  0  0  0
    4.4814   -4.4074   20.9974 C   0  0  2  0  0  0  0  0  0  0  0  0
    4.0155   -4.3179   22.4239 O   0  0  0  0  0  0  0  0  0  0  0  0
    3.6515   -3.4678   20.1715 C   0  0  0  0  0  0  0  0  0  0  0  0
    2.2668   -3.8516   20.1780 O   0  0  0  0  0  0  0  0  0  0  0  0
   11.1697   -2.1032   27.8668 O   0  0  0  0  0  0  0  0  0  0  0  0
   13.8570   -2.0886   26.8589 O   0  0  0  0  0  0  0  0  0  0  0  0
   -0.2409   -1.9114   22.1509 N   0  0  0  0  0  0  0  0  0  0  0  0
    3.0845   -2.8948   25.0076 C   0  0  0  0  0  0  0  0  0  0  0  0
    3.0520   -3.0044   26.2283 O   0  0  0  0  0  0  0  0  0  0  0  0
    1.8209   -2.8204   24.1198 C   0  0  1  0  0  0  0  0  0  0  0  0
    1.3871   -1.3515   23.9400 C   0  0  0  0  0  0  0  0  0  0  0  0
   -0.0196   -1.1361   23.3698 C   0  0  0  0  0  0  0  0  0  0  0  0
    2.1031   -3.4353   22.8425 O   0  0  0  0  0  0  0  0  0  0  0  0
  1  2  1  6  0  0  0
  1  3  1  0  0  0  0
  1  8  1  0  0  0  0
  3  4  1  0  0  0  0
  3 32  1  1  0  0  0
  4  5  1  0  0  0  0
  4 33  1  1  0  0  0
  5  6  1  6  0  0  0
  5  7  1  0  0  0  0
  7  8  1  0  0  0  0
  7  9  1  6  0  0  0
  9 10  1  0  0  0  0
 11 12  1  6  0  0  0
 11 13  1  0  0  0  0
 11 19  1  0  0  0  0
 12 35  1  0  0  0  0
 13 14  1  0  0  0  0
 14 15  1  6  0  0  0
 14 16  1  0  0  0  0
 16  2  1  1  0  0  0
 16 17  1  0  0  0  0
 17 18  1  6  0  0  0
 17 19  1  0  0  0  0
 19 20  1  1  0  0  0
 21 20  1  6  0  0  0
 21 22  1  0  0  0  0
 21 29  1  0  0  0  0
 22 23  1  1  0  0  0
 22 24  1  0  0  0  0
 24 25  1  6  0  0  0
 24 26  1  0  0  0  0
 26 27  1  6  0  0  0
 26 28  1  0  0  0  0
 28 29  1  0  0  0  0
 28 30  1  6  0  0  0
 30 31  1  0  0  0  0
 34 39  1  0  0  0  0
 35 36  2  0  0  0  0
 37 35  1  1  0  0  0
 37 38  1  0  0  0  0
 37 40  1  0  0  0  0
 38 39  1  0  0  0  0
M  END
>  <CHROM.1>
-163.54868172,169.91282995,-84.70980334,102.14373592,31.10753810,179.92558812
59.49629806,-90.42386479,-166.12042703,-50.71088067,6.85770449,-3.61831996
23.77512809,0.27809907,-0.15981821,0.78999056

>  <Name>
2g5q_lig

>  <RI>
224

>  <Rbt.Current_Directory>
/home/itssahil/PROJECTS/Mol_Feturizer/New_Systems/rnas/2g5q

>  <Rbt.Executable>
rbdock ($Id: //depot/dev/client3/rdock/2013.1/src/exe/rbdock.cxx#4 $)

>  <Rbt.Library>
libRbt.so (2013.1, Build901 2013/11/27)

>  <Rbt.Parameter_File>
/export/apps/rDock/src/rDock_2013.1_src/data/scripts/dock_solv.prm

>  <Rbt.Receptor>
prm/blind_docking_60.prm

>  <SCORE>
31.7952

>  <SCORE.INTER>
7.6717

>  <SCORE.INTER.CONST>
1

>  <SCORE.INTER.POLAR>
-0.894427

>  <SCORE.INTER.ROT>
10

>  <SCORE.INTER.SOLV>
30.0926

>  <SCORE.INTER.VDW>
-12.2016

>  <SCORE.INTER.norm>
0.191793

>  <SCORE.INTRA>
8.89796

>  <SCORE.INTRA.DIHEDRAL>
-8.7935

>  <SCORE.INTRA.DIHEDRAL.0>
22.5778

>  <SCORE.INTRA.POLAR>
0

>  <SCORE.INTRA.POLAR.0>
0

>  <SCORE.INTRA.REPUL>
0.0792566

>  <SCORE.INTRA.REPUL.0>
0

>  <SCORE.INTRA.SOLV>
5.35215

>  <SCORE.INTRA.SOLV.lig_0>
-102.332

>  <SCORE.INTRA.VDW>
10.2224

>  <SCORE.INTRA.VDW.0>
-5.08747

>  <SCORE.INTRA.norm>
0.222449

>  <SCORE.RESTR>
15.2256

>  <SCORE.RESTR.CAVITY>
15.2256

>  <SCORE.RESTR.norm>
0.380639

>  <SCORE.SYSTEM>
0

>  <SCORE.SYSTEM.CONST>
0

>  <SCORE.SYSTEM.DIHEDRAL>
0

>  <SCORE.SYSTEM.SOLV>
0

>  <SCORE.SYSTEM.norm>
0

>  <SCORE.heavy>
40

>  <SCORE.norm>
0.794881

>  <RMSD>
11.060

$$$$
2g5q_lig
 OpenBabel11021811433D
libRbt.so/2013.1/901 2013/11/27
 40 42  0  0  0  0  0  0  0  0999 V2000
    4.9971   -8.6673   22.2578 C   0  0  2  0  0  0  0  0  0  0  0  0
    4.5156   -7.8998   21.1768 O   0  0  0  0  0  0  0  0  0  0  0  0
    5.6989   -9.9392   21.6971 C   0  0  1  0  0  0  0  0  0  0  0  0
    4.6884  -10.9022   21.0008 C   0  0  2  0  0  0  0  0  0  0  0  0
    3.6240  -11.3131   22.0512 C   0  0  2  0  0  0  0  0  0  0  0  0
    2.6850  -12.2212   21.4528 O   0  0  0  0  0  0  0  0  0  0  0  0
    2.9017  -10.0020   22.5644 C   0  0  2  0  0  0  0  0  0  0  0  0
    3.8984   -9.0749   23.1726 O   0  0  0  0  0  0  0  0  0  0  0  0
    1.8376  -10.2887   23.6185 C   0  0  0  0  0  0  0  0  0  0  0  0
    2.4147  -10.9407   24.8365 N   0  0  0  0  0  0  0  0  0  0  0  0
    3.5041   -3.6648   20.8320 C   0  0  2  0  0  0  0  0  0  0  0  0
    2.8070   -2.3944   20.9927 N   0  0  0  0  0  0  0  0  0  0  0  0
    2.5479   -4.7333   20.1538 C   0  0  0  0  0  0  0  0  0  0  0  0
    3.3016   -6.1092   19.9711 C   0  0  2  0  0  0  0  0  0  0  0  0
    2.3981   -7.0987   19.3243 N   0  0  0  0  0  0  0  0  0  0  0  0
    3.8069   -6.6244   21.3773 C   0  0  2  0  0  0  0  0  0  0  0  0
    4.7510   -5.5338   22.0223 C   0  0  2  0  0  0  0  0  0  0  0  0
    5.2022   -5.9996   23.2980 O   0  0  0  0  0  0  0  0  0  0  0  0
    3.9752   -4.1744   22.2098 C   0  0  1  0  0  0  0  0  0  0  0  0
    4.8505   -3.1682   22.7926 O   0  0  0  0  0  0  0  0  0  0  0  0
    5.5124   -3.3149   24.0249 C   0  0  2  0  0  0  0  0  0  0  0  0
    4.5029   -2.9084   25.1513 C   0  0  2  0  0  0  0  0  0  0  0  0
    3.3863   -3.7370   25.0960 O   0  0  0  0  0  0  0  0  0  0  0  0
    4.0875   -1.3939   25.0239 C   0  0  1  0  0  0  0  0  0  0  0  0
    3.1238   -0.9935   26.1015 N   0  0  0  0  0  0  0  0  0  0  0  0
    5.3977   -0.5127   25.0882 C   0  0  2  0  0  0  0  0  0  0  0  0
    5.0829    0.8774   24.9847 O   0  0  0  0  0  0  0  0  0  0  0  0
    6.3609   -0.9658   23.9395 C   0  0  2  0  0  0  0  0  0  0  0  0
    6.6892   -2.4281   24.0569 O   0  0  0  0  0  0  0  0  0  0  0  0
    7.6473   -0.1921   23.9546 C   0  0  0  0  0  0  0  0  0  0  0  0
    8.6128   -0.7675   23.0593 O   0  0  0  0  0  0  0  0  0  0  0  0
    6.7511   -9.5131   20.7646 O   0  0  0  0  0  0  0  0  0  0  0  0
    5.3588  -12.0126   20.5370 O   0  0  0  0  0  0  0  0  0  0  0  0
    1.7444    2.7812   22.5811 N   0  0  0  0  0  0  0  0  0  0  0  0
    3.4155   -1.1740   21.2507 C   0  0  0  0  0  0  0  0  0  0  0  0
    4.6258   -1.0276   21.3817 O   0  0  0  0  0  0  0  0  0  0  0  0
    2.3944   -0.0194   21.3722 C   0  0  1  0  0  0  0  0  0  0  0  0
    3.0832    1.3285   21.0772 C   0  0  0  0  0  0  0  0  0  0  0  0
    2.1975    2.5731   21.2073 C   0  0  0  0  0  0  0  0  0  0  0  0
    1.3036   -0.2538   20.4532 O   0  0  0  0  0  0  0  0  0  0  0  0
  1  2  1  6  0  0  0
  1  3  1  0  0  0  0
  1  8  1  0  0  0  0
  3  4  1  0  0  0  0
  3 32  1  6  0  0  0
  4  5  1  0  0  0  0
  4 33  1  1  0  0  0
  5  6  1  6  0  0  0
  5  7  1  0  0  0  0
  7  8  1  0  0  0  0
  7  9  1  1  0  0  0
  9 10  1  0  0  0  0
 11 12  1  1  0  0  0
 11 13  1  0  0  0  0
 11 19  1  0  0  0  0
 12 35  1  0  0  0  0
 13 14  1  0  0  0  0
 14 15  1  1  0  0  0
 14 16  1  0  0  0  0
 16  2  1  6  0  0  0
 16 17  1  0  0  0  0
 17 18  1  1  0  0  0
 17 19  1  0  0  0  0
 19 20  1  6  0  0  0
 21 20  1  6  0  0  0
 21 22  1  0  0  0  0
 21 29  1  0  0  0  0
 22 23  1  6  0  0  0
 22 24  1  0  0  0  0
 24 25  1  1  0  0  0
 24 26  1  0  0  0  0
 26 27  1  6  0  0  0
 26 28  1  0  0  0  0
 28 29  1  0  0  0  0
 28 30  1  1  0  0  0
 30 31  1  0  0  0  0
 34 39  1  0  0  0  0
 35 36  2  0  0  0  0
 37 35  1  6  0  0  0
 37 38  1  0  0  0  0
 37 40  1  0  0  0  0
 38 39  1  0  0  0  0
M  END
>  <CHROM.1>
-179.60484823,60.71710410,-163.97963646,-174.97307420,-177.29710135,-83.55008528
169.73075812,-156.78484623,-178.02080997,64.69251806,4.17086111,-4.62597306
22.45078126,-1.59053124,-0.76592786,0.09540099

>  <Name>
2g5q_lig

>  <RI>
224

>  <Rbt.Current_Directory>
/home/itssahil/PROJECTS/Mol_Feturizer/New_Systems/rnas/2g5q

>  <Rbt.Executable>
rbdock ($Id: //depot/dev/client3/rdock/2013.1/src/exe/rbdock.cxx#4 $)

>  <Rbt.Library>
libRbt.so (2013.1, Build901 2013/11/27)

>  <Rbt.Parameter_File>
/export/apps/rDock/src/rDock_2013.1_src/data/scripts/dock_solv.prm

>  <Rbt.Receptor>
prm/pocket_docking_8.prm

>  <SCORE>
-24.2042

>  <SCORE.INTER>
-16.8318

>  <SCORE.INTER.CONST>
1

>  <SCORE.INTER.POLAR>
-0.909493

>  <SCORE.INTER.ROT>
10

>  <SCORE.INTER.SOLV>
19.6955

>  <SCORE.INTER.VDW>
-25.0214

>  <SCORE.INTER.norm>
-0.420794

>  <SCORE.INTRA>
-7.39286

>  <SCORE.INTRA.DIHEDRAL>
-17.9763

>  <SCORE.INTRA.DIHEDRAL.0>
22.5778

>  <SCORE.INTRA.POLAR>
0

>  <SCORE.INTRA.POLAR.0>
0

>  <SCORE.INTRA.REPUL>
0

>  <SCORE.INTRA.REPUL.0>
0

>  <SCORE.INTRA.SOLV>
2.08456

>  <SCORE.INTRA.SOLV.lig_0>
-102.332

>  <SCORE.INTRA.VDW>
0.553031

>  <SCORE.INTRA.VDW.0>
-5.08747

>  <SCORE.INTRA.norm>
-0.184822

>  <SCORE.RESTR>
0.0204182

>  <SCORE.RESTR.CAVITY>
0.0204182

>  <SCORE.RESTR.norm>
0.000510454

>  <SCORE.SYSTEM>
0

>  <SCORE.SYSTEM.CONST>
0

>  <SCORE.SYSTEM.DIHEDRAL>
0

>  <SCORE.SYSTEM.SOLV>
0

>  <SCORE.SYSTEM.norm>
0

>  <SCORE.heavy>
40

>  <SCORE.norm>
-0.605105

>  <RMSD>
11.103

$$$$
2g5q_lig
 OpenBabel11021811433D
libRbt.so/2013.1/901 2013/11/27
 40 42  0  0  0  0  0  0  0  0999 V2000
    3.8763   -6.6716   21.4389 C   0  0  2  0  0  0  0  0  0  0  0  0
    4.9535   -5.7615   21.4110 O   0  0  0  0  0  0  0  0  0  0  0  0
    4.3856   -8.0355   21.9912 C   0  0  1  0  0  0  0  0  0  0  0  0
    5.3988   -8.7151   21.0191 C   0  0  2  0  0  0  0  0  0  0  0  0
    4.6796   -8.9363   19.6631 C   0  0  2  0  0  0  0  0  0  0  0  0
    5.5754   -9.5833   18.7448 O   0  0  0  0  0  0  0  0  0  0  0  0
    4.2168   -7.5273   19.1113 C   0  0  2  0  0  0  0  0  0  0  0  0
    3.2958   -6.8750   20.0855 O   0  0  0  0  0  0  0  0  0  0  0  0
    3.4808   -7.6279   17.7794 C   0  0  0  0  0  0  0  0  0  0  0  0
    4.3578   -8.1672   16.6924 N   0  0  0  0  0  0  0  0  0  0  0  0
    3.2026   -2.1969   23.2290 C   0  0  2  0  0  0  0  0  0  0  0  0
    3.0702   -0.8641   23.8051 N   0  0  0  0  0  0  0  0  0  0  0  0
    4.2200   -3.0647   24.0820 C   0  0  0  0  0  0  0  0  0  0  0  0
    4.3609   -4.5120   23.4655 C   0  0  2  0  0  0  0  0  0  0  0  0
    5.3088   -5.3188   24.2807 N   0  0  0  0  0  0  0  0  0  0  0  0
    4.8428   -4.4011   21.9643 C   0  0  2  0  0  0  0  0  0  0  0  0
    3.8085   -3.5279   21.1491 C   0  0  2  0  0  0  0  0  0  0  0  0
    4.2502   -3.4236   19.7918 O   0  0  0  0  0  0  0  0  0  0  0  0
    3.6949   -2.0840   21.7713 C   0  0  1  0  0  0  0  0  0  0  0  0
    2.7326   -1.2859   21.0261 O   0  0  0  0  0  0  0  0  0  0  0  0
    1.6200   -1.8179   20.3500 C   0  0  2  0  0  0  0  0  0  0  0  0
    0.9145   -0.6352   19.6039 C   0  0  2  0  0  0  0  0  0  0  0  0
    1.8033   -0.0585   18.7017 O   0  0  0  0  0  0  0  0  0  0  0  0
    0.3708    0.4369   20.6226 C   0  0  1  0  0  0  0  0  0  0  0  0
   -0.3109    1.5719   19.9175 N   0  0  0  0  0  0  0  0  0  0  0  0
   -0.6239   -0.2832   21.6173 C   0  0  2  0  0  0  0  0  0  0  0  0
   -1.1576    0.6439   22.5647 O   0  0  0  0  0  0  0  0  0  0  0  0
    0.1403   -1.4497   22.3300 C   0  0  2  0  0  0  0  0  0  0  0  0
    0.6964   -2.4217   21.3271 O   0  0  0  0  0  0  0  0  0  0  0  0
   -0.7514   -2.2047   23.2726 C   0  0  0  0  0  0  0  0  0  0  0  0
   -1.8441   -2.8236   22.5742 O   0  0  0  0  0  0  0  0  0  0  0  0
    4.9922   -7.8028   23.3088 O   0  0  0  0  0  0  0  0  0  0  0  0
    5.8049   -9.9198   21.5494 O   0  0  0  0  0  0  0  0  0  0  0  0
    2.3266    3.3501   21.5543 N   0  0  0  0  0  0  0  0  0  0  0  0
    4.1087    0.0401   23.9787 C   0  0  0  0  0  0  0  0  0  0  0  0
    5.2729   -0.1881   23.6688 O   0  0  0  0  0  0  0  0  0  0  0  0
    3.6371    1.3638   24.6236 C   0  0  1  0  0  0  0  0  0  0  0  0
    2.6733    2.1012   23.6721 C   0  0  0  0  0  0  0  0  0  0  0  0
    3.2729    2.5578   22.3370 C   0  0  0  0  0  0  0  0  0  0  0  0
    2.9949    1.0729   25.8854 O   0  0  0  0  0  0  0  0  0  0  0  0
  1  2  1  6  0  0  0
  1  3  1  0  0  0  0
  1  8  1  0  0  0  0
  3  4  1  0  0  0  0
  3 32  1  1  0  0  0
  4  5  1  0  0  0  0
  4 33  1  1  0  0  0
  5  6  1  6  0  0  0
  5  7  1  0  0  0  0
  7  8  1  0  0  0  0
  7  9  1  6  0  0  0
  9 10  1  0  0  0  0
 11 12  1  1  0  0  0
 11 13  1  0  0  0  0
 11 19  1  0  0  0  0
 12 35  1  0  0  0  0
 13 14  1  0  0  0  0
 14 15  1  1  0  0  0
 14 16  1  0  0  0  0
 16  2  1  6  0  0  0
 16 17  1  0  0  0  0
 17 18  1  6  0  0  0
 17 19  1  0  0  0  0
 19 20  1  6  0  0  0
 21 20  1  1  0  0  0
 21 22  1  0  0  0  0
 21 29  1  0  0  0  0
 22 23  1  6  0  0  0
 22 24  1  0  0  0  0
 24 25  1  6  0  0  0
 24 26  1  0  0  0  0
 26 27  1  1  0  0  0
 26 28  1  0  0  0  0
 28 29  1  0  0  0  0
 28 30  1  1  0  0  0
 30 31  1  0  0  0  0
 34 39  1  0  0  0  0
 35 36  2  0  0  0  0
 37 35  1  6  0  0  0
 37 38  1  0  0  0  0
 37 40  1  0  0  0  0
 38 39  1  0  0  0  0
M  END
>  <CHROM.1>
-131.28093227,-63.30090434,59.36895375,54.74128754,-89.86892942,-176.08195085
62.01936519,-65.20872337,-63.54814164,-174.82083396,2.98787395,-3.14871951
21.64238625,-1.06780520,-0.80339250,0.61800710

>  <Name>
2g5q_lig

>  <RI>
224

>  <Rbt.Current_Directory>
/home/itssahil/PROJECTS/Mol_Feturizer/New_Systems/rnas/2g5q

>  <Rbt.Executable>
rbdock ($Id: //depot/dev/client3/rdock/2013.1/src/exe/rbdock.cxx#4 $)

>  <Rbt.Library>
libRbt.so (2013.1, Build901 2013/11/27)

>  <Rbt.Parameter_File>
/export/apps/rDock/src/rDock_2013.1_src/data/scripts/dock_solv.prm

>  <Rbt.Receptor>
prm/pocket_docking_8.prm

>  <SCORE>
-15.2166

>  <SCORE.INTER>
-11.6895

>  <SCORE.INTER.CONST>
1

>  <SCORE.INTER.POLAR>
-0.477228

>  <SCORE.INTER.ROT>
10

>  <SCORE.INTER.SOLV>
20.0222

>  <SCORE.INTER.VDW>
-23.143

>  <SCORE.INTER.norm>
-0.292237

>  <SCORE.INTRA>
-3.5531

>  <SCORE.INTRA.DIHEDRAL>
-11.1643

>  <SCORE.INTRA.DIHEDRAL.0>
22.5778

>  <SCORE.INTRA.POLAR>
0

>  <SCORE.INTRA.POLAR.0>
0

>  <SCORE.INTRA.REPUL>
0

>  <SCORE.INTRA.REPUL.0>
0

>  <SCORE.INTRA.SOLV>
4.83543

>  <SCORE.INTRA.SOLV.lig_0>
-102.332

>  <SCORE.INTRA.VDW>
-0.388673

>  <SCORE.INTRA.VDW.0>
-5.08747

>  <SCORE.INTRA.norm>
-0.0888276

>  <SCORE.RESTR>
0.0259506

>  <SCORE.RESTR.CAVITY>
0.0259506

>  <SCORE.RESTR.norm>
0.000648766

>  <SCORE.SYSTEM>
0

>  <SCORE.SYSTEM.CONST>
0

>  <SCORE.SYSTEM.DIHEDRAL>
0

>  <SCORE.SYSTEM.SOLV>
0

>  <SCORE.SYSTEM.norm>
0

>  <SCORE.heavy>
40

>  <SCORE.norm>
-0.380416

>  <RMSD>
11.106

$$$$
2g5q_lig
 OpenBabel11021811433D
libRbt.so/2013.1/901 2013/11/27
 40 42  0  0  0  0  0  0  0  0999 V2000
    3.3245   -7.7947   18.2084 C   0  0  2  0  0  0  0  0  0  0  0  0
    3.8194   -8.0964   19.4943 O   0  0  0  0  0  0  0  0  0  0  0  0
    2.5229   -9.0202   17.6787 C   0  0  1  0  0  0  0  0  0  0  0  0
    3.4450  -10.2525   17.4239 C   0  0  2  0  0  0  0  0  0  0  0  0
    4.5141   -9.8370   16.3803 C   0  0  2  0  0  0  0  0  0  0  0  0
    5.3716  -10.9555   16.1006 O   0  0  0  0  0  0  0  0  0  0  0  0
    5.3371   -8.6210   16.9703 C   0  0  2  0  0  0  0  0  0  0  0  0
    4.4237   -7.4785   17.2587 O   0  0  0  0  0  0  0  0  0  0  0  0
    6.4143   -8.1185   16.0150 C   0  0  0  0  0  0  0  0  0  0  0  0
    5.8418   -7.2835   14.9119 N   0  0  0  0  0  0  0  0  0  0  0  0
    4.6106   -5.2366   22.6995 C   0  0  2  0  0  0  0  0  0  0  0  0
    5.2932   -4.2646   23.5450 N   0  0  0  0  0  0  0  0  0  0  0  0
    5.4038   -6.6102   22.6921 C   0  0  0  0  0  0  0  0  0  0  0  0
    4.6637   -7.6685   21.7829 C   0  0  2  0  0  0  0  0  0  0  0  0
    5.4113   -8.9550   21.7934 N   0  0  0  0  0  0  0  0  0  0  0  0
    4.5226   -7.0968   20.3162 C   0  0  2  0  0  0  0  0  0  0  0  0
    3.7326   -5.7292   20.3647 C   0  0  2  0  0  0  0  0  0  0  0  0
    3.6116   -5.2104   19.0365 O   0  0  0  0  0  0  0  0  0  0  0  0
    4.4958   -4.6833   21.2640 C   0  0  1  0  0  0  0  0  0  0  0  0
    3.7598   -3.4288   21.3169 O   0  0  0  0  0  0  0  0  0  0  0  0
    2.4831   -3.2852   21.8894 C   0  0  2  0  0  0  0  0  0  0  0  0
    1.6382   -2.3791   20.9313 C   0  0  2  0  0  0  0  0  0  0  0  0
    1.5467   -2.9830   19.6809 O   0  0  0  0  0  0  0  0  0  0  0  0
    2.2611   -0.9364   20.8159 C   0  0  1  0  0  0  0  0  0  0  0  0
    1.4560   -0.0591   19.9036 N   0  0  0  0  0  0  0  0  0  0  0  0
    2.3413   -0.3130   22.2659 C   0  0  2  0  0  0  0  0  0  0  0  0
    2.8938    1.0042   22.2247 O   0  0  0  0  0  0  0  0  0  0  0  0
    3.1977   -1.2620   23.1706 C   0  0  2  0  0  0  0  0  0  0  0  0
    2.6087   -2.6445   23.2107 O   0  0  0  0  0  0  0  0  0  0  0  0
    3.2941   -0.7506   24.5787 C   0  0  0  0  0  0  0  0  0  0  0  0
    3.9826    0.5097   24.6300 O   0  0  0  0  0  0  0  0  0  0  0  0
    1.4708   -9.3399   18.6529 O   0  0  0  0  0  0  0  0  0  0  0  0
    2.6884  -11.2995   16.9455 O   0  0  0  0  0  0  0  0  0  0  0  0
    9.5057   -2.9404   25.3016 N   0  0  0  0  0  0  0  0  0  0  0  0
    5.6458   -4.4654   24.8722 C   0  0  0  0  0  0  0  0  0  0  0  0
    5.4119   -5.4964   25.4933 O   0  0  0  0  0  0  0  0  0  0  0  0
    6.3526   -3.2357   25.4876 C   0  0  1  0  0  0  0  0  0  0  0  0
    7.2196   -2.5359   24.4214 C   0  0  0  0  0  0  0  0  0  0  0  0
    8.6008   -3.1536   24.1740 C   0  0  0  0  0  0  0  0  0  0  0  0
    5.3557   -2.3324   26.0164 O   0  0  0  0  0  0  0  0  0  0  0  0
  1  2  1  1  0  0  0
  1  3  1  0  0  0  0
  1  8  1  0  0  0  0
  3  4  1  0  0  0  0
  3 32  1  1  0  0  0
  4  5  1  0  0  0  0
  4 33  1  6  0  0  0
  5  6  1  1  0  0  0
  5  7  1  0  0  0  0
  7  8  1  0  0  0  0
  7  9  1  6  0  0  0
  9 10  1  0  0  0  0
 11 12  1  1  0  0  0
 11 13  1  0  0  0  0
 11 19  1  0  0  0  0
 12 35  1  0  0  0  0
 13 14  1  0  0  0  0
 14 15  1  6  0  0  0
 14 16  1  0  0  0  0
 16  2  1  6  0  0  0
 16 17  1  0  0  0  0
 17 18  1  6  0  0  0
 17 19  1  0  0  0  0
 19 20  1  1  0  0  0
 21 20  1  6  0  0  0
 21 22  1  0  0  0  0
 21 29  1  0  0  0  0
 22 23  1  6  0  0  0
 22 24  1  0  0  0  0
 24 25  1  6  0  0  0
 24 26  1  0  0  0  0
 26 27  1  6  0  0  0
 26 28  1  0  0  0  0
 28 29  1  0  0  0  0
 28 30  1  1  0  0  0
 30 31  1  0  0  0  0
 34 39  1  0  0  0  0
 35 36  2  0  0  0  0
 37 35  1  6  0  0  0
 37 38  1  0  0  0  0
 37 40  1  0  0  0  0
 38 39  1  0  0  0  0
M  END
>  <CHROM.1>
-174.58435805,77.14212785,-54.27003839,168.29522454,-55.02127202,-137.39140937
-63.70714429,-34.59224267,-81.70461290,-70.24306829,4.24287059,-5.10306752
20.98888849,1.62438991,0.78064304,-2.46027856

>  <Name>
2g5q_lig

>  <RI>
2.47104e+07

>  <Rbt.Current_Directory>
/home/itssahil/PROJECTS/Mol_Feturizer/New_Systems/rnas/2g5q

>  <Rbt.Executable>
rbdock ($Id: //depot/dev/client3/rdock/2013.1/src/exe/rbdock.cxx#4 $)

>  <Rbt.Library>
libRbt.so (2013.1, Build901 2013/11/27)

>  <Rbt.Parameter_File>
/export/apps/rDock/src/rDock_2013.1_src/data/scripts/dock_solv.prm

>  <Rbt.Receptor>
prm/pocket_docking_7.prm

>  <SCORE>
-21.5223

>  <SCORE.INTER>
-18.1059

>  <SCORE.INTER.CONST>
1

>  <SCORE.INTER.POLAR>
-1.59405

>  <SCORE.INTER.ROT>
10

>  <SCORE.INTER.SOLV>
18.7188

>  <SCORE.INTER.VDW>
-23.2634

>  <SCORE.INTER.norm>
-0.452648

>  <SCORE.INTRA>
-3.41643

>  <SCORE.INTRA.DIHEDRAL>
-11.4461

>  <SCORE.INTRA.DIHEDRAL.0>
22.5778

>  <SCORE.INTRA.POLAR>
0

>  <SCORE.INTRA.POLAR.0>
0

>  <SCORE.INTRA.REPUL>
0

>  <SCORE.INTRA.REPUL.0>
0

>  <SCORE.INTRA.SOLV>
1.80037

>  <SCORE.INTRA.SOLV.lig_0>
-102.332

>  <SCORE.INTRA.VDW>
1.40642

>  <SCORE.INTRA.VDW.0>
-5.08747

>  <SCORE.INTRA.norm>
-0.0854107

>  <SCORE.RESTR>
0

>  <SCORE.RESTR.CAVITY>
0

>  <SCORE.RESTR.norm>
0

>  <SCORE.SYSTEM>
0

>  <SCORE.SYSTEM.CONST>
0

>  <SCORE.SYSTEM.DIHEDRAL>
0

>  <SCORE.SYSTEM.SOLV>
0

>  <SCORE.SYSTEM.norm>
0

>  <SCORE.heavy>
40

>  <SCORE.norm>
-0.538059

>  <RMSD>
11.127

$$$$
2g5q_lig
 OpenBabel11021811433D
libRbt.so/2013.1/901 2013/11/27
 40 42  0  0  0  0  0  0  0  0999 V2000
    3.0339   -8.0575   18.3712 C   0  0  2  0  0  0  0  0  0  0  0  0
    3.3341   -8.1680   19.7449 O   0  0  0  0  0  0  0  0  0  0  0  0
    2.2297   -9.3160   17.9303 C   0  0  1  0  0  0  0  0  0  0  0  0
    3.0937  -10.6129   18.0013 C   0  0  2  0  0  0  0  0  0  0  0  0
    4.3160  -10.4202   17.0666 C   0  0  2  0  0  0  0  0  0  0  0  0
    5.1269  -11.6061   17.0866 O   0  0  0  0  0  0  0  0  0  0  0  0
    5.1328   -9.1622   17.5710 C   0  0  2  0  0  0  0  0  0  0  0  0
    4.2670   -7.9487   17.5479 O   0  0  0  0  0  0  0  0  0  0  0  0
    6.3572   -8.8697   16.7102 C   0  0  0  0  0  0  0  0  0  0  0  0
    7.3755   -9.9644   16.7915 N   0  0  0  0  0  0  0  0  0  0  0  0
    4.5897   -5.1140   22.6039 C   0  0  2  0  0  0  0  0  0  0  0  0
    5.4189   -4.1568   23.3263 N   0  0  0  0  0  0  0  0  0  0  0  0
    5.1967   -6.5736   22.7338 C   0  0  0  0  0  0  0  0  0  0  0  0
    4.2974   -7.6150   21.9584 C   0  0  2  0  0  0  0  0  0  0  0  0
    4.8712   -8.9808   22.0974 N   0  0  0  0  0  0  0  0  0  0  0  0
    4.1866   -7.1889   20.4405 C   0  0  2  0  0  0  0  0  0  0  0  0
    3.5832   -5.7312   20.3520 C   0  0  2  0  0  0  0  0  0  0  0  0
    3.4897   -5.3452   18.9772 O   0  0  0  0  0  0  0  0  0  0  0  0
    4.5035   -4.7062   21.1185 C   0  0  1  0  0  0  0  0  0  0  0  0
    3.9390   -3.3667   21.0459 O   0  0  0  0  0  0  0  0  0  0  0  0
    2.8606   -2.9201   21.8306 C   0  0  2  0  0  0  0  0  0  0  0  0
    1.9536   -2.0275   20.9174 C   0  0  2  0  0  0  0  0  0  0  0  0
    1.4944   -2.7799   19.8406 O   0  0  0  0  0  0  0  0  0  0  0  0
    2.7288   -0.7486   20.4214 C   0  0  1  0  0  0  0  0  0  0  0  0
    1.8667    0.1155   19.5494 N   0  0  0  0  0  0  0  0  0  0  0  0
    3.2255    0.0536   21.6891 C   0  0  2  0  0  0  0  0  0  0  0  0
    3.9324    1.2334   21.3012 O   0  0  0  0  0  0  0  0  0  0  0  0
    4.1253   -0.8905   22.5562 C   0  0  2  0  0  0  0  0  0  0  0  0
    3.3739   -2.1276   22.9622 O   0  0  0  0  0  0  0  0  0  0  0  0
    4.6124   -0.2062   23.8004 C   0  0  0  0  0  0  0  0  0  0  0  0
    5.5001    0.8790   23.4855 O   0  0  0  0  0  0  0  0  0  0  0  0
    1.0397   -9.4264   18.7846 O   0  0  0  0  0  0  0  0  0  0  0  0
    2.3391  -11.6892   17.5893 O   0  0  0  0  0  0  0  0  0  0  0  0
    7.7769   -4.4649   28.3161 N   0  0  0  0  0  0  0  0  0  0  0  0
    5.2918   -3.8427   24.6722 C   0  0  0  0  0  0  0  0  0  0  0  0
    4.4498   -4.3377   25.4133 O   0  0  0  0  0  0  0  0  0  0  0  0
    6.3211   -2.7840   25.1308 C   0  0  1  0  0  0  0  0  0  0  0  0
    7.3304   -3.4175   26.1097 C   0  0  0  0  0  0  0  0  0  0  0  0
    6.7409   -3.9642   27.4150 C   0  0  0  0  0  0  0  0  0  0  0  0
    6.9951   -2.2457   23.9709 O   0  0  0  0  0  0  0  0  0  0  0  0
  1  2  1  1  0  0  0
  1  3  1  0  0  0  0
  1  8  1  0  0  0  0
  3  4  1  0  0  0  0
  3 32  1  1  0  0  0
  4  5  1  0  0  0  0
  4 33  1  6  0  0  0
  5  6  1  1  0  0  0
  5  7  1  0  0  0  0
  7  8  1  0  0  0  0
  7  9  1  6  0  0  0
  9 10  1  0  0  0  0
 11 12  1  1  0  0  0
 11 13  1  0  0  0  0
 11 19  1  0  0  0  0
 12 35  1  0  0  0  0
 13 14  1  0  0  0  0
 14 15  1  6  0  0  0
 14 16  1  0  0  0  0
 16  2  1  6  0  0  0
 16 17  1  0  0  0  0
 17 18  1  6  0  0  0
 17 19  1  0  0  0  0
 19 20  1  1  0  0  0
 21 20  1  6  0  0  0
 21 22  1  0  0  0  0
 21 29  1  0  0  0  0
 22 23  1  6  0  0  0
 22 24  1  0  0  0  0
 24 25  1  1  0  0  0
 24 26  1  0  0  0  0
 26 27  1  6  0  0  0
 26 28  1  0  0  0  0
 28 29  1  0  0  0  0
 28 30  1  1  0  0  0
 30 31  1  0  0  0  0
 34 39  1  0  0  0  0
 35 36  2  0  0  0  0
 37 35  1  6  0  0  0
 37 38  1  0  0  0  0
 37 40  1  0  0  0  0
 38 39  1  0  0  0  0
M  END
>  <CHROM.1>
174.72403457,-65.23615153,-87.32766815,179.53065177,-41.74922577,-140.59148267
-65.69570213,-112.47051840,-62.02018572,-176.27483646,4.29601267,-5.20748750
21.16126798,1.74192023,0.99180601,-2.65851107

>  <Name>
2g5q_lig

>  <RI>
224

>  <Rbt.Current_Directory>
/home/itssahil/PROJECTS/Mol_Feturizer/New_Systems/rnas/2g5q

>  <Rbt.Executable>
rbdock ($Id: //depot/dev/client3/rdock/2013.1/src/exe/rbdock.cxx#4 $)

>  <Rbt.Library>
libRbt.so (2013.1, Build901 2013/11/27)

>  <Rbt.Parameter_File>
/export/apps/rDock/src/rDock_2013.1_src/data/scripts/dock_solv.prm

>  <Rbt.Receptor>
prm/pocket_docking_8.prm

>  <SCORE>
-22.2643

>  <SCORE.INTER>
-17.1117

>  <SCORE.INTER.CONST>
1

>  <SCORE.INTER.POLAR>
-1.43506

>  <SCORE.INTER.ROT>
10

>  <SCORE.INTER.SOLV>
16.2002

>  <SCORE.INTER.VDW>
-22.291

>  <SCORE.INTER.norm>
-0.427793

>  <SCORE.INTRA>
-5.15253

>  <SCORE.INTRA.DIHEDRAL>
-12.4333

>  <SCORE.INTRA.DIHEDRAL.0>
22.5778

>  <SCORE.INTRA.POLAR>
0

>  <SCORE.INTRA.POLAR.0>
0

>  <SCORE.INTRA.REPUL>
0

>  <SCORE.INTRA.REPUL.0>
0

>  <SCORE.INTRA.SOLV>
1.52968

>  <SCORE.INTRA.SOLV.lig_0>
-102.332

>  <SCORE.INTRA.VDW>
0.299269

>  <SCORE.INTRA.VDW.0>
-5.08747

>  <SCORE.INTRA.norm>
-0.128813

>  <SCORE.RESTR>
0

>  <SCORE.RESTR.CAVITY>
0

>  <SCORE.RESTR.norm>
0

>  <SCORE.SYSTEM>
0

>  <SCORE.SYSTEM.CONST>
0

>  <SCORE.SYSTEM.DIHEDRAL>
0

>  <SCORE.SYSTEM.SOLV>
0

>  <SCORE.SYSTEM.norm>
0

>  <SCORE.heavy>
40

>  <SCORE.norm>
-0.556606

>  <RMSD>
11.127

$$$$
2g5q_lig
 OpenBabel11021811433D
libRbt.so/2013.1/901 2013/11/27
 40 42  0  0  0  0  0  0  0  0999 V2000
    9.6380  -13.0480    9.0542 C   0  0  2  0  0  0  0  0  0  0  0  0
    9.4530  -12.8449   10.4377 O   0  0  0  0  0  0  0  0  0  0  0  0
   11.0942  -12.6449    8.6779 C   0  0  1  0  0  0  0  0  0  0  0  0
   11.3360  -11.1131    8.8470 C   0  0  2  0  0  0  0  0  0  0  0  0
   10.3337  -10.3703    7.9257 C   0  0  2  0  0  0  0  0  0  0  0  0
   10.5407   -8.9528    8.0358 O   0  0  0  0  0  0  0  0  0  0  0  0
    8.8667  -10.7683    8.3656 C   0  0  2  0  0  0  0  0  0  0  0  0
    8.6815  -12.2431    8.2496 O   0  0  0  0  0  0  0  0  0  0  0  0
    7.7933  -10.1017    7.5119 C   0  0  0  0  0  0  0  0  0  0  0  0
    7.6831   -8.6351    7.7923 N   0  0  0  0  0  0  0  0  0  0  0  0
    5.4834  -11.0510   10.7562 C   0  0  2  0  0  0  0  0  0  0  0  0
    4.1770  -10.6740   11.2824 N   0  0  0  0  0  0  0  0  0  0  0  0
    5.5992  -12.6297   10.6549 C   0  0  0  0  0  0  0  0  0  0  0  0
    7.0105  -13.0424   10.0784 C   0  0  2  0  0  0  0  0  0  0  0  0
    7.1021  -14.5241    9.9780 N   0  0  0  0  0  0  0  0  0  0  0  0
    8.1500  -12.4567   11.0040 C   0  0  2  0  0  0  0  0  0  0  0  0
    7.9994  -10.8858   11.0837 C   0  0  2  0  0  0  0  0  0  0  0  0
    9.0281  -10.3584   11.9273 O   0  0  0  0  0  0  0  0  0  0  0  0
    6.5911  -10.4964   11.6756 C   0  0  1  0  0  0  0  0  0  0  0  0
    6.4503   -9.0491   11.7364 O   0  0  0  0  0  0  0  0  0  0  0  0
    5.5392   -8.3783   12.5719 C   0  0  2  0  0  0  0  0  0  0  0  0
    5.0533   -7.1009   11.8068 C   0  0  2  0  0  0  0  0  0  0  0  0
    4.4375   -7.4778   10.6171 O   0  0  0  0  0  0  0  0  0  0  0  0
    6.2490   -6.1118   11.5336 C   0  0  1  0  0  0  0  0  0  0  0  0
    5.7927   -4.8826   10.8048 N   0  0  0  0  0  0  0  0  0  0  0  0
    6.9043   -5.7304   12.9201 C   0  0  2  0  0  0  0  0  0  0  0  0
    7.9950   -4.8254   12.7368 O   0  0  0  0  0  0  0  0  0  0  0  0
    7.3690   -7.0460   13.6314 C   0  0  2  0  0  0  0  0  0  0  0  0
    6.2158   -7.9912   13.8228 O   0  0  0  0  0  0  0  0  0  0  0  0
    7.9767   -6.7669   14.9754 C   0  0  0  0  0  0  0  0  0  0  0  0
    8.3020   -7.9854   15.6641 O   0  0  0  0  0  0  0  0  0  0  0  0
   12.0192  -13.4213    9.5145 O   0  0  0  0  0  0  0  0  0  0  0  0
   12.6315  -10.8115    8.4890 O   0  0  0  0  0  0  0  0  0  0  0  0
    1.7254  -12.1716   10.2887 N   0  0  0  0  0  0  0  0  0  0  0  0
    3.7572  -10.8594   12.5922 C   0  0  0  0  0  0  0  0  0  0  0  0
    4.4468  -11.3761   13.4645 O   0  0  0  0  0  0  0  0  0  0  0  0
    2.3139  -10.3569   12.8261 C   0  0  1  0  0  0  0  0  0  0  0  0
    1.3147  -11.5180   12.6485 C   0  0  0  0  0  0  0  0  0  0  0  0
    1.7433  -12.6247   11.6780 C   0  0  0  0  0  0  0  0  0  0  0  0
    2.2187   -9.7923   14.1533 O   0  0  0  0  0  0  0  0  0  0  0  0
  1  2  1  1  0  0  0
  1  3  1  0  0  0  0
  1  8  1  0  0  0  0
  3  4  1  0  0  0  0
  3 32  1  1  0  0  0
  4  5  1  0  0  0  0
  4 33  1  6  0  0  0
  5  6  1  1  0  0  0
  5  7  1  0  0  0  0
  7  8  1  0  0  0  0
  7  9  1  6  0  0  0
  9 10  1  0  0  0  0
 11 12  1  1  0  0  0
 11 13  1  0  0  0  0
 11 19  1  0  0  0  0
 12 35  1  0  0  0  0
 13 14  1  0  0  0  0
 14 15  1  1  0  0  0
 14 16  1  0  0  0  0
 16  2  1  6  0  0  0
 16 17  1  0  0  0  0
 17 18  1  1  0  0  0
 17 19  1  0  0  0  0
 19 20  1  6  0  0  0
 21 20  1  6  0  0  0
 21 22  1  0  0  0  0
 21 29  1  0  0  0  0
 22 23  1  6  0  0  0
 22 24  1  0  0  0  0
 24 25  1  1  0  0  0
 24 26  1  0  0  0  0
 26 27  1  6  0  0  0
 26 28  1  0  0  0  0
 28 29  1  0  0  0  0
 28 30  1  1  0  0  0
 30 31  1  0  0  0  0
 34 39  1  0  0  0  0
 35 36  2  0  0  0  0
 37 35  1  1  0  0  0
 37 38  1  0  0  0  0
 37 40  1  0  0  0  0
 38 39  1  0  0  0  0
M  END
>  <CHROM.1>
148.08304744,-71.49545515,70.94146236,29.41858088,81.54961678,-145.72726495
175.39906505,93.77057298,-28.88256209,-70.46885483,6.96374741,-10.06283257
11.06533995,0.57047608,-0.37551368,-2.70600139

>  <Name>
2g5q_lig

>  <RI>
0

>  <Rbt.Current_Directory>
/home/itssahil/PROJECTS/Mol_Feturizer/New_Systems/rnas/2g5q

>  <Rbt.Executable>
rbdock ($Id: //depot/dev/client3/rdock/2013.1/src/exe/rbdock.cxx#4 $)

>  <Rbt.Library>
libRbt.so (2013.1, Build901 2013/11/27)

>  <Rbt.Parameter_File>
/export/apps/rDock/src/rDock_2013.1_src/data/scripts/dock_solv.prm

>  <Rbt.Receptor>
prm/blind_docking_20.prm

>  <SCORE>
55.3214

>  <SCORE.INTER>
34.0614

>  <SCORE.INTER.CONST>
1

>  <SCORE.INTER.POLAR>
0

>  <SCORE.INTER.ROT>
10

>  <SCORE.INTER.SOLV>
28.4044

>  <SCORE.INTER.VDW>
2.97279

>  <SCORE.INTER.norm>
0.851535

>  <SCORE.INTRA>
3.87995

>  <SCORE.INTRA.DIHEDRAL>
-2.88157

>  <SCORE.INTRA.DIHEDRAL.0>
22.5778

>  <SCORE.INTRA.POLAR>
0

>  <SCORE.INTRA.POLAR.0>
0

>  <SCORE.INTRA.REPUL>
0

>  <SCORE.INTRA.REPUL.0>
0

>  <SCORE.INTRA.SOLV>
6.73551

>  <SCORE.INTRA.SOLV.lig_0>
-102.332

>  <SCORE.INTRA.VDW>
1.95298

>  <SCORE.INTRA.VDW.0>
-5.08747

>  <SCORE.INTRA.norm>
0.0969988

>  <SCORE.RESTR>
17.3801

>  <SCORE.RESTR.CAVITY>
17.3801

>  <SCORE.RESTR.norm>
0.434502

>  <SCORE.SYSTEM>
0

>  <SCORE.SYSTEM.CONST>
0

>  <SCORE.SYSTEM.DIHEDRAL>
0

>  <SCORE.SYSTEM.SOLV>
0

>  <SCORE.SYSTEM.norm>
0

>  <SCORE.heavy>
40

>  <SCORE.norm>
1.38304

>  <RMSD>
11.175

$$$$
2g5q_lig
 OpenBabel11021811433D
libRbt.so/2013.1/901 2013/11/27
 40 42  0  0  0  0  0  0  0  0999 V2000
   10.6974  -10.8642    8.7960 C   0  0  2  0  0  0  0  0  0  0  0  0
   10.3367  -11.1123   10.1368 O   0  0  0  0  0  0  0  0  0  0  0  0
   11.4420   -9.4987    8.7208 C   0  0  1  0  0  0  0  0  0  0  0  0
   10.5000   -8.3028    9.0618 C   0  0  2  0  0  0  0  0  0  0  0  0
    9.3295   -8.3163    8.0446 C   0  0  2  0  0  0  0  0  0  0  0  0
    8.4491   -7.2126    8.3117 O   0  0  0  0  0  0  0  0  0  0  0  0
    8.5698   -9.6977    8.1807 C   0  0  2  0  0  0  0  0  0  0  0  0
    9.5067  -10.8246    7.9067 O   0  0  0  0  0  0  0  0  0  0  0  0
    7.4002   -9.8261    7.2105 C   0  0  0  0  0  0  0  0  0  0  0  0
    6.8720  -11.2257    7.1495 N   0  0  0  0  0  0  0  0  0  0  0  0
    6.0648  -10.2021   10.1474 C   0  0  2  0  0  0  0  0  0  0  0  0
    4.6738  -10.1108   10.5746 N   0  0  0  0  0  0  0  0  0  0  0  0
    6.5193  -11.7202   10.0795 C   0  0  0  0  0  0  0  0  0  0  0  0
    8.0238  -11.8241    9.6102 C   0  0  2  0  0  0  0  0  0  0  0  0
    8.4340  -13.2527    9.5399 N   0  0  0  0  0  0  0  0  0  0  0  0
    8.9437  -11.0093   10.6040 C   0  0  2  0  0  0  0  0  0  0  0  0
    8.4585   -9.5062   10.6481 C   0  0  2  0  0  0  0  0  0  0  0  0
    9.2889   -8.7719   11.5533 O   0  0  0  0  0  0  0  0  0  0  0  0
    6.9609   -9.4243   11.1334 C   0  0  1  0  0  0  0  0  0  0  0  0
    6.5128   -8.0399   11.1612 O   0  0  0  0  0  0  0  0  0  0  0  0
    5.4478   -7.5698   11.9506 C   0  0  2  0  0  0  0  0  0  0  0  0
    5.5235   -6.0054   11.9574 C   0  0  2  0  0  0  0  0  0  0  0  0
    5.4122   -5.5289   10.6547 O   0  0  0  0  0  0  0  0  0  0  0  0
    6.8573   -5.5031   12.6292 C   0  0  1  0  0  0  0  0  0  0  0  0
    6.9370   -4.0051   12.6447 N   0  0  0  0  0  0  0  0  0  0  0  0
    6.9224   -6.0829   14.0978 C   0  0  2  0  0  0  0  0  0  0  0  0
    8.1119   -5.6536   14.7632 O   0  0  0  0  0  0  0  0  0  0  0  0
    6.8445   -7.6452   14.0216 C   0  0  2  0  0  0  0  0  0  0  0  0
    5.5895   -8.0886   13.3227 O   0  0  0  0  0  0  0  0  0  0  0  0
    6.8693   -8.2706   15.3860 C   0  0  0  0  0  0  0  0  0  0  0  0
    8.1148   -8.0137   16.0551 O   0  0  0  0  0  0  0  0  0  0  0  0
   12.5883   -9.5466    9.6383 O   0  0  0  0  0  0  0  0  0  0  0  0
   11.2048   -7.1231    8.9672 O   0  0  0  0  0  0  0  0  0  0  0  0
    1.9223  -14.0371   12.0000 N   0  0  0  0  0  0  0  0  0  0  0  0
    4.1987  -10.4505   11.8336 C   0  0  0  0  0  0  0  0  0  0  0  0
    4.9061  -10.8792   12.7386 O   0  0  0  0  0  0  0  0  0  0  0  0
    2.6719  -10.2444   11.9635 C   0  0  1  0  0  0  0  0  0  0  0  0
    1.9880  -11.5771   12.3300 C   0  0  0  0  0  0  0  0  0  0  0  0
    2.2787  -12.7559   11.3939 C   0  0  0  0  0  0  0  0  0  0  0  0
    2.4141   -9.2383   12.9689 O   0  0  0  0  0  0  0  0  0  0  0  0
  1  2  1  1  0  0  0
  1  3  1  0  0  0  0
  1  8  1  0  0  0  0
  3  4  1  0  0  0  0
  3 32  1  1  0  0  0
  4  5  1  0  0  0  0
  4 33  1  6  0  0  0
  5  6  1  1  0  0  0
  5  7  1  0  0  0  0
  7  8  1  0  0  0  0
  7  9  1  6  0  0  0
  9 10  1  0  0  0  0
 11 12  1  1  0  0  0
 11 13  1  0  0  0  0
 11 19  1  0  0  0  0
 12 35  1  0  0  0  0
 13 14  1  0  0  0  0
 14 15  1  1  0  0  0
 14 16  1  0  0  0  0
 16  2  1  6  0  0  0
 16 17  1  0  0  0  0
 17 18  1  1  0  0  0
 17 19  1  0  0  0  0
 19 20  1  6  0  0  0
 21 20  1  6  0  0  0
 21 22  1  0  0  0  0
 21 29  1  0  0  0  0
 22 23  1  6  0  0  0
 22 24  1  0  0  0  0
 24 25  1  1  0  0  0
 24 26  1  0  0  0  0
 26 27  1  6  0  0  0
 26 28  1  0  0  0  0
 28 29  1  0  0  0  0
 28 30  1  1  0  0  0
 30 31  1  0  0  0  0
 34 39  1  0  0  0  0
 35 36  2  0  0  0  0
 37 35  1  1  0  0  0
 37 38  1  0  0  0  0
 37 40  1  0  0  0  0
 38 39  1  0  0  0  0
M  END
>  <CHROM.1>
107.03625937,168.23641474,67.19945811,49.19453253,83.53460990,166.34593595
-64.05113879,121.07011030,-54.57440335,163.71911608,7.12331870,-9.19561585
11.02020642,0.34513749,-0.47576732,-2.48766151

>  <Name>
2g5q_lig

>  <RI>
0

>  <Rbt.Current_Directory>
/home/itssahil/PROJECTS/Mol_Feturizer/New_Systems/rnas/2g5q

>  <Rbt.Executable>
rbdock ($Id: //depot/dev/client3/rdock/2013.1/src/exe/rbdock.cxx#4 $)

>  <Rbt.Library>
libRbt.so (2013.1, Build901 2013/11/27)

>  <Rbt.Parameter_File>
/export/apps/rDock/src/rDock_2013.1_src/data/scripts/dock_solv.prm

>  <Rbt.Receptor>
prm/blind_docking_20.prm

>  <SCORE>
23.9441

>  <SCORE.INTER>
-7.67842

>  <SCORE.INTER.CONST>
1

>  <SCORE.INTER.POLAR>
-1.2014

>  <SCORE.INTER.ROT>
10

>  <SCORE.INTER.SOLV>
25.5951

>  <SCORE.INTER.VDW>
-19.9127

>  <SCORE.INTER.norm>
-0.19196

>  <SCORE.INTRA>
15.2407

>  <SCORE.INTRA.DIHEDRAL>
-8.24495

>  <SCORE.INTRA.DIHEDRAL.0>
22.5778

>  <SCORE.INTRA.POLAR>
0

>  <SCORE.INTRA.POLAR.0>
0

>  <SCORE.INTRA.REPUL>
0

>  <SCORE.INTRA.REPUL.0>
0

>  <SCORE.INTRA.SOLV>
9.69933

>  <SCORE.INTRA.SOLV.lig_0>
-102.332

>  <SCORE.INTRA.VDW>
14.5135

>  <SCORE.INTRA.VDW.0>
-5.08747

>  <SCORE.INTRA.norm>
0.381018

>  <SCORE.RESTR>
16.3818

>  <SCORE.RESTR.CAVITY>
16.3818

>  <SCORE.RESTR.norm>
0.409544

>  <SCORE.SYSTEM>
0

>  <SCORE.SYSTEM.CONST>
0

>  <SCORE.SYSTEM.DIHEDRAL>
0

>  <SCORE.SYSTEM.SOLV>
0

>  <SCORE.SYSTEM.norm>
0

>  <SCORE.heavy>
40

>  <SCORE.norm>
0.598601

>  <RMSD>
11.276

$$$$
2g5q_lig
 OpenBabel11021811433D
libRbt.so/2013.1/901 2013/11/27
 40 42  0  0  0  0  0  0  0  0999 V2000
   10.7509  -10.0586    9.4606 C   0  0  2  0  0  0  0  0  0  0  0  0
    9.4955   -9.5812    9.0299 O   0  0  0  0  0  0  0  0  0  0  0  0
   11.3305  -11.0039    8.3673 C   0  0  1  0  0  0  0  0  0  0  0  0
   10.4871  -12.3079    8.2189 C   0  0  2  0  0  0  0  0  0  0  0  0
   10.4887  -13.0322    9.5901 C   0  0  2  0  0  0  0  0  0  0  0  0
    9.7389  -14.2537    9.4882 O   0  0  0  0  0  0  0  0  0  0  0  0
    9.8527  -12.0607   10.6651 C   0  0  2  0  0  0  0  0  0  0  0  0
   10.6440  -10.7996   10.7449 O   0  0  0  0  0  0  0  0  0  0  0  0
    9.8164  -12.6698   12.0627 C   0  0  0  0  0  0  0  0  0  0  0  0
   11.1088  -12.4764   12.7935 N   0  0  0  0  0  0  0  0  0  0  0  0
    5.2614   -9.5987   10.1019 C   0  0  2  0  0  0  0  0  0  0  0  0
    4.0240   -9.8356   10.8358 N   0  0  0  0  0  0  0  0  0  0  0  0
    5.9630  -10.9769    9.7498 C   0  0  0  0  0  0  0  0  0  0  0  0
    7.3004  -10.7251    8.9483 C   0  0  2  0  0  0  0  0  0  0  0  0
    7.9425  -12.0252    8.6146 N   0  0  0  0  0  0  0  0  0  0  0  0
    8.2639   -9.8102    9.8043 C   0  0  2  0  0  0  0  0  0  0  0  0
    7.5301   -8.4513   10.1384 C   0  0  2  0  0  0  0  0  0  0  0  0
    8.4019   -7.6273   10.9188 O   0  0  0  0  0  0  0  0  0  0  0  0
    6.2072   -8.7244   10.9510 C   0  0  1  0  0  0  0  0  0  0  0  0
    5.5271   -7.4721   11.2467 O   0  0  0  0  0  0  0  0  0  0  0  0
    5.0146   -7.1306   12.5112 C   0  0  2  0  0  0  0  0  0  0  0  0
    5.2390   -5.5932   12.7091 C   0  0  2  0  0  0  0  0  0  0  0  0
    4.5727   -4.8934   11.7078 O   0  0  0  0  0  0  0  0  0  0  0  0
    6.7742   -5.2387   12.7184 C   0  0  1  0  0  0  0  0  0  0  0  0
    6.9997   -3.7684   12.9121 N   0  0  0  0  0  0  0  0  0  0  0  0
    7.4683   -6.0686   13.8702 C   0  0  2  0  0  0  0  0  0  0  0  0
    8.8670   -5.7825   13.9330 O   0  0  0  0  0  0  0  0  0  0  0  0
    7.2093   -7.5917   13.6138 C   0  0  2  0  0  0  0  0  0  0  0  0
    5.7362   -7.8848   13.5516 O   0  0  0  0  0  0  0  0  0  0  0  0
    7.8145   -8.4475   14.6885 C   0  0  0  0  0  0  0  0  0  0  0  0
    7.4628   -7.9684   15.9968 O   0  0  0  0  0  0  0  0  0  0  0  0
   11.3869  -10.2640    7.0995 O   0  0  0  0  0  0  0  0  0  0  0  0
   11.0505  -13.1103    7.2513 O   0  0  0  0  0  0  0  0  0  0  0  0
    2.5859  -13.9661   12.4509 N   0  0  0  0  0  0  0  0  0  0  0  0
    3.8119  -10.8715   11.7347 C   0  0  0  0  0  0  0  0  0  0  0  0
    4.6526  -11.7204   12.0104 O   0  0  0  0  0  0  0  0  0  0  0  0
    2.3889  -10.8466   12.3387 C   0  0  1  0  0  0  0  0  0  0  0  0
    1.4975  -11.8893   11.6343 C   0  0  0  0  0  0  0  0  0  0  0  0
    2.1804  -13.2118   11.2667 C   0  0  0  0  0  0  0  0  0  0  0  0
    2.4721  -11.1125   13.7571 O   0  0  0  0  0  0  0  0  0  0  0  0
  1  2  1  6  0  0  0
  1  3  1  0  0  0  0
  1  8  1  0  0  0  0
  3  4  1  0  0  0  0
  3 32  1  6  0  0  0
  4  5  1  0  0  0  0
  4 33  1  6  0  0  0
  5  6  1  6  0  0  0
  5  7  1  0  0  0  0
  7  8  1  0  0  0  0
  7  9  1  1  0  0  0
  9 10  1  0  0  0  0
 11 12  1  1  0  0  0
 11 13  1  0  0  0  0
 11 19  1  0  0  0  0
 12 35  1  0  0  0  0
 13 14  1  0  0  0  0
 14 15  1  1  0  0  0
 14 16  1  0  0  0  0
 16  2  1  6  0  0  0
 16 17  1  0  0  0  0
 17 18  1  1  0  0  0
 17 19  1  0  0  0  0
 19 20  1  6  0  0  0
 21 20  1  6  0  0  0
 21 22  1  0  0  0  0
 21 29  1  0  0  0  0
 22 23  1  6  0  0  0
 22 24  1  0  0  0  0
 24 25  1  1  0  0  0
 24 26  1  0  0  0  0
 26 27  1  6  0  0  0
 26 28  1  0  0  0  0
 28 29  1  0  0  0  0
 28 30  1  1  0  0  0
 30 31  1  0  0  0  0
 34 39  1  0  0  0  0
 35 36  2  0  0  0  0
 37 35  1  6  0  0  0
 37 38  1  0  0  0  0
 37 40  1  0  0  0  0
 38 39  1  0  0  0  0
M  END
>  <CHROM.1>
121.14550613,84.54888792,33.80333840,-115.38547217,107.26719619,143.55999641
49.03183298,101.04153688,37.97358841,65.61871183,7.15695966,-9.76580700,11.24788093
-0.76103561,0.32479655,0.42353248

>  <Name>
2g5q_lig

>  <RI>
0

>  <Rbt.Current_Directory>
/home/itssahil/PROJECTS/Mol_Feturizer/New_Systems/rnas/2g5q

>  <Rbt.Executable>
rbdock ($Id: //depot/dev/client3/rdock/2013.1/src/exe/rbdock.cxx#4 $)

>  <Rbt.Library>
libRbt.so (2013.1, Build901 2013/11/27)

>  <Rbt.Parameter_File>
/export/apps/rDock/src/rDock_2013.1_src/data/scripts/dock_solv.prm

>  <Rbt.Receptor>
prm/blind_docking_20.prm

>  <SCORE>
28.2523

>  <SCORE.INTER>
2.37713

>  <SCORE.INTER.CONST>
1

>  <SCORE.INTER.POLAR>
-0.552177

>  <SCORE.INTER.ROT>
10

>  <SCORE.INTER.SOLV>
23.8465

>  <SCORE.INTER.VDW>
-14.7902

>  <SCORE.INTER.norm>
0.0594284

>  <SCORE.INTRA>
13.1594

>  <SCORE.INTRA.DIHEDRAL>
9.46643

>  <SCORE.INTRA.DIHEDRAL.0>
22.5778

>  <SCORE.INTRA.POLAR>
0

>  <SCORE.INTRA.POLAR.0>
0

>  <SCORE.INTRA.REPUL>
0

>  <SCORE.INTRA.REPUL.0>
0

>  <SCORE.INTRA.SOLV>
10.334

>  <SCORE.INTRA.SOLV.lig_0>
-102.332

>  <SCORE.INTRA.VDW>
3.25922

>  <SCORE.INTRA.VDW.0>
-5.08747

>  <SCORE.INTRA.norm>
0.328986

>  <SCORE.RESTR>
12.7158

>  <SCORE.RESTR.CAVITY>
12.7158

>  <SCORE.RESTR.norm>
0.317894

>  <SCORE.SYSTEM>
0

>  <SCORE.SYSTEM.CONST>
0

>  <SCORE.SYSTEM.DIHEDRAL>
0

>  <SCORE.SYSTEM.SOLV>
0

>  <SCORE.SYSTEM.norm>
0

>  <SCORE.heavy>
40

>  <SCORE.norm>
0.706308

>  <RMSD>
11.310

$$$$
2g5q_lig
 OpenBabel11021811433D
libRbt.so/2013.1/901 2013/11/27
 40 42  0  0  0  0  0  0  0  0999 V2000
   10.7690  -10.1302    9.3712 C   0  0  2  0  0  0  0  0  0  0  0  0
    9.5043   -9.6802    8.9381 O   0  0  0  0  0  0  0  0  0  0  0  0
   11.3490  -11.1027    8.3023 C   0  0  1  0  0  0  0  0  0  0  0  0
   10.5190  -12.4197    8.2026 C   0  0  2  0  0  0  0  0  0  0  0  0
   10.5415  -13.1010    9.5956 C   0  0  2  0  0  0  0  0  0  0  0  0
    9.8047  -14.3332    9.5390 O   0  0  0  0  0  0  0  0  0  0  0  0
    9.9048  -12.1034   10.6461 C   0  0  2  0  0  0  0  0  0  0  0  0
   10.6826  -10.8319   10.6790 O   0  0  0  0  0  0  0  0  0  0  0  0
    9.8885  -12.6690   12.0622 C   0  0  0  0  0  0  0  0  0  0  0  0
   10.9859  -12.1001   12.9070 N   0  0  0  0  0  0  0  0  0  0  0  0
    5.3029   -9.5623   10.1261 C   0  0  2  0  0  0  0  0  0  0  0  0
    4.0793   -9.7590   10.8942 N   0  0  0  0  0  0  0  0  0  0  0  0
    5.9507  -10.9626    9.7582 C   0  0  0  0  0  0  0  0  0  0  0  0
    7.2729  -10.7543    8.9197 C   0  0  2  0  0  0  0  0  0  0  0  0
    7.8642  -12.0746    8.5717 N   0  0  0  0  0  0  0  0  0  0  0  0
    8.2879   -9.8690    9.7467 C   0  0  2  0  0  0  0  0  0  0  0  0
    7.6067   -8.4870   10.0975 C   0  0  2  0  0  0  0  0  0  0  0  0
    8.5252   -7.6898   10.8516 O   0  0  0  0  0  0  0  0  0  0  0  0
    6.2988   -8.7170   10.9468 C   0  0  1  0  0  0  0  0  0  0  0  0
    5.6669   -7.4434   11.2580 O   0  0  0  0  0  0  0  0  0  0  0  0
    5.0414   -7.1501   12.4831 C   0  0  2  0  0  0  0  0  0  0  0  0
    5.1515   -5.6040   12.7081 C   0  0  2  0  0  0  0  0  0  0  0  0
    4.5176   -4.9360   11.6648 O   0  0  0  0  0  0  0  0  0  0  0  0
    6.6559   -5.1530   12.8343 C   0  0  1  0  0  0  0  0  0  0  0  0
    6.7718   -3.6737   13.0547 N   0  0  0  0  0  0  0  0  0  0  0  0
    7.3147   -5.9507   14.0288 C   0  0  2  0  0  0  0  0  0  0  0  0
    8.6837   -5.5773   14.1977 O   0  0  0  0  0  0  0  0  0  0  0  0
    7.1736   -7.4840   13.7430 C   0  0  2  0  0  0  0  0  0  0  0  0
    5.7310   -7.8692   13.5691 O   0  0  0  0  0  0  0  0  0  0  0  0
    7.7513   -8.3124   14.8537 C   0  0  0  0  0  0  0  0  0  0  0  0
    7.8871   -9.6883   14.4621 O   0  0  0  0  0  0  0  0  0  0  0  0
   11.3852  -10.4020    7.0116 O   0  0  0  0  0  0  0  0  0  0  0  0
   11.0823  -13.2457    7.2550 O   0  0  0  0  0  0  0  0  0  0  0  0
    1.7496  -12.4247   10.1969 N   0  0  0  0  0  0  0  0  0  0  0  0
    3.8666  -10.7752   11.8152 C   0  0  0  0  0  0  0  0  0  0  0  0
    4.6945  -11.6387   12.0840 O   0  0  0  0  0  0  0  0  0  0  0  0
    2.4601  -10.7079   12.4538 C   0  0  1  0  0  0  0  0  0  0  0  0
    1.9036  -12.1315   12.6576 C   0  0  0  0  0  0  0  0  0  0  0  0
    2.0536  -13.0837   11.4655 C   0  0  0  0  0  0  0  0  0  0  0  0
    2.5451  -10.0017   13.7122 O   0  0  0  0  0  0  0  0  0  0  0  0
  1  2  1  6  0  0  0
  1  3  1  0  0  0  0
  1  8  1  0  0  0  0
  3  4  1  0  0  0  0
  3 32  1  6  0  0  0
  4  5  1  0  0  0  0
  4 33  1  6  0  0  0
  5  6  1  6  0  0  0
  5  7  1  0  0  0  0
  7  8  1  0  0  0  0
  7  9  1  1  0  0  0
  9 10  1  0  0  0  0
 11 12  1  1  0  0  0
 11 13  1  0  0  0  0
 11 19  1  0  0  0  0
 12 35  1  0  0  0  0
 13 14  1  0  0  0  0
 14 15  1  1  0  0  0
 14 16  1  0  0  0  0
 16  2  1  6  0  0  0
 16 17  1  0  0  0  0
 17 18  1  1  0  0  0
 17 19  1  0  0  0  0
 19 20  1  6  0  0  0
 21 20  1  6  0  0  0
 21 22  1  0  0  0  0
 21 29  1  0  0  0  0
 22 23  1  6  0  0  0
 22 24  1  0  0  0  0
 24 25  1  1  0  0  0
 24 26  1  0  0  0  0
 26 27  1  6  0  0  0
 26 28  1  0  0  0  0
 28 29  1  0  0  0  0
 28 30  1  1  0  0  0
 30 31  1  0  0  0  0
 34 39  1  0  0  0  0
 35 36  2  0  0  0  0
 37 35  1  1  0  0  0
 37 38  1  0  0  0  0
 37 40  1  0  0  0  0
 38 39  1  0  0  0  0
M  END
>  <CHROM.1>
122.69058738,101.74446564,34.77425903,-119.05292518,98.39956684,151.80969480
-167.26344711,142.42431628,-46.10401830,-42.14354464,7.15674886,-9.73826799
11.19710790,-0.76759242,0.27063725,0.45044225

>  <Name>
2g5q_lig

>  <RI>
0

>  <Rbt.Current_Directory>
/home/itssahil/PROJECTS/Mol_Feturizer/New_Systems/rnas/2g5q

>  <Rbt.Executable>
rbdock ($Id: //depot/dev/client3/rdock/2013.1/src/exe/rbdock.cxx#4 $)

>  <Rbt.Library>
libRbt.so (2013.1, Build901 2013/11/27)

>  <Rbt.Parameter_File>
/export/apps/rDock/src/rDock_2013.1_src/data/scripts/dock_solv.prm

>  <Rbt.Receptor>
prm/blind_docking_20.prm

>  <SCORE>
28.2689

>  <SCORE.INTER>
4.15157

>  <SCORE.INTER.CONST>
1

>  <SCORE.INTER.POLAR>
-0.401155

>  <SCORE.INTER.ROT>
10

>  <SCORE.INTER.SOLV>
30.026

>  <SCORE.INTER.VDW>
-16.1704

>  <SCORE.INTER.norm>
0.103789

>  <SCORE.INTRA>
11.0009

>  <SCORE.INTRA.DIHEDRAL>
9.06903

>  <SCORE.INTRA.DIHEDRAL.0>
22.5778

>  <SCORE.INTRA.POLAR>
0

>  <SCORE.INTRA.POLAR.0>
0

>  <SCORE.INTRA.REPUL>
0

>  <SCORE.INTRA.REPUL.0>
0

>  <SCORE.INTRA.SOLV>
9.12139

>  <SCORE.INTRA.SOLV.lig_0>
-102.332

>  <SCORE.INTRA.VDW>
1.90566

>  <SCORE.INTRA.VDW.0>
-5.08747

>  <SCORE.INTRA.norm>
0.275022

>  <SCORE.RESTR>
13.1165

>  <SCORE.RESTR.CAVITY>
13.1165

>  <SCORE.RESTR.norm>
0.327912

>  <SCORE.SYSTEM>
0

>  <SCORE.SYSTEM.CONST>
0

>  <SCORE.SYSTEM.DIHEDRAL>
0

>  <SCORE.SYSTEM.SOLV>
0

>  <SCORE.SYSTEM.norm>
0

>  <SCORE.heavy>
40

>  <SCORE.norm>
0.706723

>  <RMSD>
11.314

$$$$
2g5q_lig
 OpenBabel11021811433D
libRbt.so/2013.1/901 2013/11/27
 40 42  0  0  0  0  0  0  0  0999 V2000
   -8.1575  -10.8940   13.4203 C   0  0  2  0  0  0  0  0  0  0  0  0
   -8.6635  -11.2452   14.6892 O   0  0  0  0  0  0  0  0  0  0  0  0
   -8.1880   -9.3436   13.2792 C   0  0  1  0  0  0  0  0  0  0  0  0
   -9.6465   -8.7911   13.2448 C   0  0  2  0  0  0  0  0  0  0  0  0
  -10.3709   -9.4400   12.0368 C   0  0  2  0  0  0  0  0  0  0  0  0
  -11.7146   -8.9375   11.9569 O   0  0  0  0  0  0  0  0  0  0  0  0
  -10.3600  -11.0097   12.2366 C   0  0  2  0  0  0  0  0  0  0  0  0
   -8.9560  -11.5034   12.3243 O   0  0  0  0  0  0  0  0  0  0  0  0
  -11.0386  -11.7549   11.0921 C   0  0  0  0  0  0  0  0  0  0  0  0
  -12.4898  -11.4052   10.9763 N   0  0  0  0  0  0  0  0  0  0  0  0
   -7.1050  -13.0589   18.3443 C   0  0  2  0  0  0  0  0  0  0  0  0
   -6.4401  -13.9890   19.2490 N   0  0  0  0  0  0  0  0  0  0  0  0
   -8.2833  -13.7901   17.5744 C   0  0  0  0  0  0  0  0  0  0  0  0
   -9.0111  -12.7841   16.5983 C   0  0  2  0  0  0  0  0  0  0  0  0
  -10.1206  -13.4790   15.8911 N   0  0  0  0  0  0  0  0  0  0  0  0
   -7.9621  -12.1876   15.5776 C   0  0  2  0  0  0  0  0  0  0  0  0
   -6.8040  -11.4725   16.3802 C   0  0  2  0  0  0  0  0  0  0  0  0
   -5.8523  -10.9388   15.4542 O   0  0  0  0  0  0  0  0  0  0  0  0
   -6.0815  -12.4971   17.3358 C   0  0  1  0  0  0  0  0  0  0  0  0
   -5.0235  -11.8331   18.0828 O   0  0  0  0  0  0  0  0  0  0  0  0
   -3.7944  -11.4346   17.5272 C   0  0  2  0  0  0  0  0  0  0  0  0
   -2.8581  -12.6901   17.5097 C   0  0  2  0  0  0  0  0  0  0  0  0
   -3.4393  -13.6927   16.7393 O   0  0  0  0  0  0  0  0  0  0  0  0
   -2.5641  -13.2013   18.9708 C   0  0  1  0  0  0  0  0  0  0  0  0
   -1.6641  -14.4013   18.9648 N   0  0  0  0  0  0  0  0  0  0  0  0
   -1.9131  -12.0167   19.7895 C   0  0  2  0  0  0  0  0  0  0  0  0
   -1.6159  -12.4239   21.1266 O   0  0  0  0  0  0  0  0  0  0  0  0
   -2.8959  -10.7975   19.7705 C   0  0  2  0  0  0  0  0  0  0  0  0
   -3.2015  -10.3737   18.3609 O   0  0  0  0  0  0  0  0  0  0  0  0
   -2.3313   -9.6163   20.5051 C   0  0  0  0  0  0  0  0  0  0  0  0
   -2.1746   -9.8989   21.9052 O   0  0  0  0  0  0  0  0  0  0  0  0
   -7.4294   -8.7632   14.3953 O   0  0  0  0  0  0  0  0  0  0  0  0
   -9.6142   -7.4210   13.1059 O   0  0  0  0  0  0  0  0  0  0  0  0
   -2.6653  -14.9599   24.1020 N   0  0  0  0  0  0  0  0  0  0  0  0
   -5.8253  -13.6425   20.4440 C   0  0  0  0  0  0  0  0  0  0  0  0
   -5.7656  -12.4961   20.8750 O   0  0  0  0  0  0  0  0  0  0  0  0
   -5.2074  -14.8625   21.1653 C   0  0  1  0  0  0  0  0  0  0  0  0
   -4.2293  -14.3898   22.2599 C   0  0  0  0  0  0  0  0  0  0  0  0
   -3.5322  -15.4990   23.0562 C   0  0  0  0  0  0  0  0  0  0  0  0
   -6.2681  -15.6643   21.7320 O   0  0  0  0  0  0  0  0  0  0  0  0
  1  2  1  1  0  0  0
  1  3  1  0  0  0  0
  1  8  1  0  0  0  0
  3  4  1  0  0  0  0
  3 32  1  1  0  0  0
  4  5  1  0  0  0  0
  4 33  1  6  0  0  0
  5  6  1  1  0  0  0
  5  7  1  0  0  0  0
  7  8  1  0  0  0  0
  7  9  1  6  0  0  0
  9 10  1  0  0  0  0
 11 12  1  1  0  0  0
 11 13  1  0  0  0  0
 11 19  1  0  0  0  0
 12 35  1  0  0  0  0
 13 14  1  0  0  0  0
 14 15  1  6  0  0  0
 14 16  1  0  0  0  0
 16  2  1  6  0  0  0
 16 17  1  0  0  0  0
 17 18  1  6  0  0  0
 17 19  1  0  0  0  0
 19 20  1  1  0  0  0
 21 20  1  1  0  0  0
 21 22  1  0  0  0  0
 21 29  1  0  0  0  0
 22 23  1  6  0  0  0
 22 24  1  0  0  0  0
 24 25  1  6  0  0  0
 24 26  1  0  0  0  0
 26 27  1  1  0  0  0
 26 28  1  0  0  0  0
 28 29  1  0  0  0  0
 28 30  1  1  0  0  0
 30 31  1  0  0  0  0
 34 39  1  0  0  0  0
 35 36  2  0  0  0  0
 37 35  1  1  0  0  0
 37 38  1  0  0  0  0
 37 40  1  0  0  0  0
 38 39  1  0  0  0  0
M  END
>  <CHROM.1>
-131.35018260,-62.60055138,-149.83414824,-158.02661382,166.91677444,-82.33489908
-64.84434451,164.77457387,-179.66570323,-177.83926606,-6.27198151,-11.93162074
17.20100946,-2.36342734,0.55036601,2.39920131

>  <Name>
2g5q_lig

>  <RI>
224

>  <Rbt.Current_Directory>
/home/itssahil/PROJECTS/Mol_Feturizer/New_Systems/rnas/2g5q

>  <Rbt.Executable>
rbdock ($Id: //depot/dev/client3/rdock/2013.1/src/exe/rbdock.cxx#4 $)

>  <Rbt.Library>
libRbt.so (2013.1, Build901 2013/11/27)

>  <Rbt.Parameter_File>
/export/apps/rDock/src/rDock_2013.1_src/data/scripts/dock_solv.prm

>  <Rbt.Receptor>
prm/pocket_docking_8.prm

>  <SCORE>
-11.1753

>  <SCORE.INTER>
-6.80025

>  <SCORE.INTER.CONST>
1

>  <SCORE.INTER.POLAR>
-1.30562

>  <SCORE.INTER.ROT>
10

>  <SCORE.INTER.SOLV>
8.13869

>  <SCORE.INTER.VDW>
-13.161

>  <SCORE.INTER.norm>
-0.170006

>  <SCORE.INTRA>
-4.37702

>  <SCORE.INTRA.DIHEDRAL>
-9.08484

>  <SCORE.INTRA.DIHEDRAL.0>
22.5778

>  <SCORE.INTRA.POLAR>
0

>  <SCORE.INTRA.POLAR.0>
0

>  <SCORE.INTRA.REPUL>
0

>  <SCORE.INTRA.REPUL.0>
0

>  <SCORE.INTRA.SOLV>
2.25861

>  <SCORE.INTRA.SOLV.lig_0>
-102.332

>  <SCORE.INTRA.VDW>
-0.963904

>  <SCORE.INTRA.VDW.0>
-5.08747

>  <SCORE.INTRA.norm>
-0.109425

>  <SCORE.RESTR>
0.00196815

>  <SCORE.RESTR.CAVITY>
0.00196815

>  <SCORE.RESTR.norm>
4.92039e-05

>  <SCORE.SYSTEM>
0

>  <SCORE.SYSTEM.CONST>
0

>  <SCORE.SYSTEM.DIHEDRAL>
0

>  <SCORE.SYSTEM.SOLV>
0

>  <SCORE.SYSTEM.norm>
0

>  <SCORE.heavy>
40

>  <SCORE.norm>
-0.279382

>  <RMSD>
11.319

$$$$
2g5q_lig
 OpenBabel11021811433D
libRbt.so/2013.1/901 2013/11/27
 40 42  0  0  0  0  0  0  0  0999 V2000
    4.8084   -8.2079   19.5284 C   0  0  2  0  0  0  0  0  0  0  0  0
    4.0235   -7.0813   19.8513 O   0  0  0  0  0  0  0  0  0  0  0  0
    4.5264   -8.6093   18.0505 C   0  0  1  0  0  0  0  0  0  0  0  0
    3.0674   -9.1261   17.8562 C   0  0  2  0  0  0  0  0  0  0  0  0
    2.8741  -10.3580   18.7781 C   0  0  2  0  0  0  0  0  0  0  0  0
    1.5455  -10.8789   18.6105 O   0  0  0  0  0  0  0  0  0  0  0  0
    3.1238   -9.9031   20.2730 C   0  0  2  0  0  0  0  0  0  0  0  0
    4.5049   -9.3601   20.4174 O   0  0  0  0  0  0  0  0  0  0  0  0
    2.9728  -11.0463   21.2709 C   0  0  0  0  0  0  0  0  0  0  0  0
    3.0460  -10.5684   22.6879 N   0  0  0  0  0  0  0  0  0  0  0  0
    4.3439   -4.5907   23.4250 C   0  0  2  0  0  0  0  0  0  0  0  0
    4.8113   -3.5794   24.3656 N   0  0  0  0  0  0  0  0  0  0  0  0
    5.5030   -5.6278   23.1137 C   0  0  0  0  0  0  0  0  0  0  0  0
    4.9987   -6.7293   22.1004 C   0  0  2  0  0  0  0  0  0  0  0  0
    6.0910   -7.7016   21.8256 N   0  0  0  0  0  0  0  0  0  0  0  0
    4.4989   -6.0345   20.7717 C   0  0  2  0  0  0  0  0  0  0  0  0
    3.3501   -5.0076   21.1221 C   0  0  2  0  0  0  0  0  0  0  0  0
    2.9036   -4.3751   19.9185 O   0  0  0  0  0  0  0  0  0  0  0  0
    3.8787   -3.9091   22.1215 C   0  0  1  0  0  0  0  0  0  0  0  0
    2.8153   -2.9719   22.4521 O   0  0  0  0  0  0  0  0  0  0  0  0
    2.2375   -2.0766   21.5340 C   0  0  2  0  0  0  0  0  0  0  0  0
    2.8272   -0.6559   21.8291 C   0  0  2  0  0  0  0  0  0  0  0  0
    4.2101   -0.6857   21.6766 O   0  0  0  0  0  0  0  0  0  0  0  0
    2.4300   -0.1633   23.2721 C   0  0  1  0  0  0  0  0  0  0  0  0
    2.9866    1.1991   23.5626 N   0  0  0  0  0  0  0  0  0  0  0  0
    0.8533   -0.1588   23.3785 C   0  0  2  0  0  0  0  0  0  0  0  0
    0.4307    0.2880   24.6684 O   0  0  0  0  0  0  0  0  0  0  0  0
    0.3285   -1.6030   23.0757 C   0  0  2  0  0  0  0  0  0  0  0  0
    0.7751   -2.0646   21.7165 O   0  0  0  0  0  0  0  0  0  0  0  0
   -1.1702   -1.6724   23.1273 C   0  0  0  0  0  0  0  0  0  0  0  0
   -1.7682   -0.6170   22.3569 O   0  0  0  0  0  0  0  0  0  0  0  0
    4.7923   -7.4438   17.1966 O   0  0  0  0  0  0  0  0  0  0  0  0
    2.8779   -9.4784   16.5381 O   0  0  0  0  0  0  0  0  0  0  0  0
    7.1042   -2.3499   24.0119 N   0  0  0  0  0  0  0  0  0  0  0  0
    4.2400   -3.3104   25.6015 C   0  0  0  0  0  0  0  0  0  0  0  0
    3.2586   -3.8975   26.0434 O   0  0  0  0  0  0  0  0  0  0  0  0
    4.9696   -2.1736   26.3539 C   0  0  1  0  0  0  0  0  0  0  0  0
    6.4827   -2.4651   26.4130 C   0  0  0  0  0  0  0  0  0  0  0  0
    7.3364   -1.7819   25.3384 C   0  0  0  0  0  0  0  0  0  0  0  0
    4.7111   -0.9199   25.6826 O   0  0  0  0  0  0  0  0  0  0  0  0
  1  2  1  1  0  0  0
  1  3  1  0  0  0  0
  1  8  1  0  0  0  0
  3  4  1  0  0  0  0
  3 32  1  6  0  0  0
  4  5  1  0  0  0  0
  4 33  1  6  0  0  0
  5  6  1  1  0  0  0
  5  7  1  0  0  0  0
  7  8  1  0  0  0  0
  7  9  1  1  0  0  0
  9 10  1  0  0  0  0
 11 12  1  1  0  0  0
 11 13  1  0  0  0  0
 11 19  1  0  0  0  0
 12 35  1  0  0  0  0
 13 14  1  0  0  0  0
 14 15  1  6  0  0  0
 14 16  1  0  0  0  0
 16  2  1  6  0  0  0
 16 17  1  0  0  0  0
 17 18  1  6  0  0  0
 17 19  1  0  0  0  0
 19 20  1  1  0  0  0
 21 20  1  1  0  0  0
 21 22  1  0  0  0  0
 21 29  1  0  0  0  0
 22 23  1  1  0  0  0
 22 24  1  0  0  0  0
 24 25  1  6  0  0  0
 24 26  1  0  0  0  0
 26 27  1  1  0  0  0
 26 28  1  0  0  0  0
 28 29  1  0  0  0  0
 28 30  1  6  0  0  0
 30 31  1  0  0  0  0
 34 39  1  0  0  0  0
 35 36  2  0  0  0  0
 37 35  1  6  0  0  0
 37 38  1  0  0  0  0
 37 40  1  0  0  0  0
 38 39  1  0  0  0  0
M  END
>  <CHROM.1>
-145.83036415,-173.00601480,-121.70262753,-51.37641980,173.58077862,-103.43792781
48.92382207,-51.78258729,96.79339269,-70.38239193,3.40689497,-4.68459136
22.01864481,-1.48122866,-0.57956554,0.57852708

>  <Name>
2g5q_lig

>  <RI>
224

>  <Rbt.Current_Directory>
/home/itssahil/PROJECTS/Mol_Feturizer/New_Systems/rnas/2g5q

>  <Rbt.Executable>
rbdock ($Id: //depot/dev/client3/rdock/2013.1/src/exe/rbdock.cxx#4 $)

>  <Rbt.Library>
libRbt.so (2013.1, Build901 2013/11/27)

>  <Rbt.Parameter_File>
/export/apps/rDock/src/rDock_2013.1_src/data/scripts/dock_solv.prm

>  <Rbt.Receptor>
prm/pocket_docking_8.prm

>  <SCORE>
-12.7834

>  <SCORE.INTER>
-15.3859

>  <SCORE.INTER.CONST>
1

>  <SCORE.INTER.POLAR>
-1.20442

>  <SCORE.INTER.ROT>
10

>  <SCORE.INTER.SOLV>
17.7475

>  <SCORE.INTER.VDW>
-22.425

>  <SCORE.INTER.norm>
-0.384647

>  <SCORE.INTRA>
2.60253

>  <SCORE.INTRA.DIHEDRAL>
-5.15522

>  <SCORE.INTRA.DIHEDRAL.0>
22.5778

>  <SCORE.INTRA.POLAR>
0

>  <SCORE.INTRA.POLAR.0>
0

>  <SCORE.INTRA.REPUL>
0

>  <SCORE.INTRA.REPUL.0>
0

>  <SCORE.INTRA.SOLV>
7.52342

>  <SCORE.INTRA.SOLV.lig_0>
-102.332

>  <SCORE.INTRA.VDW>
1.41843

>  <SCORE.INTRA.VDW.0>
-5.08747

>  <SCORE.INTRA.norm>
0.0650632

>  <SCORE.RESTR>
0

>  <SCORE.RESTR.CAVITY>
0

>  <SCORE.RESTR.norm>
0

>  <SCORE.SYSTEM>
0

>  <SCORE.SYSTEM.CONST>
0

>  <SCORE.SYSTEM.DIHEDRAL>
0

>  <SCORE.SYSTEM.SOLV>
0

>  <SCORE.SYSTEM.norm>
0

>  <SCORE.heavy>
40

>  <SCORE.norm>
-0.319584

>  <RMSD>
11.367

$$$$
2g5q_lig
 OpenBabel11021811433D
libRbt.so/2013.1/901 2013/11/27
 40 42  0  0  0  0  0  0  0  0999 V2000
    9.6145  -13.1814    9.2105 C   0  0  2  0  0  0  0  0  0  0  0  0
    9.7197  -12.5392   10.4619 O   0  0  0  0  0  0  0  0  0  0  0  0
   11.0353  -13.2954    8.5837 C   0  0  1  0  0  0  0  0  0  0  0  0
   11.6232  -11.8978    8.2168 C   0  0  2  0  0  0  0  0  0  0  0  0
   10.6579  -11.2283    7.2045 C   0  0  2  0  0  0  0  0  0  0  0  0
   11.1778   -9.9443    6.8230 O   0  0  0  0  0  0  0  0  0  0  0  0
    9.2388  -11.0880    7.8905 C   0  0  2  0  0  0  0  0  0  0  0  0
    8.7266  -12.4320    8.2831 O   0  0  0  0  0  0  0  0  0  0  0  0
    8.2005  -10.4503    6.9735 C   0  0  0  0  0  0  0  0  0  0  0  0
    7.0337   -9.9070    7.7384 N   0  0  0  0  0  0  0  0  0  0  0  0
    5.7405  -10.9437   11.2971 C   0  0  2  0  0  0  0  0  0  0  0  0
    4.5445  -10.5244   12.0180 N   0  0  0  0  0  0  0  0  0  0  0  0
    6.0024  -12.4918   11.5224 C   0  0  0  0  0  0  0  0  0  0  0  0
    7.2933  -12.9518   10.7372 C   0  0  2  0  0  0  0  0  0  0  0  0
    7.5214  -14.4070   10.9476 N   0  0  0  0  0  0  0  0  0  0  0  0
    8.5345  -12.0993   11.2175 C   0  0  2  0  0  0  0  0  0  0  0  0
    8.2349  -10.5658   10.9816 C   0  0  2  0  0  0  0  0  0  0  0  0
    9.3574   -9.7956   11.4230 O   0  0  0  0  0  0  0  0  0  0  0  0
    6.9530  -10.1245   11.7858 C   0  0  1  0  0  0  0  0  0  0  0  0
    6.6723   -8.7149   11.5570 O   0  0  0  0  0  0  0  0  0  0  0  0
    5.6259   -8.0070   12.1752 C   0  0  2  0  0  0  0  0  0  0  0  0
    5.9707   -6.4821   12.0809 C   0  0  2  0  0  0  0  0  0  0  0  0
    6.0857   -6.1133   10.7440 O   0  0  0  0  0  0  0  0  0  0  0  0
    7.2906   -6.1470   12.8734 C   0  0  1  0  0  0  0  0  0  0  0  0
    7.6270   -4.6873   12.7928 N   0  0  0  0  0  0  0  0  0  0  0  0
    7.0945   -6.5948   14.3762 C   0  0  2  0  0  0  0  0  0  0  0  0
    8.2613   -6.3083   15.1499 O   0  0  0  0  0  0  0  0  0  0  0  0
    6.7554   -8.1235   14.4014 C   0  0  2  0  0  0  0  0  0  0  0  0
    5.5258   -8.4161   13.5875 O   0  0  0  0  0  0  0  0  0  0  0  0
    6.5232   -8.6188   15.7994 C   0  0  0  0  0  0  0  0  0  0  0  0
    7.6631   -8.3680   16.6377 O   0  0  0  0  0  0  0  0  0  0  0  0
   11.9045  -14.0011    9.5349 O   0  0  0  0  0  0  0  0  0  0  0  0
   12.8711  -12.0586    7.6560 O   0  0  0  0  0  0  0  0  0  0  0  0
    1.5163  -12.0768   10.8477 N   0  0  0  0  0  0  0  0  0  0  0  0
    3.4139   -9.9668   11.4377 C   0  0  0  0  0  0  0  0  0  0  0  0
    3.2962   -9.7544   10.2359 O   0  0  0  0  0  0  0  0  0  0  0  0
    2.3230   -9.6261   12.4791 C   0  0  1  0  0  0  0  0  0  0  0  0
    1.7027  -10.9226   13.0381 C   0  0  0  0  0  0  0  0  0  0  0  0
    1.9767  -12.1960   12.2296 C   0  0  0  0  0  0  0  0  0  0  0  0
    2.9099   -8.8363   13.5380 O   0  0  0  0  0  0  0  0  0  0  0  0
  1  2  1  1  0  0  0
  1  3  1  0  0  0  0
  1  8  1  0  0  0  0
  3  4  1  0  0  0  0
  3 32  1  1  0  0  0
  4  5  1  0  0  0  0
  4 33  1  6  0  0  0
  5  6  1  1  0  0  0
  5  7  1  0  0  0  0
  7  8  1  0  0  0  0
  7  9  1  6  0  0  0
  9 10  1  0  0  0  0
 11 12  1  1  0  0  0
 11 13  1  0  0  0  0
 11 19  1  0  0  0  0
 12 35  1  0  0  0  0
 13 14  1  0  0  0  0
 14 15  1  1  0  0  0
 14 16  1  0  0  0  0
 16  2  1  6  0  0  0
 16 17  1  0  0  0  0
 17 18  1  1  0  0  0
 17 19  1  0  0  0  0
 19 20  1  6  0  0  0
 21 20  1  1  0  0  0
 21 22  1  0  0  0  0
 21 29  1  0  0  0  0
 22 23  1  6  0  0  0
 22 24  1  0  0  0  0
 24 25  1  1  0  0  0
 24 26  1  0  0  0  0
 26 27  1  1  0  0  0
 26 28  1  0  0  0  0
 28 29  1  0  0  0  0
 28 30  1  1  0  0  0
 30 31  1  0  0  0  0
 34 39  1  0  0  0  0
 35 36  2  0  0  0  0
 37 35  1  6  0  0  0
 37 38  1  0  0  0  0
 37 40  1  0  0  0  0
 38 39  1  0  0  0  0
M  END
>  <CHROM.1>
170.67077658,-160.82519910,-120.29304727,22.84941960,63.21397501,159.99447396
-57.32243336,-70.31591863,-15.87829476,-57.57402174,7.14152625,-10.13172950
11.16856125,0.78368927,-0.28335777,-2.48779888

>  <Name>
2g5q_lig

>  <RI>
0

>  <Rbt.Current_Directory>
/home/itssahil/PROJECTS/Mol_Feturizer/New_Systems/rnas/2g5q

>  <Rbt.Executable>
rbdock ($Id: //depot/dev/client3/rdock/2013.1/src/exe/rbdock.cxx#4 $)

>  <Rbt.Library>
libRbt.so (2013.1, Build901 2013/11/27)

>  <Rbt.Parameter_File>
/export/apps/rDock/src/rDock_2013.1_src/data/scripts/dock_solv.prm

>  <Rbt.Receptor>
prm/blind_docking_20.prm

>  <SCORE>
20.1324

>  <SCORE.INTER>
1.04293

>  <SCORE.INTER.CONST>
1

>  <SCORE.INTER.POLAR>
-0.811306

>  <SCORE.INTER.ROT>
10

>  <SCORE.INTER.SOLV>
24.7333

>  <SCORE.INTER.VDW>
-15.1114

>  <SCORE.INTER.norm>
0.0260732

>  <SCORE.INTRA>
1.76013

>  <SCORE.INTRA.DIHEDRAL>
-7.69234

>  <SCORE.INTRA.DIHEDRAL.0>
22.5778

>  <SCORE.INTRA.POLAR>
0

>  <SCORE.INTRA.POLAR.0>
0

>  <SCORE.INTRA.REPUL>
0.00246647

>  <SCORE.INTRA.REPUL.0>
0

>  <SCORE.INTRA.SOLV>
7.35024

>  <SCORE.INTRA.SOLV.lig_0>
-102.332

>  <SCORE.INTRA.VDW>
1.91885

>  <SCORE.INTRA.VDW.0>
-5.08747

>  <SCORE.INTRA.norm>
0.0440033

>  <SCORE.RESTR>
17.3293

>  <SCORE.RESTR.CAVITY>
17.3293

>  <SCORE.RESTR.norm>
0.433233

>  <SCORE.SYSTEM>
0

>  <SCORE.SYSTEM.CONST>
0

>  <SCORE.SYSTEM.DIHEDRAL>
0

>  <SCORE.SYSTEM.SOLV>
0

>  <SCORE.SYSTEM.norm>
0

>  <SCORE.heavy>
40

>  <SCORE.norm>
0.503309

>  <RMSD>
11.439

$$$$
2g5q_lig
 OpenBabel11021811433D
libRbt.so/2013.1/901 2013/11/27
 40 42  0  0  0  0  0  0  0  0999 V2000
    9.6341  -13.1775    9.2304 C   0  0  2  0  0  0  0  0  0  0  0  0
    9.7418  -12.5298   10.4788 O   0  0  0  0  0  0  0  0  0  0  0  0
   11.0531  -13.2899    8.5990 C   0  0  1  0  0  0  0  0  0  0  0  0
   11.6355  -11.8921    8.2242 C   0  0  2  0  0  0  0  0  0  0  0  0
   10.6646  -11.2296    7.2126 C   0  0  2  0  0  0  0  0  0  0  0  0
   11.1793   -9.9457    6.8240 O   0  0  0  0  0  0  0  0  0  0  0  0
    9.2475  -11.0907    7.9031 C   0  0  2  0  0  0  0  0  0  0  0  0
    8.7407  -12.4346    8.3030 O   0  0  0  0  0  0  0  0  0  0  0  0
    8.2041  -10.4599    6.9872 C   0  0  0  0  0  0  0  0  0  0  0  0
    6.9688  -10.0613    7.7336 N   0  0  0  0  0  0  0  0  0  0  0  0
    5.7621  -10.9359   11.3144 C   0  0  2  0  0  0  0  0  0  0  0  0
    4.5676  -10.5134   12.0358 N   0  0  0  0  0  0  0  0  0  0  0  0
    6.0279  -12.4816   11.5508 C   0  0  0  0  0  0  0  0  0  0  0  0
    7.3171  -12.9451   10.7650 C   0  0  2  0  0  0  0  0  0  0  0  0
    7.5488  -14.3982   10.9859 N   0  0  0  0  0  0  0  0  0  0  0  0
    8.5581  -12.0865   11.2347 C   0  0  2  0  0  0  0  0  0  0  0  0
    8.2548  -10.5555   10.9880 C   0  0  2  0  0  0  0  0  0  0  0  0
    9.3771   -9.7796   11.4198 O   0  0  0  0  0  0  0  0  0  0  0  0
    6.9745  -10.1105   11.7928 C   0  0  1  0  0  0  0  0  0  0  0  0
    6.6902   -8.7032   11.5540 O   0  0  0  0  0  0  0  0  0  0  0  0
    5.6375   -7.9956   12.1616 C   0  0  2  0  0  0  0  0  0  0  0  0
    5.9759   -6.4698   12.0578 C   0  0  2  0  0  0  0  0  0  0  0  0
    6.0963   -6.1104   10.7188 O   0  0  0  0  0  0  0  0  0  0  0  0
    7.2903   -6.1230   12.8545 C   0  0  1  0  0  0  0  0  0  0  0  0
    7.6205   -4.6624   12.7649 N   0  0  0  0  0  0  0  0  0  0  0  0
    7.0883   -6.5605   14.3596 C   0  0  2  0  0  0  0  0  0  0  0  0
    8.2498   -6.2631   15.1372 O   0  0  0  0  0  0  0  0  0  0  0  0
    6.7559   -8.0905   14.3944 C   0  0  2  0  0  0  0  0  0  0  0  0
    5.5319   -8.3947   13.5764 O   0  0  0  0  0  0  0  0  0  0  0  0
    6.5187   -8.5765   15.7948 C   0  0  0  0  0  0  0  0  0  0  0  0
    7.6985   -8.4350   16.6030 O   0  0  0  0  0  0  0  0  0  0  0  0
   11.9277  -13.9890    9.5500 O   0  0  0  0  0  0  0  0  0  0  0  0
   12.8818  -12.0515    7.6597 O   0  0  0  0  0  0  0  0  0  0  0  0
    2.6080  -12.6405   11.5119 N   0  0  0  0  0  0  0  0  0  0  0  0
    3.4524   -9.9204   11.4607 C   0  0  0  0  0  0  0  0  0  0  0  0
    3.3492   -9.6750   10.2639 O   0  0  0  0  0  0  0  0  0  0  0  0
    2.3587   -9.5867   12.5014 C   0  0  1  0  0  0  0  0  0  0  0  0
    1.7102  -10.8855   13.0215 C   0  0  0  0  0  0  0  0  0  0  0  0
    1.4015  -11.9485   11.9607 C   0  0  0  0  0  0  0  0  0  0  0  0
    2.9504   -8.8352   13.5852 O   0  0  0  0  0  0  0  0  0  0  0  0
  1  2  1  1  0  0  0
  1  3  1  0  0  0  0
  1  8  1  0  0  0  0
  3  4  1  0  0  0  0
  3 32  1  1  0  0  0
  4  5  1  0  0  0  0
  4 33  1  6  0  0  0
  5  6  1  1  0  0  0
  5  7  1  0  0  0  0
  7  8  1  0  0  0  0
  7  9  1  6  0  0  0
  9 10  1  0  0  0  0
 11 12  1  1  0  0  0
 11 13  1  0  0  0  0
 11 19  1  0  0  0  0
 12 35  1  0  0  0  0
 13 14  1  0  0  0  0
 14 15  1  1  0  0  0
 14 16  1  0  0  0  0
 16  2  1  6  0  0  0
 16 17  1  0  0  0  0
 17 18  1  1  0  0  0
 17 19  1  0  0  0  0
 19 20  1  6  0  0  0
 21 20  1  1  0  0  0
 21 22  1  0  0  0  0
 21 29  1  0  0  0  0
 22 23  1  6  0  0  0
 22 24  1  0  0  0  0
 24 25  1  1  0  0  0
 24 26  1  0  0  0  0
 26 27  1  1  0  0  0
 26 28  1  0  0  0  0
 28 29  1  0  0  0  0
 28 30  1  1  0  0  0
 30 31  1  0  0  0  0
 34 39  1  0  0  0  0
 35 36  2  0  0  0  0
 37 35  1  6  0  0  0
 37 38  1  0  0  0  0
 37 40  1  0  0  0  0
 38 39  1  0  0  0  0
M  END
>  <CHROM.1>
170.47056083,-167.50054094,-122.63580271,23.08632050,62.65602934,160.11502118
-63.02887344,-70.31219894,-42.64329294,75.07656599,7.16725717,-10.13045990
11.18293952,0.78314204,-0.30780488,-2.51404201

>  <Name>
2g5q_lig

>  <RI>
0

>  <Rbt.Current_Directory>
/home/itssahil/PROJECTS/Mol_Feturizer/New_Systems/rnas/2g5q

>  <Rbt.Executable>
rbdock ($Id: //depot/dev/client3/rdock/2013.1/src/exe/rbdock.cxx#4 $)

>  <Rbt.Library>
libRbt.so (2013.1, Build901 2013/11/27)

>  <Rbt.Parameter_File>
/export/apps/rDock/src/rDock_2013.1_src/data/scripts/dock_solv.prm

>  <Rbt.Receptor>
prm/blind_docking_20.prm

>  <SCORE>
17.1226

>  <SCORE.INTER>
0.163207

>  <SCORE.INTER.CONST>
1

>  <SCORE.INTER.POLAR>
-0.765099

>  <SCORE.INTER.ROT>
10

>  <SCORE.INTER.SOLV>
21.097

>  <SCORE.INTER.VDW>
-14.6399

>  <SCORE.INTER.norm>
0.00408018

>  <SCORE.INTRA>
-0.31931

>  <SCORE.INTRA.DIHEDRAL>
-10.9429

>  <SCORE.INTRA.DIHEDRAL.0>
22.5778

>  <SCORE.INTRA.POLAR>
0

>  <SCORE.INTRA.POLAR.0>
0

>  <SCORE.INTRA.REPUL>
0

>  <SCORE.INTRA.REPUL.0>
0

>  <SCORE.INTRA.SOLV>
8.80247

>  <SCORE.INTRA.SOLV.lig_0>
-102.332

>  <SCORE.INTRA.VDW>
0.750892

>  <SCORE.INTRA.VDW.0>
-5.08747

>  <SCORE.INTRA.norm>
-0.00798274

>  <SCORE.RESTR>
17.2787

>  <SCORE.RESTR.CAVITY>
17.2787

>  <SCORE.RESTR.norm>
0.431968

>  <SCORE.SYSTEM>
0

>  <SCORE.SYSTEM.CONST>
0

>  <SCORE.SYSTEM.DIHEDRAL>
0

>  <SCORE.SYSTEM.SOLV>
0

>  <SCORE.SYSTEM.norm>
0

>  <SCORE.heavy>
40

>  <SCORE.norm>
0.428065

>  <RMSD>
11.452

$$$$
2g5q_lig
 OpenBabel11021811433D
libRbt.so/2013.1/901 2013/11/27
 40 42  0  0  0  0  0  0  0  0999 V2000
   10.6262  -10.0968    8.8931 C   0  0  2  0  0  0  0  0  0  0  0  0
    9.2713   -9.8424    8.5951 O   0  0  0  0  0  0  0  0  0  0  0  0
   11.2523  -10.9141    7.7248 C   0  0  1  0  0  0  0  0  0  0  0  0
   10.6376  -12.3441    7.6203 C   0  0  2  0  0  0  0  0  0  0  0  0
   10.8978  -13.0715    8.9650 C   0  0  2  0  0  0  0  0  0  0  0  0
   10.3652  -14.4043    8.9003 O   0  0  0  0  0  0  0  0  0  0  0  0
   10.2102  -12.2380   10.1211 C   0  0  2  0  0  0  0  0  0  0  0  0
   10.7746  -10.8586   10.1610 O   0  0  0  0  0  0  0  0  0  0  0  0
   10.4159  -12.8588   11.4987 C   0  0  0  0  0  0  0  0  0  0  0  0
    9.7788  -12.0453   12.5823 N   0  0  0  0  0  0  0  0  0  0  0  0
    5.3053   -9.7653   10.4233 C   0  0  2  0  0  0  0  0  0  0  0  0
    4.2278   -9.9327   11.3911 N   0  0  0  0  0  0  0  0  0  0  0  0
    5.9583  -11.1697   10.0809 C   0  0  0  0  0  0  0  0  0  0  0  0
    7.1216  -10.9937    9.0271 C   0  0  2  0  0  0  0  0  0  0  0  0
    7.7179  -12.3187    8.7063 N   0  0  0  0  0  0  0  0  0  0  0  0
    8.2066   -9.9979    9.6008 C   0  0  2  0  0  0  0  0  0  0  0  0
    7.5190   -8.6146    9.9333 C   0  0  2  0  0  0  0  0  0  0  0  0
    8.5020   -7.7168   10.4584 O   0  0  0  0  0  0  0  0  0  0  0  0
    6.3725   -8.8106   10.9973 C   0  0  1  0  0  0  0  0  0  0  0  0
    5.7328   -7.5370   11.2925 O   0  0  0  0  0  0  0  0  0  0  0  0
    5.1541   -7.2121   12.5325 C   0  0  2  0  0  0  0  0  0  0  0  0
    5.3405   -5.6721   12.7485 C   0  0  2  0  0  0  0  0  0  0  0  0
    4.7102   -4.9787   11.7196 O   0  0  0  0  0  0  0  0  0  0  0  0
    6.8667   -5.2899   12.8332 C   0  0  1  0  0  0  0  0  0  0  0  0
    7.0556   -3.8168   13.0446 N   0  0  0  0  0  0  0  0  0  0  0  0
    7.5199   -6.1136   14.0130 C   0  0  2  0  0  0  0  0  0  0  0  0
    8.9085   -5.8026   14.1443 O   0  0  0  0  0  0  0  0  0  0  0  0
    7.3015   -7.6396   13.7371 C   0  0  2  0  0  0  0  0  0  0  0  0
    5.8387   -7.9590   13.6028 O   0  0  0  0  0  0  0  0  0  0  0  0
    7.8701   -8.4905   14.8354 C   0  0  0  0  0  0  0  0  0  0  0  0
    7.5031   -7.9855   16.1297 O   0  0  0  0  0  0  0  0  0  0  0  0
   11.0562  -10.1622    6.4781 O   0  0  0  0  0  0  0  0  0  0  0  0
   11.2352  -13.0249    6.5826 O   0  0  0  0  0  0  0  0  0  0  0  0
    2.6061  -13.5066   11.3596 N   0  0  0  0  0  0  0  0  0  0  0  0
    3.0519  -10.6351   11.1669 C   0  0  0  0  0  0  0  0  0  0  0  0
    2.7810  -11.1954   10.1105 O   0  0  0  0  0  0  0  0  0  0  0  0
    2.1113  -10.6181   12.3939 C   0  0  1  0  0  0  0  0  0  0  0  0
    2.3087  -11.8996   13.2288 C   0  0  0  0  0  0  0  0  0  0  0  0
    1.8445  -13.2036   12.5697 C   0  0  0  0  0  0  0  0  0  0  0  0
    2.3859   -9.4396   13.1844 O   0  0  0  0  0  0  0  0  0  0  0  0
  1  2  1  6  0  0  0
  1  3  1  0  0  0  0
  1  8  1  0  0  0  0
  3  4  1  0  0  0  0
  3 32  1  6  0  0  0
  4  5  1  0  0  0  0
  4 33  1  6  0  0  0
  5  6  1  6  0  0  0
  5  7  1  0  0  0  0
  7  8  1  0  0  0  0
  7  9  1  1  0  0  0
  9 10  1  0  0  0  0
 11 12  1  1  0  0  0
 11 13  1  0  0  0  0
 11 19  1  0  0  0  0
 12 35  1  0  0  0  0
 13 14  1  0  0  0  0
 14 15  1  1  0  0  0
 14 16  1  0  0  0  0
 16  2  1  6  0  0  0
 16 17  1  0  0  0  0
 17 18  1  1  0  0  0
 17 19  1  0  0  0  0
 19 20  1  6  0  0  0
 21 20  1  6  0  0  0
 21 22  1  0  0  0  0
 21 29  1  0  0  0  0
 22 23  1  6  0  0  0
 22 24  1  0  0  0  0
 24 25  1  1  0  0  0
 24 26  1  0  0  0  0
 26 27  1  6  0  0  0
 26 28  1  0  0  0  0
 28 29  1  0  0  0  0
 28 30  1  1  0  0  0
 30 31  1  0  0  0  0
 34 39  1  0  0  0  0
 35 36  2  0  0  0  0
 37 35  1  6  0  0  0
 37 38  1  0  0  0  0
 37 40  1  0  0  0  0
 38 39  1  0  0  0  0
M  END
>  <CHROM.1>
135.93038207,179.03352593,-64.18407261,-124.47931573,90.76652201,147.77718287
46.09568750,-96.20464575,-68.09481893,63.50935142,7.13077507,-9.74254532
11.08510467,-0.77943358,0.33566791,0.51634805

>  <Name>
2g5q_lig

>  <RI>
0

>  <Rbt.Current_Directory>
/home/itssahil/PROJECTS/Mol_Feturizer/New_Systems/rnas/2g5q

>  <Rbt.Executable>
rbdock ($Id: //depot/dev/client3/rdock/2013.1/src/exe/rbdock.cxx#4 $)

>  <Rbt.Library>
libRbt.so (2013.1, Build901 2013/11/27)

>  <Rbt.Parameter_File>
/export/apps/rDock/src/rDock_2013.1_src/data/scripts/dock_solv.prm

>  <Rbt.Receptor>
prm/blind_docking_20.prm

>  <SCORE>
10.8789

>  <SCORE.INTER>
-5.3425

>  <SCORE.INTER.CONST>
1

>  <SCORE.INTER.POLAR>
-1.36932

>  <SCORE.INTER.ROT>
10

>  <SCORE.INTER.SOLV>
24.6832

>  <SCORE.INTER.VDW>
-17.4917

>  <SCORE.INTER.norm>
-0.133563

>  <SCORE.INTRA>
4.75354

>  <SCORE.INTRA.DIHEDRAL>
1.12853

>  <SCORE.INTRA.DIHEDRAL.0>
22.5778

>  <SCORE.INTRA.POLAR>
0

>  <SCORE.INTRA.POLAR.0>
0

>  <SCORE.INTRA.REPUL>
0.0271342

>  <SCORE.INTRA.REPUL.0>
0

>  <SCORE.INTRA.SOLV>
8.33609

>  <SCORE.INTRA.SOLV.lig_0>
-102.332

>  <SCORE.INTRA.VDW>
-0.114437

>  <SCORE.INTRA.VDW.0>
-5.08747

>  <SCORE.INTRA.norm>
0.118839

>  <SCORE.RESTR>
11.4679

>  <SCORE.RESTR.CAVITY>
11.4679

>  <SCORE.RESTR.norm>
0.286696

>  <SCORE.SYSTEM>
0

>  <SCORE.SYSTEM.CONST>
0

>  <SCORE.SYSTEM.DIHEDRAL>
0

>  <SCORE.SYSTEM.SOLV>
0

>  <SCORE.SYSTEM.norm>
0

>  <SCORE.heavy>
40

>  <SCORE.norm>
0.271973

>  <RMSD>
11.460

$$$$
2g5q_lig
 OpenBabel11021811433D
libRbt.so/2013.1/901 2013/11/27
 40 42  0  0  0  0  0  0  0  0999 V2000
   10.9901  -10.3777    8.6523 C   0  0  2  0  0  0  0  0  0  0  0  0
    9.7139  -10.0315    8.1614 O   0  0  0  0  0  0  0  0  0  0  0  0
   11.4424  -11.7079    7.9811 C   0  0  1  0  0  0  0  0  0  0  0  0
   10.5544  -12.9128    8.4209 C   0  0  2  0  0  0  0  0  0  0  0  0
   10.6613  -13.0428    9.9625 C   0  0  2  0  0  0  0  0  0  0  0  0
    9.8730  -14.1594   10.4056 O   0  0  0  0  0  0  0  0  0  0  0  0
   10.1520  -11.6921   10.6108 C   0  0  2  0  0  0  0  0  0  0  0  0
   10.9807  -10.5503   10.1289 O   0  0  0  0  0  0  0  0  0  0  0  0
   10.2267  -11.7037   12.1339 C   0  0  0  0  0  0  0  0  0  0  0  0
    9.3707  -10.6389   12.7464 N   0  0  0  0  0  0  0  0  0  0  0  0
    5.6314   -9.4264    9.5912 C   0  0  2  0  0  0  0  0  0  0  0  0
    4.4046   -9.5693   10.3658 N   0  0  0  0  0  0  0  0  0  0  0  0
    5.9930  -10.7965    8.8785 C   0  0  0  0  0  0  0  0  0  0  0  0
    7.3178  -10.6442    8.0322 C   0  0  2  0  0  0  0  0  0  0  0  0
    7.6396  -11.9322    7.3603 N   0  0  0  0  0  0  0  0  0  0  0  0
    8.4961  -10.1776    8.9766 C   0  0  2  0  0  0  0  0  0  0  0  0
    8.0981   -8.8149    9.6705 C   0  0  2  0  0  0  0  0  0  0  0  0
    9.1637   -8.3976   10.5298 O   0  0  0  0  0  0  0  0  0  0  0  0
    6.7832   -8.9930   10.5215 C   0  0  1  0  0  0  0  0  0  0  0  0
    6.4122   -7.7335   11.1495 O   0  0  0  0  0  0  0  0  0  0  0  0
    5.5652   -7.6273   12.2673 C   0  0  2  0  0  0  0  0  0  0  0  0
    5.3768   -6.1022   12.5702 C   0  0  2  0  0  0  0  0  0  0  0  0
    4.8075   -5.4757   11.4658 O   0  0  0  0  0  0  0  0  0  0  0  0
    6.7459   -5.4256   12.9581 C   0  0  1  0  0  0  0  0  0  0  0  0
    6.5751   -3.9651   13.2547 N   0  0  0  0  0  0  0  0  0  0  0  0
    7.3381   -6.1862   14.2104 C   0  0  2  0  0  0  0  0  0  0  0  0
    8.5819   -5.6106   14.6152 O   0  0  0  0  0  0  0  0  0  0  0  0
    7.5035   -7.6995   13.8430 C   0  0  2  0  0  0  0  0  0  0  0  0
    6.1908   -8.2981   13.4208 O   0  0  0  0  0  0  0  0  0  0  0  0
    8.0348   -8.4976   14.9982 C   0  0  0  0  0  0  0  0  0  0  0  0
    7.4612   -8.0613   16.2414 O   0  0  0  0  0  0  0  0  0  0  0  0
   11.4030  -11.5267    6.5238 O   0  0  0  0  0  0  0  0  0  0  0  0
   11.0058  -14.0617    7.8097 O   0  0  0  0  0  0  0  0  0  0  0  0
    2.0030  -14.2546   12.0197 N   0  0  0  0  0  0  0  0  0  0  0  0
    4.1487  -10.5804   11.2814 C   0  0  0  0  0  0  0  0  0  0  0  0
    4.9356  -11.4846   11.5391 O   0  0  0  0  0  0  0  0  0  0  0  0
    2.7510  -10.4499   11.9294 C   0  0  1  0  0  0  0  0  0  0  0  0
    2.2773  -11.8239   12.4452 C   0  0  0  0  0  0  0  0  0  0  0  0
    2.2365  -12.9494   11.4050 C   0  0  0  0  0  0  0  0  0  0  0  0
    2.8168   -9.4887   13.0069 O   0  0  0  0  0  0  0  0  0  0  0  0
  1  2  1  6  0  0  0
  1  3  1  0  0  0  0
  1  8  1  0  0  0  0
  3  4  1  0  0  0  0
  3 32  1  6  0  0  0
  4  5  1  0  0  0  0
  4 33  1  6  0  0  0
  5  6  1  1  0  0  0
  5  7  1  0  0  0  0
  7  8  1  0  0  0  0
  7  9  1  1  0  0  0
  9 10  1  0  0  0  0
 11 12  1  1  0  0  0
 11 13  1  0  0  0  0
 11 19  1  0  0  0  0
 12 35  1  0  0  0  0
 13 14  1  0  0  0  0
 14 15  1  1  0  0  0
 14 16  1  0  0  0  0
 16  2  1  6  0  0  0
 16 17  1  0  0  0  0
 17 18  1  1  0  0  0
 17 19  1  0  0  0  0
 19 20  1  6  0  0  0
 21 20  1  6  0  0  0
 21 22  1  0  0  0  0
 21 29  1  0  0  0  0
 22 23  1  6  0  0  0
 22 24  1  0  0  0  0
 24 25  1  1  0  0  0
 24 26  1  0  0  0  0
 26 27  1  6  0  0  0
 26 28  1  0  0  0  0
 28 29  1  0  0  0  0
 28 30  1  1  0  0  0
 30 31  1  0  0  0  0
 34 39  1  0  0  0  0
 35 36  2  0  0  0  0
 37 35  1  1  0  0  0
 37 38  1  0  0  0  0
 37 40  1  0  0  0  0
 38 39  1  0  0  0  0
M  END
>  <CHROM.1>
106.12896134,-162.11952283,50.20245935,-143.06306397,80.85404286,-177.28308760
38.94779699,156.38218136,-56.12146256,170.12749868,7.31714903,-9.81972905
11.06764729,-0.88511836,0.27462047,0.57869936

>  <Name>
2g5q_lig

>  <RI>
0

>  <Rbt.Current_Directory>
/home/itssahil/PROJECTS/Mol_Feturizer/New_Systems/rnas/2g5q

>  <Rbt.Executable>
rbdock ($Id: //depot/dev/client3/rdock/2013.1/src/exe/rbdock.cxx#4 $)

>  <Rbt.Library>
libRbt.so (2013.1, Build901 2013/11/27)

>  <Rbt.Parameter_File>
/export/apps/rDock/src/rDock_2013.1_src/data/scripts/dock_solv.prm

>  <Rbt.Receptor>
prm/blind_docking_20.prm

>  <SCORE>
45.1207

>  <SCORE.INTER>
31.0591

>  <SCORE.INTER.CONST>
1

>  <SCORE.INTER.POLAR>
-0.972321

>  <SCORE.INTER.ROT>
10

>  <SCORE.INTER.SOLV>
26.8483

>  <SCORE.INTER.VDW>
4.731

>  <SCORE.INTER.norm>
0.776476

>  <SCORE.INTRA>
1.46614

>  <SCORE.INTRA.DIHEDRAL>
-5.08421

>  <SCORE.INTRA.DIHEDRAL.0>
22.5778

>  <SCORE.INTRA.POLAR>
0

>  <SCORE.INTRA.POLAR.0>
0

>  <SCORE.INTRA.REPUL>
0

>  <SCORE.INTRA.REPUL.0>
0

>  <SCORE.INTRA.SOLV>
6.91977

>  <SCORE.INTRA.SOLV.lig_0>
-102.332

>  <SCORE.INTRA.VDW>
0.548354

>  <SCORE.INTRA.VDW.0>
-5.08747

>  <SCORE.INTRA.norm>
0.0366534

>  <SCORE.RESTR>
12.5955

>  <SCORE.RESTR.CAVITY>
12.5955

>  <SCORE.RESTR.norm>
0.314888

>  <SCORE.SYSTEM>
0

>  <SCORE.SYSTEM.CONST>
0

>  <SCORE.SYSTEM.DIHEDRAL>
0

>  <SCORE.SYSTEM.SOLV>
0

>  <SCORE.SYSTEM.norm>
0

>  <SCORE.heavy>
40

>  <SCORE.norm>
1.12802

>  <RMSD>
11.485

$$$$
2g5q_lig
 OpenBabel11021811433D
libRbt.so/2013.1/901 2013/11/27
 40 42  0  0  0  0  0  0  0  0999 V2000
   10.7783  -10.0407    8.7233 C   0  0  2  0  0  0  0  0  0  0  0  0
    9.4361   -9.6623    8.5117 O   0  0  0  0  0  0  0  0  0  0  0  0
   11.2406  -10.9360    7.5360 C   0  0  1  0  0  0  0  0  0  0  0  0
   10.4870  -12.3016    7.5093 C   0  0  2  0  0  0  0  0  0  0  0  0
   10.7705  -13.0259    8.8510 C   0  0  2  0  0  0  0  0  0  0  0  0
   10.1104  -14.3021    8.8560 O   0  0  0  0  0  0  0  0  0  0  0  0
   10.2478  -12.1089   10.0299 C   0  0  2  0  0  0  0  0  0  0  0  0
   10.9421  -10.7899    9.9969 O   0  0  0  0  0  0  0  0  0  0  0  0
   10.4895  -12.7212   11.4055 C   0  0  0  0  0  0  0  0  0  0  0  0
    9.9177  -11.8791   12.5035 N   0  0  0  0  0  0  0  0  0  0  0  0
    5.4758   -9.8940   10.3392 C   0  0  2  0  0  0  0  0  0  0  0  0
    4.4123  -10.1598   11.3005 N   0  0  0  0  0  0  0  0  0  0  0  0
    6.2157  -11.2427    9.9526 C   0  0  0  0  0  0  0  0  0  0  0  0
    7.3640  -10.9602    8.9057 C   0  0  2  0  0  0  0  0  0  0  0  0
    8.0423  -12.2340    8.5432 N   0  0  0  0  0  0  0  0  0  0  0  0
    8.3848   -9.9166    9.5114 C   0  0  2  0  0  0  0  0  0  0  0  0
    7.6117   -8.5908    9.8873 C   0  0  2  0  0  0  0  0  0  0  0  0
    8.5368   -7.6498   10.4413 O   0  0  0  0  0  0  0  0  0  0  0  0
    6.4814   -8.8925   10.9439 C   0  0  1  0  0  0  0  0  0  0  0  0
    5.7630   -7.6719   11.2791 O   0  0  0  0  0  0  0  0  0  0  0  0
    5.1464   -7.4336   12.5205 C   0  0  2  0  0  0  0  0  0  0  0  0
    5.1859   -5.8887   12.7754 C   0  0  2  0  0  0  0  0  0  0  0  0
    4.5019   -5.2318   11.7571 O   0  0  0  0  0  0  0  0  0  0  0  0
    6.6689   -5.3678   12.8852 C   0  0  1  0  0  0  0  0  0  0  0  0
    6.7173   -3.8893   13.1340 N   0  0  0  0  0  0  0  0  0  0  0  0
    7.3868   -6.1561   14.0516 C   0  0  2  0  0  0  0  0  0  0  0  0
    8.7391   -5.7201   14.2047 O   0  0  0  0  0  0  0  0  0  0  0  0
    7.3146   -7.6885   13.7366 C   0  0  2  0  0  0  0  0  0  0  0  0
    5.8893   -8.1397   13.5795 O   0  0  0  0  0  0  0  0  0  0  0  0
    7.9514   -8.5097   14.8201 C   0  0  0  0  0  0  0  0  0  0  0  0
    7.6986   -9.9113   14.6293 O   0  0  0  0  0  0  0  0  0  0  0  0
   11.0300  -10.1918    6.2870 O   0  0  0  0  0  0  0  0  0  0  0  0
   10.9431  -13.0559    6.4508 O   0  0  0  0  0  0  0  0  0  0  0  0
    1.5259  -12.2549   10.6102 N   0  0  0  0  0  0  0  0  0  0  0  0
    3.1365   -9.6154   11.2544 C   0  0  0  0  0  0  0  0  0  0  0  0
    2.7583   -8.8320   10.3904 O   0  0  0  0  0  0  0  0  0  0  0  0
    2.2481  -10.0939   12.4258 C   0  0  1  0  0  0  0  0  0  0  0  0
    2.5612  -11.5666   12.7593 C   0  0  0  0  0  0  0  0  0  0  0  0
    2.5974  -12.5280   11.5657 C   0  0  0  0  0  0  0  0  0  0  0  0
    2.4789   -9.2445   13.5724 O   0  0  0  0  0  0  0  0  0  0  0  0
  1  2  1  6  0  0  0
  1  3  1  0  0  0  0
  1  8  1  0  0  0  0
  3  4  1  0  0  0  0
  3 32  1  6  0  0  0
  4  5  1  0  0  0  0
  4 33  1  6  0  0  0
  5  6  1  6  0  0  0
  5  7  1  0  0  0  0
  7  8  1  0  0  0  0
  7  9  1  1  0  0  0
  9 10  1  0  0  0  0
 11 12  1  1  0  0  0
 11 13  1  0  0  0  0
 11 19  1  0  0  0  0
 12 35  1  0  0  0  0
 13 14  1  0  0  0  0
 14 15  1  1  0  0  0
 14 16  1  0  0  0  0
 16  2  1  6  0  0  0
 16 17  1  0  0  0  0
 17 18  1  1  0  0  0
 17 19  1  0  0  0  0
 19 20  1  6  0  0  0
 21 20  1  6  0  0  0
 21 22  1  0  0  0  0
 21 29  1  0  0  0  0
 22 23  1  6  0  0  0
 22 24  1  0  0  0  0
 24 25  1  1  0  0  0
 24 26  1  0  0  0  0
 26 27  1  6  0  0  0
 26 28  1  0  0  0  0
 28 29  1  0  0  0  0
 28 30  1  1  0  0  0
 30 31  1  0  0  0  0
 34 39  1  0  0  0  0
 35 36  2  0  0  0  0
 37 35  1  6  0  0  0
 37 38  1  0  0  0  0
 37 40  1  0  0  0  0
 38 39  1  0  0  0  0
M  END
>  <CHROM.1>
124.89757918,-176.64773844,-136.36968631,-114.04252225,89.58934173,150.04604380
170.96503352,-36.35971814,-48.67314041,-40.80648520,7.14988062,-9.64897304
10.95944887,-0.76916122,0.25703924,0.56360263

>  <Name>
2g5q_lig

>  <RI>
0

>  <Rbt.Current_Directory>
/home/itssahil/PROJECTS/Mol_Feturizer/New_Systems/rnas/2g5q

>  <Rbt.Executable>
rbdock ($Id: //depot/dev/client3/rdock/2013.1/src/exe/rbdock.cxx#4 $)

>  <Rbt.Library>
libRbt.so (2013.1, Build901 2013/11/27)

>  <Rbt.Parameter_File>
/export/apps/rDock/src/rDock_2013.1_src/data/scripts/dock_solv.prm

>  <Rbt.Receptor>
prm/blind_docking_20.prm

>  <SCORE>
20.9386

>  <SCORE.INTER>
1.1868

>  <SCORE.INTER.CONST>
1

>  <SCORE.INTER.POLAR>
-0.899414

>  <SCORE.INTER.ROT>
10

>  <SCORE.INTER.SOLV>
27.3868

>  <SCORE.INTER.VDW>
-15.6064

>  <SCORE.INTER.norm>
0.0296701

>  <SCORE.INTRA>
7.8592

>  <SCORE.INTRA.DIHEDRAL>
3.06585

>  <SCORE.INTRA.DIHEDRAL.0>
22.5778

>  <SCORE.INTRA.POLAR>
0

>  <SCORE.INTRA.POLAR.0>
0

>  <SCORE.INTRA.REPUL>
0

>  <SCORE.INTRA.REPUL.0>
0

>  <SCORE.INTRA.SOLV>
9.96263

>  <SCORE.INTRA.SOLV.lig_0>
-102.332

>  <SCORE.INTRA.VDW>
1.34496

>  <SCORE.INTRA.VDW.0>
-5.08747

>  <SCORE.INTRA.norm>
0.19648

>  <SCORE.RESTR>
11.8925

>  <SCORE.RESTR.CAVITY>
11.8925

>  <SCORE.RESTR.norm>
0.297314

>  <SCORE.SYSTEM>
0

>  <SCORE.SYSTEM.CONST>
0

>  <SCORE.SYSTEM.DIHEDRAL>
0

>  <SCORE.SYSTEM.SOLV>
0

>  <SCORE.SYSTEM.norm>
0

>  <SCORE.heavy>
40

>  <SCORE.norm>
0.523464

>  <RMSD>
11.497

$$$$
2g5q_lig
 OpenBabel11021811433D
libRbt.so/2013.1/901 2013/11/27
 40 42  0  0  0  0  0  0  0  0999 V2000
   10.6755  -10.0646    8.8695 C   0  0  2  0  0  0  0  0  0  0  0  0
    9.3269   -9.7519    8.5992 O   0  0  0  0  0  0  0  0  0  0  0  0
   11.2442  -10.9002    7.6850 C   0  0  1  0  0  0  0  0  0  0  0  0
   10.5681  -12.3025    7.5848 C   0  0  2  0  0  0  0  0  0  0  0  0
   10.8233  -13.0485    8.9202 C   0  0  2  0  0  0  0  0  0  0  0  0
   10.2340  -14.3575    8.8587 O   0  0  0  0  0  0  0  0  0  0  0  0
   10.1935  -12.1941   10.0939 C   0  0  2  0  0  0  0  0  0  0  0  0
   10.8160  -10.8398   10.1303 O   0  0  0  0  0  0  0  0  0  0  0  0
   10.3993  -12.8315   11.4639 C   0  0  0  0  0  0  0  0  0  0  0  0
    9.5348  -14.0386   11.6574 N   0  0  0  0  0  0  0  0  0  0  0  0
    5.3615   -9.7514   10.4304 C   0  0  2  0  0  0  0  0  0  0  0  0
    4.2881   -9.9396   11.3989 N   0  0  0  0  0  0  0  0  0  0  0  0
    6.0412  -11.1428   10.0872 C   0  0  0  0  0  0  0  0  0  0  0  0
    7.2001  -10.9444    9.0327 C   0  0  2  0  0  0  0  0  0  0  0  0
    7.8215  -12.2576    8.7112 N   0  0  0  0  0  0  0  0  0  0  0  0
    8.2662   -9.9280    9.6057 C   0  0  2  0  0  0  0  0  0  0  0  0
    7.5524   -8.5582    9.9389 C   0  0  2  0  0  0  0  0  0  0  0  0
    8.5183   -7.6417   10.4634 O   0  0  0  0  0  0  0  0  0  0  0  0
    6.4107   -8.7764   11.0038 C   0  0  1  0  0  0  0  0  0  0  0  0
    5.7468   -7.5154   11.2996 O   0  0  0  0  0  0  0  0  0  0  0  0
    5.1226   -7.2194   12.5247 C   0  0  2  0  0  0  0  0  0  0  0  0
    5.2275   -5.6721   12.7433 C   0  0  2  0  0  0  0  0  0  0  0  0
    4.5892   -5.0107   11.6986 O   0  0  0  0  0  0  0  0  0  0  0  0
    6.7305   -5.2150   12.8648 C   0  0  1  0  0  0  0  0  0  0  0  0
    6.8413   -3.7345   13.0791 N   0  0  0  0  0  0  0  0  0  0  0  0
    7.3945   -6.0056   14.0613 C   0  0  2  0  0  0  0  0  0  0  0  0
    8.7624   -5.6264   14.2260 O   0  0  0  0  0  0  0  0  0  0  0  0
    7.2584   -7.5405   13.7819 C   0  0  2  0  0  0  0  0  0  0  0  0
    5.8169   -7.9317   13.6123 O   0  0  0  0  0  0  0  0  0  0  0  0
    7.8412   -8.3623   14.8949 C   0  0  0  0  0  0  0  0  0  0  0  0
    7.9480   -9.7457   14.5212 O   0  0  0  0  0  0  0  0  0  0  0  0
   11.0560  -10.1332    6.4463 O   0  0  0  0  0  0  0  0  0  0  0  0
   11.1166  -13.0014    6.5321 O   0  0  0  0  0  0  0  0  0  0  0  0
    1.5260  -14.4612   12.5170 N   0  0  0  0  0  0  0  0  0  0  0  0
    3.1097  -10.6340   11.1636 C   0  0  0  0  0  0  0  0  0  0  0  0
    2.8328  -11.1684   10.0954 O   0  0  0  0  0  0  0  0  0  0  0  0
    2.1749  -10.6444   12.3950 C   0  0  1  0  0  0  0  0  0  0  0  0
    1.4099  -11.9815   12.4665 C   0  0  0  0  0  0  0  0  0  0  0  0
    2.2271  -13.2363   12.1377 C   0  0  0  0  0  0  0  0  0  0  0  0
    2.9626  -10.4358   13.5889 O   0  0  0  0  0  0  0  0  0  0  0  0
  1  2  1  6  0  0  0
  1  3  1  0  0  0  0
  1  8  1  0  0  0  0
  3  4  1  0  0  0  0
  3 32  1  6  0  0  0
  4  5  1  0  0  0  0
  4 33  1  6  0  0  0
  5  6  1  6  0  0  0
  5  7  1  0  0  0  0
  7  8  1  0  0  0  0
  7  9  1  1  0  0  0
  9 10  1  0  0  0  0
 11 12  1  1  0  0  0
 11 13  1  0  0  0  0
 11 19  1  0  0  0  0
 12 35  1  0  0  0  0
 13 14  1  0  0  0  0
 14 15  1  1  0  0  0
 14 16  1  0  0  0  0
 16  2  1  6  0  0  0
 16 17  1  0  0  0  0
 17 18  1  1  0  0  0
 17 19  1  0  0  0  0
 19 20  1  6  0  0  0
 21 20  1  6  0  0  0
 21 22  1  0  0  0  0
 21 29  1  0  0  0  0
 22 23  1  6  0  0  0
 22 24  1  0  0  0  0
 24 25  1  1  0  0  0
 24 26  1  0  0  0  0
 26 27  1  6  0  0  0
 26 28  1  0  0  0  0
 28 29  1  0  0  0  0
 28 30  1  1  0  0  0
 30 31  1  0  0  0  0
 34 39  1  0  0  0  0
 35 36  2  0  0  0  0
 37 35  1  6  0  0  0
 37 38  1  0  0  0  0
 37 40  1  0  0  0  0
 38 39  1  0  0  0  0
M  END
>  <CHROM.1>
133.04592177,-72.65182066,-66.02571275,-120.19979031,88.47569463,150.27571592
-168.81554212,-145.58196283,41.15699784,167.10099901,7.09945251,-9.85917556
11.02634542,-0.72331547,0.38676751,0.42768855

>  <Name>
2g5q_lig

>  <RI>
0

>  <Rbt.Current_Directory>
/home/itssahil/PROJECTS/Mol_Feturizer/New_Systems/rnas/2g5q

>  <Rbt.Executable>
rbdock ($Id: //depot/dev/client3/rdock/2013.1/src/exe/rbdock.cxx#4 $)

>  <Rbt.Library>
libRbt.so (2013.1, Build901 2013/11/27)

>  <Rbt.Parameter_File>
/export/apps/rDock/src/rDock_2013.1_src/data/scripts/dock_solv.prm

>  <Rbt.Receptor>
prm/blind_docking_20.prm

>  <SCORE>
16.9227

>  <SCORE.INTER>
-1.61052

>  <SCORE.INTER.CONST>
1

>  <SCORE.INTER.POLAR>
-0.448785

>  <SCORE.INTER.ROT>
10

>  <SCORE.INTER.SOLV>
23.7704

>  <SCORE.INTER.VDW>
-17.7679

>  <SCORE.INTER.norm>
-0.0402629

>  <SCORE.INTRA>
5.31381

>  <SCORE.INTRA.DIHEDRAL>
2.49924

>  <SCORE.INTRA.DIHEDRAL.0>
22.5778

>  <SCORE.INTRA.POLAR>
0

>  <SCORE.INTRA.POLAR.0>
0

>  <SCORE.INTRA.REPUL>
0.0116785

>  <SCORE.INTRA.REPUL.0>
0

>  <SCORE.INTRA.SOLV>
5.88065

>  <SCORE.INTRA.SOLV.lig_0>
-102.332

>  <SCORE.INTRA.VDW>
1.06547

>  <SCORE.INTRA.VDW.0>
-5.08747

>  <SCORE.INTRA.norm>
0.132845

>  <SCORE.RESTR>
13.2194

>  <SCORE.RESTR.CAVITY>
13.2194

>  <SCORE.RESTR.norm>
0.330486

>  <SCORE.SYSTEM>
0

>  <SCORE.SYSTEM.CONST>
0

>  <SCORE.SYSTEM.DIHEDRAL>
0

>  <SCORE.SYSTEM.SOLV>
0

>  <SCORE.SYSTEM.norm>
0

>  <SCORE.heavy>
40

>  <SCORE.norm>
0.423068

>  <RMSD>
11.506

$$$$
2g5q_lig
 OpenBabel11021811433D
libRbt.so/2013.1/901 2013/11/27
 40 42  0  0  0  0  0  0  0  0999 V2000
   10.7450   -9.8944    8.9204 C   0  0  2  0  0  0  0  0  0  0  0  0
    9.4298   -9.4973    8.6009 O   0  0  0  0  0  0  0  0  0  0  0  0
   11.2783  -10.8215    7.7887 C   0  0  1  0  0  0  0  0  0  0  0  0
   10.5035  -12.1742    7.7311 C   0  0  2  0  0  0  0  0  0  0  0  0
   10.6717  -12.8758    9.1038 C   0  0  2  0  0  0  0  0  0  0  0  0
    9.9894  -14.1401    9.0832 O   0  0  0  0  0  0  0  0  0  0  0  0
   10.0792  -11.9261   10.2223 C   0  0  2  0  0  0  0  0  0  0  0  0
   10.7985  -10.6202   10.2167 O   0  0  0  0  0  0  0  0  0  0  0  0
   10.2053  -12.5143   11.6236 C   0  0  0  0  0  0  0  0  0  0  0  0
    9.5023  -13.8306   11.7456 N   0  0  0  0  0  0  0  0  0  0  0  0
    5.3329   -9.6428   10.1082 C   0  0  2  0  0  0  0  0  0  0  0  0
    4.1880   -9.9076   10.9713 N   0  0  0  0  0  0  0  0  0  0  0  0
    6.0462  -11.0025    9.7105 C   0  0  0  0  0  0  0  0  0  0  0  0
    7.2831  -10.7208    8.7696 C   0  0  2  0  0  0  0  0  0  0  0  0
    7.9362  -12.0041    8.3949 N   0  0  0  0  0  0  0  0  0  0  0  0
    8.2944   -9.7530    9.5035 C   0  0  2  0  0  0  0  0  0  0  0  0
    7.5479   -8.4142    9.8871 C   0  0  2  0  0  0  0  0  0  0  0  0
    8.4638   -7.5422   10.5571 O   0  0  0  0  0  0  0  0  0  0  0  0
    6.3275   -8.7164   10.8380 C   0  0  1  0  0  0  0  0  0  0  0  0
    5.6345   -7.4830   11.1797 O   0  0  0  0  0  0  0  0  0  0  0  0
    4.9816   -7.2568   12.4047 C   0  0  2  0  0  0  0  0  0  0  0  0
    5.0698   -5.7226   12.7074 C   0  0  2  0  0  0  0  0  0  0  0  0
    4.4492   -5.0107   11.6854 O   0  0  0  0  0  0  0  0  0  0  0  0
    6.5662   -5.2629   12.8862 C   0  0  1  0  0  0  0  0  0  0  0  0
    6.6610   -3.7951   13.1811 N   0  0  0  0  0  0  0  0  0  0  0  0
    7.2102   -6.1117   14.0533 C   0  0  2  0  0  0  0  0  0  0  0  0
    8.5712   -5.7329   14.2681 O   0  0  0  0  0  0  0  0  0  0  0  0
    7.0921   -7.6304   13.6899 C   0  0  2  0  0  0  0  0  0  0  0  0
    5.6576   -8.0214   13.4680 O   0  0  0  0  0  0  0  0  0  0  0  0
    7.6569   -8.5065   14.7702 C   0  0  0  0  0  0  0  0  0  0  0  0
    9.0015   -8.1237   15.1026 O   0  0  0  0  0  0  0  0  0  0  0  0
   11.1761  -10.0993    6.5134 O   0  0  0  0  0  0  0  0  0  0  0  0
   11.0237  -12.9576    6.7246 O   0  0  0  0  0  0  0  0  0  0  0  0
    2.4845  -13.8818   11.9056 N   0  0  0  0  0  0  0  0  0  0  0  0
    4.1464  -10.8647   11.9754 C   0  0  0  0  0  0  0  0  0  0  0  0
    5.0804  -11.6110   12.2478 O   0  0  0  0  0  0  0  0  0  0  0  0
    2.7827  -10.8977   12.7032 C   0  0  1  0  0  0  0  0  0  0  0  0
    1.7109  -11.5254   11.7892 C   0  0  0  0  0  0  0  0  0  0  0  0
    2.1438  -12.7751   11.0139 C   0  0  0  0  0  0  0  0  0  0  0  0
    2.9192  -11.6493   13.9303 O   0  0  0  0  0  0  0  0  0  0  0  0
  1  2  1  6  0  0  0
  1  3  1  0  0  0  0
  1  8  1  0  0  0  0
  3  4  1  0  0  0  0
  3 32  1  6  0  0  0
  4  5  1  0  0  0  0
  4 33  1  6  0  0  0
  5  6  1  6  0  0  0
  5  7  1  0  0  0  0
  7  8  1  0  0  0  0
  7  9  1  1  0  0  0
  9 10  1  0  0  0  0
 11 12  1  1  0  0  0
 11 13  1  0  0  0  0
 11 19  1  0  0  0  0
 12 35  1  0  0  0  0
 13 14  1  0  0  0  0
 14 15  1  1  0  0  0
 14 16  1  0  0  0  0
 16  2  1  6  0  0  0
 16 17  1  0  0  0  0
 17 18  1  1  0  0  0
 17 19  1  0  0  0  0
 19 20  1  6  0  0  0
 21 20  1  6  0  0  0
 21 22  1  0  0  0  0
 21 29  1  0  0  0  0
 22 23  1  6  0  0  0
 22 24  1  0  0  0  0
 24 25  1  1  0  0  0
 24 26  1  0  0  0  0
 26 27  1  6  0  0  0
 26 28  1  0  0  0  0
 28 29  1  0  0  0  0
 28 30  1  1  0  0  0
 30 31  1  0  0  0  0
 34 39  1  0  0  0  0
 35 36  2  0  0  0  0
 37 35  1  6  0  0  0
 37 38  1  0  0  0  0
 37 40  1  0  0  0  0
 38 39  1  0  0  0  0
M  END
>  <CHROM.1>
122.83262876,-59.06472999,38.95993178,-116.76661894,92.44074674,149.53393394
-53.30889305,72.70509036,42.96742849,63.03854028,7.19570769,-9.76824158,11.05557544
-0.79133192,0.40174965,0.44236991

>  <Name>
2g5q_lig

>  <RI>
0

>  <Rbt.Current_Directory>
/home/itssahil/PROJECTS/Mol_Feturizer/New_Systems/rnas/2g5q

>  <Rbt.Executable>
rbdock ($Id: //depot/dev/client3/rdock/2013.1/src/exe/rbdock.cxx#4 $)

>  <Rbt.Library>
libRbt.so (2013.1, Build901 2013/11/27)

>  <Rbt.Parameter_File>
/export/apps/rDock/src/rDock_2013.1_src/data/scripts/dock_solv.prm

>  <Rbt.Receptor>
prm/blind_docking_20.prm

>  <SCORE>
23.8865

>  <SCORE.INTER>
3.29614

>  <SCORE.INTER.CONST>
1

>  <SCORE.INTER.POLAR>
-0.412205

>  <SCORE.INTER.ROT>
10

>  <SCORE.INTER.SOLV>
22.2633

>  <SCORE.INTER.VDW>
-14.1163

>  <SCORE.INTER.norm>
0.0824036

>  <SCORE.INTRA>
8.30108

>  <SCORE.INTRA.DIHEDRAL>
1.9593

>  <SCORE.INTRA.DIHEDRAL.0>
22.5778

>  <SCORE.INTRA.POLAR>
0

>  <SCORE.INTRA.POLAR.0>
0

>  <SCORE.INTRA.REPUL>
0

>  <SCORE.INTRA.REPUL.0>
0

>  <SCORE.INTRA.SOLV>
10.2021

>  <SCORE.INTRA.SOLV.lig_0>
-102.332

>  <SCORE.INTRA.VDW>
2.22037

>  <SCORE.INTRA.VDW.0>
-5.08747

>  <SCORE.INTRA.norm>
0.207527

>  <SCORE.RESTR>
12.2893

>  <SCORE.RESTR.CAVITY>
12.2893

>  <SCORE.RESTR.norm>
0.307233

>  <SCORE.SYSTEM>
0

>  <SCORE.SYSTEM.CONST>
0

>  <SCORE.SYSTEM.DIHEDRAL>
0

>  <SCORE.SYSTEM.SOLV>
0

>  <SCORE.SYSTEM.norm>
0

>  <SCORE.heavy>
40

>  <SCORE.norm>
0.597163

>  <RMSD>
11.509

$$$$
2g5q_lig
 OpenBabel11021811433D
libRbt.so/2013.1/901 2013/11/27
 40 42  0  0  0  0  0  0  0  0999 V2000
    2.7317   -6.9231   18.4702 C   0  0  2  0  0  0  0  0  0  0  0  0
    2.9654   -7.3854   19.7821 O   0  0  0  0  0  0  0  0  0  0  0  0
    1.5965   -7.7766   17.8319 C   0  0  1  0  0  0  0  0  0  0  0  0
    2.0350   -9.2577   17.6131 C   0  0  2  0  0  0  0  0  0  0  0  0
    3.2729   -9.2526   16.6791 C   0  0  2  0  0  0  0  0  0  0  0  0
    3.6945  -10.6041   16.4340 O   0  0  0  0  0  0  0  0  0  0  0  0
    4.4191   -8.4157   17.3790 C   0  0  2  0  0  0  0  0  0  0  0  0
    3.9533   -7.0216   17.6288 O   0  0  0  0  0  0  0  0  0  0  0  0
    5.6876   -8.3325   16.5366 C   0  0  0  0  0  0  0  0  0  0  0  0
    6.3059   -9.6785   16.3180 N   0  0  0  0  0  0  0  0  0  0  0  0
    4.6739   -5.5398   23.3532 C   0  0  2  0  0  0  0  0  0  0  0  0
    5.6294   -4.9250   24.2668 N   0  0  0  0  0  0  0  0  0  0  0  0
    5.1697   -6.9867   22.9329 C   0  0  0  0  0  0  0  0  0  0  0  0
    4.1338   -7.6594   21.9486 C   0  0  2  0  0  0  0  0  0  0  0  0
    4.6046   -9.0195   21.5711 N   0  0  0  0  0  0  0  0  0  0  0  0
    3.9438   -6.7422   20.6755 C   0  0  2  0  0  0  0  0  0  0  0  0
    3.4546   -5.3112   21.1337 C   0  0  2  0  0  0  0  0  0  0  0  0
    3.2894   -4.4806   19.9801 O   0  0  0  0  0  0  0  0  0  0  0  0
    4.5094   -4.6521   22.1022 C   0  0  1  0  0  0  0  0  0  0  0  0
    4.0506   -3.3395   22.5324 O   0  0  0  0  0  0  0  0  0  0  0  0
    3.8519   -2.2490   21.6666 C   0  0  2  0  0  0  0  0  0  0  0  0
    4.2214   -0.9485   22.4573 C   0  0  2  0  0  0  0  0  0  0  0  0
    5.5509   -1.0130   22.8630 O   0  0  0  0  0  0  0  0  0  0  0  0
    3.2649   -0.7421   23.6923 C   0  0  1  0  0  0  0  0  0  0  0  0
    3.6079    0.5040   24.4537 N   0  0  0  0  0  0  0  0  0  0  0  0
    1.7769   -0.6838   23.1633 C   0  0  2  0  0  0  0  0  0  0  0  0
    0.8596   -0.4897   24.2417 O   0  0  0  0  0  0  0  0  0  0  0  0
    1.4709   -2.0088   22.3865 C   0  0  2  0  0  0  0  0  0  0  0  0
    2.4382   -2.2043   21.2525 O   0  0  0  0  0  0  0  0  0  0  0  0
    0.0790   -2.0151   21.8242 C   0  0  0  0  0  0  0  0  0  0  0  0
   -0.1052   -0.9518   20.8753 O   0  0  0  0  0  0  0  0  0  0  0  0
    0.4150   -7.6984   18.7015 O   0  0  0  0  0  0  0  0  0  0  0  0
    1.0009   -9.9611   17.0359 O   0  0  0  0  0  0  0  0  0  0  0  0
    8.5912   -0.5260   25.4731 N   0  0  0  0  0  0  0  0  0  0  0  0
    5.3066   -4.3089   25.4678 C   0  0  0  0  0  0  0  0  0  0  0  0
    4.1628   -4.2050   25.8971 O   0  0  0  0  0  0  0  0  0  0  0  0
    6.5501   -3.7515   26.1981 C   0  0  1  0  0  0  0  0  0  0  0  0
    7.0231   -2.4505   25.5185 C   0  0  0  0  0  0  0  0  0  0  0  0
    8.2489   -1.7771   26.1464 C   0  0  0  0  0  0  0  0  0  0  0  0
    6.2190   -3.5182   27.5856 O   0  0  0  0  0  0  0  0  0  0  0  0
  1  2  1  1  0  0  0
  1  3  1  0  0  0  0
  1  8  1  0  0  0  0
  3  4  1  0  0  0  0
  3 32  1  1  0  0  0
  4  5  1  0  0  0  0
  4 33  1  6  0  0  0
  5  6  1  1  0  0  0
  5  7  1  0  0  0  0
  7  8  1  0  0  0  0
  7  9  1  6  0  0  0
  9 10  1  0  0  0  0
 11 12  1  1  0  0  0
 11 13  1  0  0  0  0
 11 19  1  0  0  0  0
 12 35  1  0  0  0  0
 13 14  1  0  0  0  0
 14 15  1  6  0  0  0
 14 16  1  0  0  0  0
 16  2  1  6  0  0  0
 16 17  1  0  0  0  0
 17 18  1  6  0  0  0
 17 19  1  0  0  0  0
 19 20  1  1  0  0  0
 21 20  1  1  0  0  0
 21 22  1  0  0  0  0
 21 29  1  0  0  0  0
 22 23  1  1  0  0  0
 22 24  1  0  0  0  0
 24 25  1  6  0  0  0
 24 26  1  0  0  0  0
 26 27  1  1  0  0  0
 26 28  1  0  0  0  0
 28 29  1  0  0  0  0
 28 30  1  6  0  0  0
 30 31  1  0  0  0  0
 34 39  1  0  0  0  0
 35 36  2  0  0  0  0
 37 35  1  6  0  0  0
 37 38  1  0  0  0  0
 37 40  1  0  0  0  0
 38 39  1  0  0  0  0
M  END
>  <CHROM.1>
-177.24040181,-63.14633621,-131.45539144,-170.02599501,176.87766638,-146.13181693
61.86654684,76.06911519,179.57198753,-177.64504033,3.83065349,-4.85114420
21.53342434,1.76145850,0.59793678,-2.45934886

>  <Name>
2g5q_lig

>  <RI>
2.47104e+07

>  <Rbt.Current_Directory>
/home/itssahil/PROJECTS/Mol_Feturizer/New_Systems/rnas/2g5q

>  <Rbt.Executable>
rbdock ($Id: //depot/dev/client3/rdock/2013.1/src/exe/rbdock.cxx#4 $)

>  <Rbt.Library>
libRbt.so (2013.1, Build901 2013/11/27)

>  <Rbt.Parameter_File>
/export/apps/rDock/src/rDock_2013.1_src/data/scripts/dock_solv.prm

>  <Rbt.Receptor>
prm/pocket_docking_7.prm

>  <SCORE>
-25.9543

>  <SCORE.INTER>
-18.4201

>  <SCORE.INTER.CONST>
1

>  <SCORE.INTER.POLAR>
-0.903917

>  <SCORE.INTER.ROT>
10

>  <SCORE.INTER.SOLV>
12.2242

>  <SCORE.INTER.VDW>
-23.6084

>  <SCORE.INTER.norm>
-0.460503

>  <SCORE.INTRA>
-7.53977

>  <SCORE.INTRA.DIHEDRAL>
-15.4186

>  <SCORE.INTRA.DIHEDRAL.0>
22.5778

>  <SCORE.INTRA.POLAR>
0

>  <SCORE.INTRA.POLAR.0>
0

>  <SCORE.INTRA.REPUL>
0

>  <SCORE.INTRA.REPUL.0>
0

>  <SCORE.INTRA.SOLV>
0.321497

>  <SCORE.INTRA.SOLV.lig_0>
-102.332

>  <SCORE.INTRA.VDW>
0.0088011

>  <SCORE.INTRA.VDW.0>
-5.08747

>  <SCORE.INTRA.norm>
-0.188494

>  <SCORE.RESTR>
0.0056499

>  <SCORE.RESTR.CAVITY>
0.0056499

>  <SCORE.RESTR.norm>
0.000141247

>  <SCORE.SYSTEM>
0

>  <SCORE.SYSTEM.CONST>
0

>  <SCORE.SYSTEM.DIHEDRAL>
0

>  <SCORE.SYSTEM.SOLV>
0

>  <SCORE.SYSTEM.norm>
0

>  <SCORE.heavy>
40

>  <SCORE.norm>
-0.648856

>  <RMSD>
11.509

$$$$
2g5q_lig
 OpenBabel11021811433D
libRbt.so/2013.1/901 2013/11/27
 40 42  0  0  0  0  0  0  0  0999 V2000
   10.6151  -10.0181    8.8401 C   0  0  2  0  0  0  0  0  0  0  0  0
    9.2617   -9.7368    8.5593 O   0  0  0  0  0  0  0  0  0  0  0  0
   11.2054  -10.8613    7.6716 C   0  0  1  0  0  0  0  0  0  0  0  0
   10.5578  -12.2783    7.5915 C   0  0  2  0  0  0  0  0  0  0  0  0
   10.8220  -12.9972    8.9400 C   0  0  2  0  0  0  0  0  0  0  0  0
   10.2591  -14.3185    8.8975 O   0  0  0  0  0  0  0  0  0  0  0  0
   10.1703  -12.1367   10.0970 C   0  0  2  0  0  0  0  0  0  0  0  0
   10.7656  -10.7698   10.1138 O   0  0  0  0  0  0  0  0  0  0  0  0
   10.3828  -12.7475   11.4781 C   0  0  0  0  0  0  0  0  0  0  0  0
    9.6972  -14.0712   11.6184 N   0  0  0  0  0  0  0  0  0  0  0  0
    5.2982   -9.7234   10.3944 C   0  0  2  0  0  0  0  0  0  0  0  0
    4.2261   -9.9033   11.3660 N   0  0  0  0  0  0  0  0  0  0  0  0
    5.9797  -11.1173   10.0650 C   0  0  0  0  0  0  0  0  0  0  0  0
    7.1372  -10.9281    9.0073 C   0  0  2  0  0  0  0  0  0  0  0  0
    7.7603  -12.2436    8.6987 N   0  0  0  0  0  0  0  0  0  0  0  0
    8.2023   -9.9042    9.5686 C   0  0  2  0  0  0  0  0  0  0  0  0
    7.4867   -8.5321    9.8884 C   0  0  2  0  0  0  0  0  0  0  0  0
    8.4517   -7.6087   10.4024 O   0  0  0  0  0  0  0  0  0  0  0  0
    6.3464   -8.7409   10.9566 C   0  0  1  0  0  0  0  0  0  0  0  0
    5.6809   -7.4780   11.2401 O   0  0  0  0  0  0  0  0  0  0  0  0
    5.0226   -7.1854   12.4481 C   0  0  2  0  0  0  0  0  0  0  0  0
    5.1528   -5.6438   12.6923 C   0  0  2  0  0  0  0  0  0  0  0  0
    4.5638   -4.9545   11.6366 O   0  0  0  0  0  0  0  0  0  0  0  0
    6.6602   -5.2211   12.8699 C   0  0  1  0  0  0  0  0  0  0  0  0
    6.7951   -3.7463   13.1090 N   0  0  0  0  0  0  0  0  0  0  0  0
    7.2671   -6.0421   14.0762 C   0  0  2  0  0  0  0  0  0  0  0  0
    8.6365   -5.6948   14.2915 O   0  0  0  0  0  0  0  0  0  0  0  0
    7.1081   -7.5697   13.7704 C   0  0  2  0  0  0  0  0  0  0  0  0
    5.6650   -7.9273   13.5476 O   0  0  0  0  0  0  0  0  0  0  0  0
    7.6359   -8.4191   14.8900 C   0  0  0  0  0  0  0  0  0  0  0  0
    9.0159   -8.1249   15.1622 O   0  0  0  0  0  0  0  0  0  0  0  0
   11.0073  -10.1184    6.4198 O   0  0  0  0  0  0  0  0  0  0  0  0
   11.1247  -12.9830    6.5526 O   0  0  0  0  0  0  0  0  0  0  0  0
    2.5783  -13.5421   11.3713 N   0  0  0  0  0  0  0  0  0  0  0  0
    3.0780  -10.6558   11.1616 C   0  0  0  0  0  0  0  0  0  0  0  0
    2.8303  -11.2564   10.1218 O   0  0  0  0  0  0  0  0  0  0  0  0
    2.1353  -10.6388   12.3870 C   0  0  1  0  0  0  0  0  0  0  0  0
    2.3417  -11.9133   13.2303 C   0  0  0  0  0  0  0  0  0  0  0  0
    1.8498  -13.2197   12.5966 C   0  0  0  0  0  0  0  0  0  0  0  0
    2.3991   -9.4531   13.1705 O   0  0  0  0  0  0  0  0  0  0  0  0
  1  2  1  6  0  0  0
  1  3  1  0  0  0  0
  1  8  1  0  0  0  0
  3  4  1  0  0  0  0
  3 32  1  6  0  0  0
  4  5  1  0  0  0  0
  4 33  1  6  0  0  0
  5  6  1  6  0  0  0
  5  7  1  0  0  0  0
  7  8  1  0  0  0  0
  7  9  1  1  0  0  0
  9 10  1  0  0  0  0
 11 12  1  1  0  0  0
 11 13  1  0  0  0  0
 11 19  1  0  0  0  0
 12 35  1  0  0  0  0
 13 14  1  0  0  0  0
 14 15  1  1  0  0  0
 14 16  1  0  0  0  0
 16  2  1  6  0  0  0
 16 17  1  0  0  0  0
 17 18  1  1  0  0  0
 17 19  1  0  0  0  0
 19 20  1  6  0  0  0
 21 20  1  6  0  0  0
 21 22  1  0  0  0  0
 21 29  1  0  0  0  0
 22 23  1  6  0  0  0
 22 24  1  0  0  0  0
 24 25  1  1  0  0  0
 24 26  1  0  0  0  0
 26 27  1  6  0  0  0
 26 28  1  0  0  0  0
 28 29  1  0  0  0  0
 28 30  1  1  0  0  0
 30 31  1  0  0  0  0
 34 39  1  0  0  0  0
 35 36  2  0  0  0  0
 37 35  1  6  0  0  0
 37 38  1  0  0  0  0
 37 40  1  0  0  0  0
 38 39  1  0  0  0  0
M  END
>  <CHROM.1>
133.70748875,-64.43187178,-62.71557786,-121.55219507,86.46748308,149.22147279
-57.20496987,-98.34754769,-69.91084735,63.50089847,7.10613493,-9.74859137
11.02010245,-0.78710002,0.34437794,0.47134657

>  <Name>
2g5q_lig

>  <RI>
0

>  <Rbt.Current_Directory>
/home/itssahil/PROJECTS/Mol_Feturizer/New_Systems/rnas/2g5q

>  <Rbt.Executable>
rbdock ($Id: //depot/dev/client3/rdock/2013.1/src/exe/rbdock.cxx#4 $)

>  <Rbt.Library>
libRbt.so (2013.1, Build901 2013/11/27)

>  <Rbt.Parameter_File>
/export/apps/rDock/src/rDock_2013.1_src/data/scripts/dock_solv.prm

>  <Rbt.Receptor>
prm/blind_docking_20.prm

>  <SCORE>
12.6078

>  <SCORE.INTER>
-4.23926

>  <SCORE.INTER.CONST>
1

>  <SCORE.INTER.POLAR>
-1.23369

>  <SCORE.INTER.ROT>
10

>  <SCORE.INTER.SOLV>
25.3377

>  <SCORE.INTER.VDW>
-17.4265

>  <SCORE.INTER.norm>
-0.105982

>  <SCORE.INTRA>
5.59184

>  <SCORE.INTRA.DIHEDRAL>
0.0605937

>  <SCORE.INTRA.DIHEDRAL.0>
22.5778

>  <SCORE.INTRA.POLAR>
0

>  <SCORE.INTRA.POLAR.0>
0

>  <SCORE.INTRA.REPUL>
0.0567417

>  <SCORE.INTRA.REPUL.0>
0

>  <SCORE.INTRA.SOLV>
9.46859

>  <SCORE.INTRA.SOLV.lig_0>
-102.332

>  <SCORE.INTRA.VDW>
0.543538

>  <SCORE.INTRA.VDW.0>
-5.08747

>  <SCORE.INTRA.norm>
0.139796

>  <SCORE.RESTR>
11.2552

>  <SCORE.RESTR.CAVITY>
11.2552

>  <SCORE.RESTR.norm>
0.28138

>  <SCORE.SYSTEM>
0

>  <SCORE.SYSTEM.CONST>
0

>  <SCORE.SYSTEM.DIHEDRAL>
0

>  <SCORE.SYSTEM.SOLV>
0

>  <SCORE.SYSTEM.norm>
0

>  <SCORE.heavy>
40

>  <SCORE.norm>
0.315194

>  <RMSD>
11.513

$$$$
2g5q_lig
 OpenBabel11021811433D
libRbt.so/2013.1/901 2013/11/27
 40 42  0  0  0  0  0  0  0  0999 V2000
   -8.3573  -10.7870   13.1984 C   0  0  2  0  0  0  0  0  0  0  0  0
   -8.5619  -11.1422   14.5480 O   0  0  0  0  0  0  0  0  0  0  0  0
   -8.5239   -9.2455   13.0542 C   0  0  1  0  0  0  0  0  0  0  0  0
   -9.9921   -8.7914   13.3218 C   0  0  2  0  0  0  0  0  0  0  0  0
  -10.9059   -9.5136   12.2979 C   0  0  2  0  0  0  0  0  0  0  0  0
  -12.2682   -9.1028   12.4974 O   0  0  0  0  0  0  0  0  0  0  0  0
  -10.7449  -11.0743   12.5038 C   0  0  2  0  0  0  0  0  0  0  0  0
   -9.3227  -11.4722   12.2992 O   0  0  0  0  0  0  0  0  0  0  0  0
  -11.5941  -11.8883   11.5332 C   0  0  0  0  0  0  0  0  0  0  0  0
  -11.3941  -13.3614   11.7110 N   0  0  0  0  0  0  0  0  0  0  0  0
   -6.0843  -12.3670   17.9302 C   0  0  2  0  0  0  0  0  0  0  0  0
   -5.1020  -13.0851   18.7334 N   0  0  0  0  0  0  0  0  0  0  0  0
   -7.1952  -13.3668   17.3990 C   0  0  0  0  0  0  0  0  0  0  0  0
   -8.2655  -12.5917   16.5341 C   0  0  2  0  0  0  0  0  0  0  0  0
   -9.3073  -13.5382   16.0516 N   0  0  0  0  0  0  0  0  0  0  0  0
   -7.5446  -11.8661   15.3292 C   0  0  2  0  0  0  0  0  0  0  0  0
   -6.4444  -10.8839   15.8966 C   0  0  2  0  0  0  0  0  0  0  0  0
   -5.7888  -10.2329   14.8037 O   0  0  0  0  0  0  0  0  0  0  0  0
   -5.3788  -11.6796   16.7428 C   0  0  1  0  0  0  0  0  0  0  0  0
   -4.3737  -10.7710   17.2743 O   0  0  0  0  0  0  0  0  0  0  0  0
   -4.6489   -9.4717   17.7373 C   0  0  2  0  0  0  0  0  0  0  0  0
   -3.2851   -8.8223   18.1515 C   0  0  2  0  0  0  0  0  0  0  0  0
   -2.4375   -8.7777   17.0487 O   0  0  0  0  0  0  0  0  0  0  0  0
   -2.6186   -9.6091   19.3429 C   0  0  1  0  0  0  0  0  0  0  0  0
   -1.3135   -8.9918   19.7501 N   0  0  0  0  0  0  0  0  0  0  0  0
   -3.6325   -9.6266   20.5549 C   0  0  2  0  0  0  0  0  0  0  0  0
   -3.0786  -10.3232   21.6730 O   0  0  0  0  0  0  0  0  0  0  0  0
   -4.9697  -10.2875   20.0776 C   0  0  2  0  0  0  0  0  0  0  0  0
   -5.5472   -9.5477   18.9032 O   0  0  0  0  0  0  0  0  0  0  0  0
   -5.9989  -10.3125   21.1702 C   0  0  0  0  0  0  0  0  0  0  0  0
   -7.1318  -11.1158   20.8015 O   0  0  0  0  0  0  0  0  0  0  0  0
   -7.5911   -8.5913   13.9816 O   0  0  0  0  0  0  0  0  0  0  0  0
  -10.0844   -7.4256   13.1680 O   0  0  0  0  0  0  0  0  0  0  0  0
   -4.0781  -13.9038   22.3417 N   0  0  0  0  0  0  0  0  0  0  0  0
   -4.2413  -14.0649   18.2586 C   0  0  0  0  0  0  0  0  0  0  0  0
   -4.2162  -14.4468   17.0938 O   0  0  0  0  0  0  0  0  0  0  0  0
   -3.3272  -14.6352   19.3675 C   0  0  1  0  0  0  0  0  0  0  0  0
   -4.1667  -15.4318   20.3867 C   0  0  0  0  0  0  0  0  0  0  0  0
   -4.9563  -14.5952   21.4001 C   0  0  0  0  0  0  0  0  0  0  0  0
   -2.3168  -15.4737   18.7631 O   0  0  0  0  0  0  0  0  0  0  0  0
  1  2  1  1  0  0  0
  1  3  1  0  0  0  0
  1  8  1  0  0  0  0
  3  4  1  0  0  0  0
  3 32  1  1  0  0  0
  4  5  1  0  0  0  0
  4 33  1  6  0  0  0
  5  6  1  1  0  0  0
  5  7  1  0  0  0  0
  7  8  1  0  0  0  0
  7  9  1  6  0  0  0
  9 10  1  0  0  0  0
 11 12  1  6  0  0  0
 11 13  1  0  0  0  0
 11 19  1  0  0  0  0
 12 35  1  0  0  0  0
 13 14  1  0  0  0  0
 14 15  1  6  0  0  0
 14 16  1  0  0  0  0
 16  2  1  1  0  0  0
 16 17  1  0  0  0  0
 17 18  1  6  0  0  0
 17 19  1  0  0  0  0
 19 20  1  1  0  0  0
 21 20  1  1  0  0  0
 21 22  1  0  0  0  0
 21 29  1  0  0  0  0
 22 23  1  6  0  0  0
 22 24  1  0  0  0  0
 24 25  1  1  0  0  0
 24 26  1  0  0  0  0
 26 27  1  1  0  0  0
 26 28  1  0  0  0  0
 28 29  1  0  0  0  0
 28 30  1  1  0  0  0
 30 31  1  0  0  0  0
 34 39  1  0  0  0  0
 35 36  2  0  0  0  0
 37 35  1  6  0  0  0
 37 38  1  0  0  0  0
 37 40  1  0  0  0  0
 38 39  1  0  0  0  0
M  END
>  <CHROM.1>
-123.13236628,178.05817096,64.92128751,-157.68081762,-82.17272340,-177.26417987
-170.18695470,67.67911123,-77.64950098,-68.29275347,-6.42138737,-11.28278684
16.82767490,2.76971717,-0.78622626,-0.27382706

>  <Name>
2g5q_lig

>  <RI>
224

>  <Rbt.Current_Directory>
/home/itssahil/PROJECTS/Mol_Feturizer/New_Systems/rnas/2g5q

>  <Rbt.Executable>
rbdock ($Id: //depot/dev/client3/rdock/2013.1/src/exe/rbdock.cxx#4 $)

>  <Rbt.Library>
libRbt.so (2013.1, Build901 2013/11/27)

>  <Rbt.Parameter_File>
/export/apps/rDock/src/rDock_2013.1_src/data/scripts/dock_solv.prm

>  <Rbt.Receptor>
prm/pocket_docking_8.prm

>  <SCORE>
-13.3907

>  <SCORE.INTER>
-9.73716

>  <SCORE.INTER.CONST>
1

>  <SCORE.INTER.POLAR>
-1.79981

>  <SCORE.INTER.ROT>
10

>  <SCORE.INTER.SOLV>
12.6303

>  <SCORE.INTER.VDW>
-14.9688

>  <SCORE.INTER.norm>
-0.243429

>  <SCORE.INTRA>
-3.65352

>  <SCORE.INTRA.DIHEDRAL>
-8.49526

>  <SCORE.INTRA.DIHEDRAL.0>
22.5778

>  <SCORE.INTRA.POLAR>
0

>  <SCORE.INTRA.POLAR.0>
0

>  <SCORE.INTRA.REPUL>
0

>  <SCORE.INTRA.REPUL.0>
0

>  <SCORE.INTRA.SOLV>
2.32885

>  <SCORE.INTRA.SOLV.lig_0>
-102.332

>  <SCORE.INTRA.VDW>
-0.570319

>  <SCORE.INTRA.VDW.0>
-5.08747

>  <SCORE.INTRA.norm>
-0.091338

>  <SCORE.RESTR>
0

>  <SCORE.RESTR.CAVITY>
0

>  <SCORE.RESTR.norm>
0

>  <SCORE.SYSTEM>
0

>  <SCORE.SYSTEM.CONST>
0

>  <SCORE.SYSTEM.DIHEDRAL>
0

>  <SCORE.SYSTEM.SOLV>
0

>  <SCORE.SYSTEM.norm>
0

>  <SCORE.heavy>
40

>  <SCORE.norm>
-0.334767

>  <RMSD>
11.518

$$$$
2g5q_lig
 OpenBabel11021811433D
libRbt.so/2013.1/901 2013/11/27
 40 42  0  0  0  0  0  0  0  0999 V2000
   10.6311  -10.0273    8.8806 C   0  0  2  0  0  0  0  0  0  0  0  0
    9.2852   -9.7059    8.6070 O   0  0  0  0  0  0  0  0  0  0  0  0
   11.1840  -10.9045    7.7189 C   0  0  1  0  0  0  0  0  0  0  0  0
   10.4903  -12.3006    7.6631 C   0  0  2  0  0  0  0  0  0  0  0  0
   10.7425  -13.0099    9.0189 C   0  0  2  0  0  0  0  0  0  0  0  0
   10.1369  -14.3127    8.9987 O   0  0  0  0  0  0  0  0  0  0  0  0
   10.1287  -12.1135   10.1695 C   0  0  2  0  0  0  0  0  0  0  0  0
   10.7680  -10.7666   10.1631 O   0  0  0  0  0  0  0  0  0  0  0  0
   10.3331  -12.7126   11.5569 C   0  0  0  0  0  0  0  0  0  0  0  0
   10.8035  -14.1326   11.4919 N   0  0  0  0  0  0  0  0  0  0  0  0
    5.3106   -9.7093   10.4180 C   0  0  2  0  0  0  0  0  0  0  0  0
    4.2319   -9.9016   11.3799 N   0  0  0  0  0  0  0  0  0  0  0  0
    5.9892  -11.0999   10.0694 C   0  0  0  0  0  0  0  0  0  0  0  0
    7.1538  -10.8970    9.0220 C   0  0  2  0  0  0  0  0  0  0  0  0
    7.7744  -12.2094    8.6952 N   0  0  0  0  0  0  0  0  0  0  0  0
    8.2190   -9.8864    9.6069 C   0  0  2  0  0  0  0  0  0  0  0  0
    7.5062   -8.5174    9.9453 C   0  0  2  0  0  0  0  0  0  0  0  0
    8.4712   -7.6062   10.4805 O   0  0  0  0  0  0  0  0  0  0  0  0
    6.3586   -8.7401   11.0029 C   0  0  1  0  0  0  0  0  0  0  0  0
    5.6958   -7.4797   11.3035 O   0  0  0  0  0  0  0  0  0  0  0  0
    5.1422   -7.1570   12.5555 C   0  0  2  0  0  0  0  0  0  0  0  0
    5.3341   -5.6175   12.7709 C   0  0  2  0  0  0  0  0  0  0  0  0
    4.6840   -4.9215   11.7563 O   0  0  0  0  0  0  0  0  0  0  0  0
    6.8620   -5.2367   12.8259 C   0  0  1  0  0  0  0  0  0  0  0  0
    7.0564   -3.7643   13.0366 N   0  0  0  0  0  0  0  0  0  0  0  0
    7.5380   -6.0635   13.9907 C   0  0  2  0  0  0  0  0  0  0  0  0
    8.9292   -5.7539   14.0949 O   0  0  0  0  0  0  0  0  0  0  0  0
    7.3129   -7.5888   13.7160 C   0  0  2  0  0  0  0  0  0  0  0  0
    5.8474   -7.9067   13.6103 O   0  0  0  0  0  0  0  0  0  0  0  0
    7.9026   -8.4424   14.8010 C   0  0  0  0  0  0  0  0  0  0  0  0
    7.4842   -7.9962   16.1013 O   0  0  0  0  0  0  0  0  0  0  0  0
   10.9994  -10.1721    6.4589 O   0  0  0  0  0  0  0  0  0  0  0  0
   11.0252  -13.0370    6.6292 O   0  0  0  0  0  0  0  0  0  0  0  0
    2.6346  -13.5240   11.2546 N   0  0  0  0  0  0  0  0  0  0  0  0
    3.0793  -10.6409   11.1535 C   0  0  0  0  0  0  0  0  0  0  0  0
    2.8328  -11.2174   10.0998 O   0  0  0  0  0  0  0  0  0  0  0  0
    2.1302  -10.6428   12.3740 C   0  0  1  0  0  0  0  0  0  0  0  0
    2.2743  -11.9655   13.1535 C   0  0  0  0  0  0  0  0  0  0  0  0
    1.8043  -13.2270   12.4200 C   0  0  0  0  0  0  0  0  0  0  0  0
    2.4410   -9.5104   13.2168 O   0  0  0  0  0  0  0  0  0  0  0  0
  1  2  1  6  0  0  0
  1  3  1  0  0  0  0
  1  8  1  0  0  0  0
  3  4  1  0  0  0  0
  3 32  1  6  0  0  0
  4  5  1  0  0  0  0
  4 33  1  6  0  0  0
  5  6  1  6  0  0  0
  5  7  1  0  0  0  0
  7  8  1  0  0  0  0
  7  9  1  1  0  0  0
  9 10  1  0  0  0  0
 11 12  1  1  0  0  0
 11 13  1  0  0  0  0
 11 19  1  0  0  0  0
 12 35  1  0  0  0  0
 13 14  1  0  0  0  0
 14 15  1  1  0  0  0
 14 16  1  0  0  0  0
 16  2  1  6  0  0  0
 16 17  1  0  0  0  0
 17 18  1  1  0  0  0
 17 19  1  0  0  0  0
 19 20  1  6  0  0  0
 21 20  1  6  0  0  0
 21 22  1  0  0  0  0
 21 29  1  0  0  0  0
 22 23  1  6  0  0  0
 22 24  1  0  0  0  0
 24 25  1  1  0  0  0
 24 26  1  0  0  0  0
 26 27  1  6  0  0  0
 26 28  1  0  0  0  0
 28 29  1  0  0  0  0
 28 30  1  1  0  0  0
 30 31  1  0  0  0  0
 34 39  1  0  0  0  0
 35 36  2  0  0  0  0
 37 35  1  6  0  0  0
 37 38  1  0  0  0  0
 37 40  1  0  0  0  0
 38 39  1  0  0  0  0
M  END
>  <CHROM.1>
130.72493191,-12.06446361,-63.06800434,-119.98420751,92.80505784,146.13567560
50.20743248,-101.02147111,-66.47165576,66.06172964,7.13427964,-9.74837064
11.05652287,-0.80293712,0.33663711,0.48473198

>  <Name>
2g5q_lig

>  <RI>
0

>  <Rbt.Current_Directory>
/home/itssahil/PROJECTS/Mol_Feturizer/New_Systems/rnas/2g5q

>  <Rbt.Executable>
rbdock ($Id: //depot/dev/client3/rdock/2013.1/src/exe/rbdock.cxx#4 $)

>  <Rbt.Library>
libRbt.so (2013.1, Build901 2013/11/27)

>  <Rbt.Parameter_File>
/export/apps/rDock/src/rDock_2013.1_src/data/scripts/dock_solv.prm

>  <Rbt.Receptor>
prm/blind_docking_20.prm

>  <SCORE>
16.7276

>  <SCORE.INTER>
-4.85073

>  <SCORE.INTER.CONST>
1

>  <SCORE.INTER.POLAR>
-1.27014

>  <SCORE.INTER.ROT>
10

>  <SCORE.INTER.SOLV>
26.2752

>  <SCORE.INTER.VDW>
-18.0251

>  <SCORE.INTER.norm>
-0.121268

>  <SCORE.INTRA>
10.4

>  <SCORE.INTRA.DIHEDRAL>
7.17429

>  <SCORE.INTRA.DIHEDRAL.0>
22.5778

>  <SCORE.INTRA.POLAR>
0

>  <SCORE.INTRA.POLAR.0>
0

>  <SCORE.INTRA.REPUL>
0.0466184

>  <SCORE.INTRA.REPUL.0>
0

>  <SCORE.INTRA.SOLV>
10.1612

>  <SCORE.INTRA.SOLV.lig_0>
-102.332

>  <SCORE.INTRA.VDW>
1.49916

>  <SCORE.INTRA.VDW.0>
-5.08747

>  <SCORE.INTRA.norm>
0.26

>  <SCORE.RESTR>
11.1783

>  <SCORE.RESTR.CAVITY>
11.1783

>  <SCORE.RESTR.norm>
0.279459

>  <SCORE.SYSTEM>
0

>  <SCORE.SYSTEM.CONST>
0

>  <SCORE.SYSTEM.DIHEDRAL>
0

>  <SCORE.SYSTEM.SOLV>
0

>  <SCORE.SYSTEM.norm>
0

>  <SCORE.heavy>
40

>  <SCORE.norm>
0.418191

>  <RMSD>
11.523

$$$$
2g5q_lig
 OpenBabel11021811433D
libRbt.so/2013.1/901 2013/11/27
 40 42  0  0  0  0  0  0  0  0999 V2000
   10.6242  -10.0431    8.8537 C   0  0  2  0  0  0  0  0  0  0  0  0
    9.2673   -9.7694    8.5826 O   0  0  0  0  0  0  0  0  0  0  0  0
   11.2127  -10.8775    7.6781 C   0  0  1  0  0  0  0  0  0  0  0  0
   10.5739  -12.2984    7.5962 C   0  0  2  0  0  0  0  0  0  0  0  0
   10.8511  -13.0211    8.9399 C   0  0  2  0  0  0  0  0  0  0  0  0
   10.2966  -14.3459    8.8954 O   0  0  0  0  0  0  0  0  0  0  0  0
   10.2011  -12.1696   10.1046 C   0  0  2  0  0  0  0  0  0  0  0  0
   10.7875  -10.7990   10.1234 O   0  0  0  0  0  0  0  0  0  0  0  0
   10.4261  -12.7848   11.4818 C   0  0  0  0  0  0  0  0  0  0  0  0
    9.8458  -14.1612   11.5838 N   0  0  0  0  0  0  0  0  0  0  0  0
    5.3255   -9.7220   10.4633 C   0  0  2  0  0  0  0  0  0  0  0  0
    4.2627   -9.8950   11.4464 N   0  0  0  0  0  0  0  0  0  0  0  0
    5.9879  -11.1216   10.1195 C   0  0  0  0  0  0  0  0  0  0  0  0
    7.1352  -10.9398    9.0494 C   0  0  2  0  0  0  0  0  0  0  0  0
    7.7404  -12.2604    8.7274 N   0  0  0  0  0  0  0  0  0  0  0  0
    8.2178   -9.9302    9.6032 C   0  0  2  0  0  0  0  0  0  0  0  0
    7.5209   -8.5520    9.9378 C   0  0  2  0  0  0  0  0  0  0  0  0
    8.5017   -7.6417   10.4450 O   0  0  0  0  0  0  0  0  0  0  0  0
    6.3907   -8.7537   11.0180 C   0  0  1  0  0  0  0  0  0  0  0  0
    5.7424   -7.4850   11.3152 O   0  0  0  0  0  0  0  0  0  0  0  0
    5.1814   -7.1574   12.5626 C   0  0  2  0  0  0  0  0  0  0  0  0
    5.3335   -5.6103   12.7541 C   0  0  2  0  0  0  0  0  0  0  0  0
    4.6650   -4.9472   11.7295 O   0  0  0  0  0  0  0  0  0  0  0  0
    6.8511   -5.1893   12.8016 C   0  0  1  0  0  0  0  0  0  0  0  0
    7.0074   -3.7092   12.9894 N   0  0  0  0  0  0  0  0  0  0  0  0
    7.5490   -5.9802   13.9784 C   0  0  2  0  0  0  0  0  0  0  0  0
    8.9318   -5.6331   14.0763 O   0  0  0  0  0  0  0  0  0  0  0  0
    7.3633   -7.5148   13.7274 C   0  0  2  0  0  0  0  0  0  0  0  0
    5.9065   -7.8722   13.6282 O   0  0  0  0  0  0  0  0  0  0  0  0
    7.9755   -8.3360   14.8249 C   0  0  0  0  0  0  0  0  0  0  0  0
    7.4958   -7.9234   16.1150 O   0  0  0  0  0  0  0  0  0  0  0  0
   11.0020  -10.1307    6.4307 O   0  0  0  0  0  0  0  0  0  0  0  0
   11.1388  -12.9951    6.5508 O   0  0  0  0  0  0  0  0  0  0  0  0
    2.5735  -13.5224   11.3025 N   0  0  0  0  0  0  0  0  0  0  0  0
    3.0963  -10.6198   11.2456 C   0  0  0  0  0  0  0  0  0  0  0  0
    2.8222  -11.1981   10.1998 O   0  0  0  0  0  0  0  0  0  0  0  0
    2.1705  -10.6027   12.4837 C   0  0  1  0  0  0  0  0  0  0  0  0
    1.1922  -11.7936   12.4285 C   0  0  0  0  0  0  0  0  0  0  0  0
    1.8295  -13.1853   12.5144 C   0  0  0  0  0  0  0  0  0  0  0  0
    2.9796  -10.6544   13.6804 O   0  0  0  0  0  0  0  0  0  0  0  0
  1  2  1  6  0  0  0
  1  3  1  0  0  0  0
  1  8  1  0  0  0  0
  3  4  1  0  0  0  0
  3 32  1  6  0  0  0
  4  5  1  0  0  0  0
  4 33  1  6  0  0  0
  5  6  1  6  0  0  0
  5  7  1  0  0  0  0
  7  8  1  0  0  0  0
  7  9  1  1  0  0  0
  9 10  1  0  0  0  0
 11 12  1  1  0  0  0
 11 13  1  0  0  0  0
 11 19  1  0  0  0  0
 12 35  1  0  0  0  0
 13 14  1  0  0  0  0
 14 15  1  1  0  0  0
 14 16  1  0  0  0  0
 16  2  1  6  0  0  0
 16 17  1  0  0  0  0
 17 18  1  1  0  0  0
 17 19  1  0  0  0  0
 19 20  1  6  0  0  0
 21 20  1  6  0  0  0
 21 22  1  0  0  0  0
 21 29  1  0  0  0  0
 22 23  1  6  0  0  0
 22 24  1  0  0  0  0
 24 25  1  1  0  0  0
 24 26  1  0  0  0  0
 26 27  1  6  0  0  0
 26 28  1  0  0  0  0
 28 29  1  0  0  0  0
 28 30  1  1  0  0  0
 30 31  1  0  0  0  0
 34 39  1  0  0  0  0
 35 36  2  0  0  0  0
 37 35  1  6  0  0  0
 37 38  1  0  0  0  0
 37 40  1  0  0  0  0
 38 39  1  0  0  0  0
M  END
>  <CHROM.1>
134.56461742,-59.75839768,-63.59485676,-122.75442646,91.01322302,148.68927398
53.05186624,-159.02635655,64.56689015,-70.53308300,7.12309691,-9.76999639
11.05177822,-0.79177328,0.35665287,0.48279233

>  <Name>
2g5q_lig

>  <RI>
0

>  <Rbt.Current_Directory>
/home/itssahil/PROJECTS/Mol_Feturizer/New_Systems/rnas/2g5q

>  <Rbt.Executable>
rbdock ($Id: //depot/dev/client3/rdock/2013.1/src/exe/rbdock.cxx#4 $)

>  <Rbt.Library>
libRbt.so (2013.1, Build901 2013/11/27)

>  <Rbt.Parameter_File>
/export/apps/rDock/src/rDock_2013.1_src/data/scripts/dock_solv.prm

>  <Rbt.Receptor>
prm/blind_docking_20.prm

>  <SCORE>
13.57

>  <SCORE.INTER>
-3.89876

>  <SCORE.INTER.CONST>
1

>  <SCORE.INTER.POLAR>
-0.502602

>  <SCORE.INTER.ROT>
10

>  <SCORE.INTER.SOLV>
23.789

>  <SCORE.INTER.VDW>
-19.1201

>  <SCORE.INTER.norm>
-0.0974689

>  <SCORE.INTRA>
5.92182

>  <SCORE.INTRA.DIHEDRAL>
0.365136

>  <SCORE.INTRA.DIHEDRAL.0>
22.5778

>  <SCORE.INTRA.POLAR>
0

>  <SCORE.INTRA.POLAR.0>
0

>  <SCORE.INTRA.REPUL>
0

>  <SCORE.INTRA.REPUL.0>
0

>  <SCORE.INTRA.SOLV>
9.71209

>  <SCORE.INTRA.SOLV.lig_0>
-102.332

>  <SCORE.INTRA.VDW>
0.883206

>  <SCORE.INTRA.VDW.0>
-5.08747

>  <SCORE.INTRA.norm>
0.148045

>  <SCORE.RESTR>
11.5469

>  <SCORE.RESTR.CAVITY>
11.5469

>  <SCORE.RESTR.norm>
0.288672

>  <SCORE.SYSTEM>
0

>  <SCORE.SYSTEM.CONST>
0

>  <SCORE.SYSTEM.DIHEDRAL>
0

>  <SCORE.SYSTEM.SOLV>
0

>  <SCORE.SYSTEM.norm>
0

>  <SCORE.heavy>
40

>  <SCORE.norm>
0.339249

>  <RMSD>
11.533

$$$$
2g5q_lig
 OpenBabel11021811433D
libRbt.so/2013.1/901 2013/11/27
 40 42  0  0  0  0  0  0  0  0999 V2000
   10.7609  -10.0153    8.7543 C   0  0  2  0  0  0  0  0  0  0  0  0
    9.4089   -9.6759    8.5389 O   0  0  0  0  0  0  0  0  0  0  0  0
   11.2548  -10.8898    7.5642 C   0  0  1  0  0  0  0  0  0  0  0  0
   10.5425  -12.2771    7.5268 C   0  0  2  0  0  0  0  0  0  0  0  0
   10.8417  -13.0001    8.8657 C   0  0  2  0  0  0  0  0  0  0  0  0
   10.2200  -14.2954    8.8609 O   0  0  0  0  0  0  0  0  0  0  0  0
   10.2869  -12.1056   10.0473 C   0  0  2  0  0  0  0  0  0  0  0  0
   10.9416  -10.7663   10.0245 O   0  0  0  0  0  0  0  0  0  0  0  0
   10.5409  -12.7181   11.4206 C   0  0  0  0  0  0  0  0  0  0  0  0
    9.7010  -13.9348   11.6571 N   0  0  0  0  0  0  0  0  0  0  0  0
    5.4607   -9.9714   10.3832 C   0  0  2  0  0  0  0  0  0  0  0  0
    4.4073  -10.2421   11.3541 N   0  0  0  0  0  0  0  0  0  0  0  0
    6.2373  -11.3084   10.0293 C   0  0  0  0  0  0  0  0  0  0  0  0
    7.3750  -11.0209    8.9721 C   0  0  2  0  0  0  0  0  0  0  0  0
    8.0881  -12.2841    8.6405 N   0  0  0  0  0  0  0  0  0  0  0  0
    8.3674   -9.9338    9.5478 C   0  0  2  0  0  0  0  0  0  0  0  0
    7.5582   -8.6209    9.8918 C   0  0  2  0  0  0  0  0  0  0  0  0
    8.4576   -7.6404   10.4187 O   0  0  0  0  0  0  0  0  0  0  0  0
    6.4391   -8.9269   10.9590 C   0  0  1  0  0  0  0  0  0  0  0  0
    5.6874   -7.7187   11.2648 O   0  0  0  0  0  0  0  0  0  0  0  0
    5.0423   -7.4786   12.4914 C   0  0  2  0  0  0  0  0  0  0  0  0
    5.1142   -5.9383   12.7660 C   0  0  2  0  0  0  0  0  0  0  0  0
    4.4762   -5.2523   11.7371 O   0  0  0  0  0  0  0  0  0  0  0  0
    6.6064   -5.4573   12.9234 C   0  0  1  0  0  0  0  0  0  0  0  0
    6.6855   -3.9834   13.1914 N   0  0  0  0  0  0  0  0  0  0  0  0
    7.2707   -6.2772   14.0997 C   0  0  2  0  0  0  0  0  0  0  0  0
    8.6288   -5.8781   14.2958 O   0  0  0  0  0  0  0  0  0  0  0  0
    7.1682   -7.8035   13.7643 C   0  0  2  0  0  0  0  0  0  0  0  0
    5.7368   -8.2158   13.5621 O   0  0  0  0  0  0  0  0  0  0  0  0
    7.7530   -8.6532   14.8550 C   0  0  0  0  0  0  0  0  0  0  0  0
    9.1134   -8.2827   15.1324 O   0  0  0  0  0  0  0  0  0  0  0  0
   11.0273  -10.1453    6.3184 O   0  0  0  0  0  0  0  0  0  0  0  0
   11.0254  -13.0116    6.4662 O   0  0  0  0  0  0  0  0  0  0  0  0
    3.5040  -13.0056   12.1003 N   0  0  0  0  0  0  0  0  0  0  0  0
    3.1317   -9.6960   11.3251 C   0  0  0  0  0  0  0  0  0  0  0  0
    2.7452   -8.9067   10.4701 O   0  0  0  0  0  0  0  0  0  0  0  0
    2.2552  -10.1808   12.5028 C   0  0  1  0  0  0  0  0  0  0  0  0
    1.5366  -11.4912   12.1224 C   0  0  0  0  0  0  0  0  0  0  0  0
    2.3701  -12.5028   11.3273 C   0  0  0  0  0  0  0  0  0  0  0  0
    3.0900  -10.3692   13.6677 O   0  0  0  0  0  0  0  0  0  0  0  0
  1  2  1  6  0  0  0
  1  3  1  0  0  0  0
  1  8  1  0  0  0  0
  3  4  1  0  0  0  0
  3 32  1  6  0  0  0
  4  5  1  0  0  0  0
  4 33  1  6  0  0  0
  5  6  1  6  0  0  0
  5  7  1  0  0  0  0
  7  8  1  0  0  0  0
  7  9  1  1  0  0  0
  9 10  1  0  0  0  0
 11 12  1  1  0  0  0
 11 13  1  0  0  0  0
 11 19  1  0  0  0  0
 12 35  1  0  0  0  0
 13 14  1  0  0  0  0
 14 15  1  1  0  0  0
 14 16  1  0  0  0  0
 16  2  1  6  0  0  0
 16 17  1  0  0  0  0
 17 18  1  1  0  0  0
 17 19  1  0  0  0  0
 19 20  1  6  0  0  0
 21 20  1  6  0  0  0
 21 22  1  0  0  0  0
 21 29  1  0  0  0  0
 22 23  1  6  0  0  0
 22 24  1  0  0  0  0
 24 25  1  1  0  0  0
 24 26  1  0  0  0  0
 26 27  1  6  0  0  0
 26 28  1  0  0  0  0
 28 29  1  0  0  0  0
 28 30  1  1  0  0  0
 30 31  1  0  0  0  0
 34 39  1  0  0  0  0
 35 36  2  0  0  0  0
 37 35  1  6  0  0  0
 37 38  1  0  0  0  0
 37 40  1  0  0  0  0
 38 39  1  0  0  0  0
M  END
>  <CHROM.1>
126.60074482,-70.17252944,-138.89892558,-113.81439902,88.13137913,146.89662356
-55.58275085,-87.90524415,40.24876269,64.24599859,7.19787224,-9.73489523
10.99581689,-0.78176573,0.29348455,0.52329852

>  <Name>
2g5q_lig

>  <RI>
0

>  <Rbt.Current_Directory>
/home/itssahil/PROJECTS/Mol_Feturizer/New_Systems/rnas/2g5q

>  <Rbt.Executable>
rbdock ($Id: //depot/dev/client3/rdock/2013.1/src/exe/rbdock.cxx#4 $)

>  <Rbt.Library>
libRbt.so (2013.1, Build901 2013/11/27)

>  <Rbt.Parameter_File>
/export/apps/rDock/src/rDock_2013.1_src/data/scripts/dock_solv.prm

>  <Rbt.Receptor>
prm/blind_docking_20.prm

>  <SCORE>
22.4336

>  <SCORE.INTER>
2.73108

>  <SCORE.INTER.CONST>
1

>  <SCORE.INTER.POLAR>
-0.468132

>  <SCORE.INTER.ROT>
10

>  <SCORE.INTER.SOLV>
20.3424

>  <SCORE.INTER.VDW>
-13.6663

>  <SCORE.INTER.norm>
0.0682769

>  <SCORE.INTRA>
8.9911

>  <SCORE.INTRA.DIHEDRAL>
3.05765

>  <SCORE.INTRA.DIHEDRAL.0>
22.5778

>  <SCORE.INTRA.POLAR>
0

>  <SCORE.INTRA.POLAR.0>
0

>  <SCORE.INTRA.REPUL>
0

>  <SCORE.INTRA.REPUL.0>
0

>  <SCORE.INTRA.SOLV>
12.1836

>  <SCORE.INTRA.SOLV.lig_0>
-102.332

>  <SCORE.INTRA.VDW>
1.37047

>  <SCORE.INTRA.VDW.0>
-5.08747

>  <SCORE.INTRA.norm>
0.224778

>  <SCORE.RESTR>
10.7114

>  <SCORE.RESTR.CAVITY>
10.7114

>  <SCORE.RESTR.norm>
0.267784

>  <SCORE.SYSTEM>
0

>  <SCORE.SYSTEM.CONST>
0

>  <SCORE.SYSTEM.DIHEDRAL>
0

>  <SCORE.SYSTEM.SOLV>
0

>  <SCORE.SYSTEM.norm>
0

>  <SCORE.heavy>
40

>  <SCORE.norm>
0.560839

>  <RMSD>
11.560

$$$$
2g5q_lig
 OpenBabel11021811433D
libRbt.so/2013.1/901 2013/11/27
 40 42  0  0  0  0  0  0  0  0999 V2000
    3.0374   -8.1666   20.0883 C   0  0  2  0  0  0  0  0  0  0  0  0
    2.7040   -6.9055   20.6247 O   0  0  0  0  0  0  0  0  0  0  0  0
    3.4248   -7.9887   18.5906 C   0  0  1  0  0  0  0  0  0  0  0  0
    2.2063   -7.5452   17.7232 C   0  0  2  0  0  0  0  0  0  0  0  0
    1.1102   -8.6344   17.8534 C   0  0  2  0  0  0  0  0  0  0  0  0
   -0.0234   -8.2728   17.0479 O   0  0  0  0  0  0  0  0  0  0  0  0
    0.7100   -8.7557   19.3795 C   0  0  2  0  0  0  0  0  0  0  0  0
    1.9043   -9.1234   20.1927 O   0  0  0  0  0  0  0  0  0  0  0  0
   -0.3585   -9.8151   19.6271 C   0  0  0  0  0  0  0  0  0  0  0  0
   -0.8510   -9.7967   21.0409 N   0  0  0  0  0  0  0  0  0  0  0  0
    4.7892   -3.9770   23.1052 C   0  0  2  0  0  0  0  0  0  0  0  0
    5.8026   -3.0436   23.5822 N   0  0  0  0  0  0  0  0  0  0  0  0
    5.4062   -5.4313   22.9635 C   0  0  0  0  0  0  0  0  0  0  0  0
    4.3097   -6.4474   22.4537 C   0  0  2  0  0  0  0  0  0  0  0  0
    4.8978   -7.8090   22.3358 N   0  0  0  0  0  0  0  0  0  0  0  0
    3.7311   -5.9485   21.0701 C   0  0  2  0  0  0  0  0  0  0  0  0
    3.1306   -4.4980   21.2499 C   0  0  2  0  0  0  0  0  0  0  0  0
    2.6131   -4.0460   19.9946 O   0  0  0  0  0  0  0  0  0  0  0  0
    4.2442   -3.4977   21.7439 C   0  0  1  0  0  0  0  0  0  0  0  0
    3.6856   -2.1654   21.9204 O   0  0  0  0  0  0  0  0  0  0  0  0
    2.8175   -1.5447   21.0043 C   0  0  2  0  0  0  0  0  0  0  0  0
    2.8703   -0.0034   21.2777 C   0  0  2  0  0  0  0  0  0  0  0  0
    4.1724    0.4554   21.1033 O   0  0  0  0  0  0  0  0  0  0  0  0
    2.3419    0.3366   22.7227 C   0  0  1  0  0  0  0  0  0  0  0  0
    2.3842    1.8116   22.9926 N   0  0  0  0  0  0  0  0  0  0  0  0
    0.8669   -0.2151   22.8544 C   0  0  2  0  0  0  0  0  0  0  0  0
    0.3291    0.0711   24.1470 O   0  0  0  0  0  0  0  0  0  0  0  0
    0.8831   -1.7554   22.5723 C   0  0  2  0  0  0  0  0  0  0  0  0
    1.4477   -2.0479   21.2101 O   0  0  0  0  0  0  0  0  0  0  0  0
   -0.4936   -2.3494   22.6486 C   0  0  0  0  0  0  0  0  0  0  0  0
   -0.4406   -3.7845   22.6978 O   0  0  0  0  0  0  0  0  0  0  0  0
    4.5160   -7.0085   18.5091 O   0  0  0  0  0  0  0  0  0  0  0  0
    2.6016   -7.4163   16.4099 O   0  0  0  0  0  0  0  0  0  0  0  0
    6.4818    0.6386   23.7076 N   0  0  0  0  0  0  0  0  0  0  0  0
    6.5218   -3.1763   24.7618 C   0  0  0  0  0  0  0  0  0  0  0  0
    6.3771   -4.1042   25.5501 O   0  0  0  0  0  0  0  0  0  0  0  0
    7.5159   -2.0125   24.9809 C   0  0  1  0  0  0  0  0  0  0  0  0
    6.8056   -0.8352   25.6793 C   0  0  0  0  0  0  0  0  0  0  0  0
    5.8164   -0.0450   24.8148 C   0  0  0  0  0  0  0  0  0  0  0  0
    8.6306   -2.4848   25.7707 O   0  0  0  0  0  0  0  0  0  0  0  0
  1  2  1  6  0  0  0
  1  3  1  0  0  0  0
  1  8  1  0  0  0  0
  3  4  1  0  0  0  0
  3 32  1  1  0  0  0
  4  5  1  0  0  0  0
  4 33  1  6  0  0  0
  5  6  1  6  0  0  0
  5  7  1  0  0  0  0
  7  8  1  0  0  0  0
  7  9  1  6  0  0  0
  9 10  1  0  0  0  0
 11 12  1  6  0  0  0
 11 13  1  0  0  0  0
 11 19  1  0  0  0  0
 12 35  1  0  0  0  0
 13 14  1  0  0  0  0
 14 15  1  6  0  0  0
 14 16  1  0  0  0  0
 16  2  1  1  0  0  0
 16 17  1  0  0  0  0
 17 18  1  6  0  0  0
 17 19  1  0  0  0  0
 19 20  1  1  0  0  0
 21 20  1  1  0  0  0
 21 22  1  0  0  0  0
 21 29  1  0  0  0  0
 22 23  1  1  0  0  0
 22 24  1  0  0  0  0
 24 25  1  6  0  0  0
 24 26  1  0  0  0  0
 26 27  1  1  0  0  0
 26 28  1  0  0  0  0
 28 29  1  0  0  0  0
 28 30  1  6  0  0  0
 30 31  1  0  0  0  0
 34 39  1  0  0  0  0
 35 36  2  0  0  0  0
 37 35  1  1  0  0  0
 37 38  1  0  0  0  0
 37 40  1  0  0  0  0
 38 39  1  0  0  0  0
M  END
>  <CHROM.1>
-80.80943031,-172.67657410,-57.39871045,-75.37079573,-163.70255951,-159.79926153
-166.64132716,86.19879521,-72.37981480,-64.55639547,3.20581064,-4.18901625
21.68012437,-1.96916725,-0.47136281,0.39238566

>  <Name>
2g5q_lig

>  <RI>
224

>  <Rbt.Current_Directory>
/home/itssahil/PROJECTS/Mol_Feturizer/New_Systems/rnas/2g5q

>  <Rbt.Executable>
rbdock ($Id: //depot/dev/client3/rdock/2013.1/src/exe/rbdock.cxx#4 $)

>  <Rbt.Library>
libRbt.so (2013.1, Build901 2013/11/27)

>  <Rbt.Parameter_File>
/export/apps/rDock/src/rDock_2013.1_src/data/scripts/dock_solv.prm

>  <Rbt.Receptor>
prm/pocket_docking_8.prm

>  <SCORE>
-18.0175

>  <SCORE.INTER>
-13.8987

>  <SCORE.INTER.CONST>
1

>  <SCORE.INTER.POLAR>
-0.969286

>  <SCORE.INTER.ROT>
10

>  <SCORE.INTER.SOLV>
17.7314

>  <SCORE.INTER.VDW>
-22.212

>  <SCORE.INTER.norm>
-0.347467

>  <SCORE.INTRA>
-4.11878

>  <SCORE.INTRA.DIHEDRAL>
-13.5551

>  <SCORE.INTRA.DIHEDRAL.0>
22.5778

>  <SCORE.INTRA.POLAR>
0

>  <SCORE.INTRA.POLAR.0>
0

>  <SCORE.INTRA.REPUL>
0

>  <SCORE.INTRA.REPUL.0>
0

>  <SCORE.INTRA.SOLV>
3.16949

>  <SCORE.INTRA.SOLV.lig_0>
-102.332

>  <SCORE.INTRA.VDW>
1.07404

>  <SCORE.INTRA.VDW.0>
-5.08747

>  <SCORE.INTRA.norm>
-0.10297

>  <SCORE.RESTR>
0

>  <SCORE.RESTR.CAVITY>
0

>  <SCORE.RESTR.norm>
0

>  <SCORE.SYSTEM>
0

>  <SCORE.SYSTEM.CONST>
0

>  <SCORE.SYSTEM.DIHEDRAL>
0

>  <SCORE.SYSTEM.SOLV>
0

>  <SCORE.SYSTEM.norm>
0

>  <SCORE.heavy>
40

>  <SCORE.norm>
-0.450437

>  <RMSD>
11.567

$$$$
2g5q_lig
 OpenBabel11021811433D
libRbt.so/2013.1/901 2013/11/27
 40 42  0  0  0  0  0  0  0  0999 V2000
    2.2057   -6.7393   18.5784 C   0  0  2  0  0  0  0  0  0  0  0  0
    2.6557   -7.1263   19.8579 O   0  0  0  0  0  0  0  0  0  0  0  0
    0.9121   -7.5369   18.2388 C   0  0  1  0  0  0  0  0  0  0  0  0
    1.1961   -9.0613   18.0689 C   0  0  2  0  0  0  0  0  0  0  0  0
    2.2277   -9.2266   16.9228 C   0  0  2  0  0  0  0  0  0  0  0  0
    2.4991  -10.6227   16.7192 O   0  0  0  0  0  0  0  0  0  0  0  0
    3.5427   -8.4422   17.3220 C   0  0  2  0  0  0  0  0  0  0  0  0
    3.2320   -6.9996   17.5348 O   0  0  0  0  0  0  0  0  0  0  0  0
    4.6272   -8.5259   16.2531 C   0  0  0  0  0  0  0  0  0  0  0  0
    4.0770   -8.3145   14.8768 N   0  0  0  0  0  0  0  0  0  0  0  0
    4.7294   -4.9698   23.0402 C   0  0  2  0  0  0  0  0  0  0  0  0
    5.7685   -4.2613   23.7778 N   0  0  0  0  0  0  0  0  0  0  0  0
    5.2222   -6.4297   22.6639 C   0  0  0  0  0  0  0  0  0  0  0  0
    4.0967   -7.2034   21.8707 C   0  0  2  0  0  0  0  0  0  0  0  0
    4.5669   -8.5743   21.5337 N   0  0  0  0  0  0  0  0  0  0  0  0
    3.7139   -6.3903   20.5706 C   0  0  2  0  0  0  0  0  0  0  0  0
    3.2330   -4.9432   20.9847 C   0  0  2  0  0  0  0  0  0  0  0  0
    2.8931   -4.2069   19.8056 O   0  0  0  0  0  0  0  0  0  0  0  0
    4.3757   -4.1837   21.7607 C   0  0  1  0  0  0  0  0  0  0  0  0
    3.9259   -2.8559   22.1517 O   0  0  0  0  0  0  0  0  0  0  0  0
    3.3680   -1.9176   21.2648 C   0  0  2  0  0  0  0  0  0  0  0  0
    3.6160   -0.4944   21.8699 C   0  0  2  0  0  0  0  0  0  0  0  0
    4.9839   -0.2803   22.0090 O   0  0  0  0  0  0  0  0  0  0  0  0
    2.8761   -0.3263   23.2508 C   0  0  1  0  0  0  0  0  0  0  0  0
    3.1039    1.0359   23.8365 N   0  0  0  0  0  0  0  0  0  0  0  0
    1.3343   -0.5875   23.0228 C   0  0  2  0  0  0  0  0  0  0  0  0
    0.6064   -0.4414   24.2439 O   0  0  0  0  0  0  0  0  0  0  0  0
    1.1547   -2.0220   22.4206 C   0  0  2  0  0  0  0  0  0  0  0  0
    1.9211   -2.1667   21.1355 O   0  0  0  0  0  0  0  0  0  0  0  0
   -0.2879   -2.3333   22.1458 C   0  0  0  0  0  0  0  0  0  0  0  0
   -1.0585   -2.3491   23.3586 O   0  0  0  0  0  0  0  0  0  0  0  0
   -0.0708   -7.2981   19.3043 O   0  0  0  0  0  0  0  0  0  0  0  0
    0.0237   -9.7139   17.7574 O   0  0  0  0  0  0  0  0  0  0  0  0
    7.8509    0.4081   25.0424 N   0  0  0  0  0  0  0  0  0  0  0  0
    5.8604   -4.1878   25.1607 C   0  0  0  0  0  0  0  0  0  0  0  0
    5.0610   -4.7127   25.9279 O   0  0  0  0  0  0  0  0  0  0  0  0
    7.0759   -3.3542   25.6279 C   0  0  1  0  0  0  0  0  0  0  0  0
    6.9166   -1.8885   25.1759 C   0  0  0  0  0  0  0  0  0  0  0  0
    8.0964   -0.9613   25.4901 C   0  0  0  0  0  0  0  0  0  0  0  0
    7.1850   -3.4419   27.0665 O   0  0  0  0  0  0  0  0  0  0  0  0
  1  2  1  1  0  0  0
  1  3  1  0  0  0  0
  1  8  1  0  0  0  0
  3  4  1  0  0  0  0
  3 32  1  1  0  0  0
  4  5  1  0  0  0  0
  4 33  1  6  0  0  0
  5  6  1  1  0  0  0
  5  7  1  0  0  0  0
  7  8  1  0  0  0  0
  7  9  1  6  0  0  0
  9 10  1  0  0  0  0
 11 12  1  6  0  0  0
 11 13  1  0  0  0  0
 11 19  1  0  0  0  0
 12 35  1  0  0  0  0
 13 14  1  0  0  0  0
 14 15  1  6  0  0  0
 14 16  1  0  0  0  0
 16  2  1  1  0  0  0
 16 17  1  0  0  0  0
 17 18  1  6  0  0  0
 17 19  1  0  0  0  0
 19 20  1  1  0  0  0
 21 20  1  1  0  0  0
 21 22  1  0  0  0  0
 21 29  1  0  0  0  0
 22 23  1  1  0  0  0
 22 24  1  0  0  0  0
 24 25  1  6  0  0  0
 24 26  1  0  0  0  0
 26 27  1  1  0  0  0
 26 28  1  0  0  0  0
 28 29  1  0  0  0  0
 28 30  1  6  0  0  0
 30 31  1  0  0  0  0
 34 39  1  0  0  0  0
 35 36  2  0  0  0  0
 37 35  1  1  0  0  0
 37 38  1  0  0  0  0
 37 40  1  0  0  0  0
 38 39  1  0  0  0  0
M  END
>  <CHROM.1>
-168.90218369,44.22642662,-94.86213344,-172.53342029,-171.96534918,-155.02576131
-63.39763177,64.09216576,-176.09783021,-179.25741104,3.44535456,-4.59450811
21.43599439,1.85699560,0.47857040,-2.51032330

>  <Name>
2g5q_lig

>  <RI>
224

>  <Rbt.Current_Directory>
/home/itssahil/PROJECTS/Mol_Feturizer/New_Systems/rnas/2g5q

>  <Rbt.Executable>
rbdock ($Id: //depot/dev/client3/rdock/2013.1/src/exe/rbdock.cxx#4 $)

>  <Rbt.Library>
libRbt.so (2013.1, Build901 2013/11/27)

>  <Rbt.Parameter_File>
/export/apps/rDock/src/rDock_2013.1_src/data/scripts/dock_solv.prm

>  <Rbt.Receptor>
prm/pocket_docking_8.prm

>  <SCORE>
-25.5353

>  <SCORE.INTER>
-18.8726

>  <SCORE.INTER.CONST>
1

>  <SCORE.INTER.POLAR>
-0.799707

>  <SCORE.INTER.ROT>
10

>  <SCORE.INTER.SOLV>
16.1123

>  <SCORE.INTER.VDW>
-25.5535

>  <SCORE.INTER.norm>
-0.471815

>  <SCORE.INTRA>
-6.66273

>  <SCORE.INTRA.DIHEDRAL>
-16.2112

>  <SCORE.INTRA.DIHEDRAL.0>
22.5778

>  <SCORE.INTRA.POLAR>
0

>  <SCORE.INTRA.POLAR.0>
0

>  <SCORE.INTRA.REPUL>
0

>  <SCORE.INTRA.REPUL.0>
0

>  <SCORE.INTRA.SOLV>
0.0694399

>  <SCORE.INTRA.SOLV.lig_0>
-102.332

>  <SCORE.INTRA.VDW>
1.40816

>  <SCORE.INTRA.VDW.0>
-5.08747

>  <SCORE.INTRA.norm>
-0.166568

>  <SCORE.RESTR>
0

>  <SCORE.RESTR.CAVITY>
0

>  <SCORE.RESTR.norm>
0

>  <SCORE.SYSTEM>
0

>  <SCORE.SYSTEM.CONST>
0

>  <SCORE.SYSTEM.DIHEDRAL>
0

>  <SCORE.SYSTEM.SOLV>
0

>  <SCORE.SYSTEM.norm>
0

>  <SCORE.heavy>
40

>  <SCORE.norm>
-0.638384

>  <RMSD>
11.573

$$$$
2g5q_lig
 OpenBabel11021811433D
libRbt.so/2013.1/901 2013/11/27
 40 42  0  0  0  0  0  0  0  0999 V2000
   10.7789  -10.0227    8.6932 C   0  0  2  0  0  0  0  0  0  0  0  0
    9.4334   -9.6574    8.4793 O   0  0  0  0  0  0  0  0  0  0  0  0
   11.2520  -10.9135    7.5069 C   0  0  1  0  0  0  0  0  0  0  0  0
   10.5119  -12.2865    7.4790 C   0  0  2  0  0  0  0  0  0  0  0  0
   10.8001  -13.0078    8.8213 C   0  0  2  0  0  0  0  0  0  0  0  0
   10.1525  -14.2904    8.8253 O   0  0  0  0  0  0  0  0  0  0  0  0
   10.2664  -12.0958    9.9992 C   0  0  2  0  0  0  0  0  0  0  0  0
   10.9478  -10.7701    9.9672 O   0  0  0  0  0  0  0  0  0  0  0  0
   10.5117  -12.7056   11.3752 C   0  0  0  0  0  0  0  0  0  0  0  0
    9.6481  -13.9038   11.6207 N   0  0  0  0  0  0  0  0  0  0  0  0
    5.4867   -9.8456   10.3408 C   0  0  2  0  0  0  0  0  0  0  0  0
    4.4301  -10.0902   11.3153 N   0  0  0  0  0  0  0  0  0  0  0  0
    6.2214  -11.2030    9.9757 C   0  0  0  0  0  0  0  0  0  0  0  0
    7.3622  -10.9436    8.9147 C   0  0  2  0  0  0  0  0  0  0  0  0
    8.0357  -12.2255    8.5727 N   0  0  0  0  0  0  0  0  0  0  0  0
    8.3893   -9.8899    9.4917 C   0  0  2  0  0  0  0  0  0  0  0  0
    7.6213   -8.5554    9.8469 C   0  0  2  0  0  0  0  0  0  0  0  0
    8.5520   -7.6052   10.3750 O   0  0  0  0  0  0  0  0  0  0  0  0
    6.4985   -8.8340   10.9178 C   0  0  1  0  0  0  0  0  0  0  0  0
    5.7846   -7.6057   11.2339 O   0  0  0  0  0  0  0  0  0  0  0  0
    5.1689   -7.3457   12.4714 C   0  0  2  0  0  0  0  0  0  0  0  0
    5.2400   -5.8003   12.7158 C   0  0  2  0  0  0  0  0  0  0  0  0
    4.5734   -5.1364   11.6905 O   0  0  0  0  0  0  0  0  0  0  0  0
    6.7332   -5.3098   12.8272 C   0  0  1  0  0  0  0  0  0  0  0  0
    6.8118   -3.8310   13.0659 N   0  0  0  0  0  0  0  0  0  0  0  0
    7.4304   -6.1049   14.0016 C   0  0  2  0  0  0  0  0  0  0  0  0
    8.7910   -5.6962   14.1565 O   0  0  0  0  0  0  0  0  0  0  0  0
    7.3271   -7.6376   13.6970 C   0  0  2  0  0  0  0  0  0  0  0  0
    5.8932   -8.0599   13.5380 O   0  0  0  0  0  0  0  0  0  0  0  0
    7.9429   -8.4643   14.7884 C   0  0  0  0  0  0  0  0  0  0  0  0
    7.4990   -8.0311   16.0846 O   0  0  0  0  0  0  0  0  0  0  0  0
   11.0362  -10.1715    6.2574 O   0  0  0  0  0  0  0  0  0  0  0  0
   10.9772  -13.0364    6.4214 O   0  0  0  0  0  0  0  0  0  0  0  0
    2.2520  -13.7450   11.4149 N   0  0  0  0  0  0  0  0  0  0  0  0
    3.1500   -9.5570   11.2595 C   0  0  0  0  0  0  0  0  0  0  0  0
    2.7615   -8.8028   10.3743 O   0  0  0  0  0  0  0  0  0  0  0  0
    2.2711  -10.0066   12.4494 C   0  0  1  0  0  0  0  0  0  0  0  0
    2.2836  -11.5444   12.5643 C   0  0  0  0  0  0  0  0  0  0  0  0
    2.0003  -12.3128   11.2683 C   0  0  0  0  0  0  0  0  0  0  0  0
    2.7663   -9.3942   13.6614 O   0  0  0  0  0  0  0  0  0  0  0  0
  1  2  1  6  0  0  0
  1  3  1  0  0  0  0
  1  8  1  0  0  0  0
  3  4  1  0  0  0  0
  3 32  1  6  0  0  0
  4  5  1  0  0  0  0
  4 33  1  6  0  0  0
  5  6  1  6  0  0  0
  5  7  1  0  0  0  0
  7  8  1  0  0  0  0
  7  9  1  1  0  0  0
  9 10  1  0  0  0  0
 11 12  1  1  0  0  0
 11 13  1  0  0  0  0
 11 19  1  0  0  0  0
 12 35  1  0  0  0  0
 13 14  1  0  0  0  0
 14 15  1  1  0  0  0
 14 16  1  0  0  0  0
 16  2  1  6  0  0  0
 16 17  1  0  0  0  0
 17 18  1  1  0  0  0
 17 19  1  0  0  0  0
 19 20  1  6  0  0  0
 21 20  1  6  0  0  0
 21 22  1  0  0  0  0
 21 29  1  0  0  0  0
 22 23  1  6  0  0  0
 22 24  1  0  0  0  0
 24 25  1  1  0  0  0
 24 26  1  0  0  0  0
 26 27  1  6  0  0  0
 26 28  1  0  0  0  0
 28 29  1  0  0  0  0
 28 30  1  1  0  0  0
 30 31  1  0  0  0  0
 34 39  1  0  0  0  0
 35 36  2  0  0  0  0
 37 35  1  6  0  0  0
 37 38  1  0  0  0  0
 37 40  1  0  0  0  0
 38 39  1  0  0  0  0
M  END
>  <CHROM.1>
126.54115981,-70.17407432,-135.57251068,-114.64374717,89.07348830,148.92327668
47.50760372,-52.84404652,-49.53073078,170.38373071,7.16040535,-9.64630811
10.96465910,-0.81428658,0.30862714,0.52513187

>  <Name>
2g5q_lig

>  <RI>
0

>  <Rbt.Current_Directory>
/home/itssahil/PROJECTS/Mol_Feturizer/New_Systems/rnas/2g5q

>  <Rbt.Executable>
rbdock ($Id: //depot/dev/client3/rdock/2013.1/src/exe/rbdock.cxx#4 $)

>  <Rbt.Library>
libRbt.so (2013.1, Build901 2013/11/27)

>  <Rbt.Parameter_File>
/export/apps/rDock/src/rDock_2013.1_src/data/scripts/dock_solv.prm

>  <Rbt.Receptor>
prm/blind_docking_20.prm

>  <SCORE>
17.1185

>  <SCORE.INTER>
0.571799

>  <SCORE.INTER.CONST>
1

>  <SCORE.INTER.POLAR>
-0.484146

>  <SCORE.INTER.ROT>
10

>  <SCORE.INTER.SOLV>
26.4992

>  <SCORE.INTER.VDW>
-17.1047

>  <SCORE.INTER.norm>
0.014295

>  <SCORE.INTRA>
5.88513

>  <SCORE.INTRA.DIHEDRAL>
2.20038

>  <SCORE.INTRA.DIHEDRAL.0>
22.5778

>  <SCORE.INTRA.POLAR>
0

>  <SCORE.INTRA.POLAR.0>
0

>  <SCORE.INTRA.REPUL>
0

>  <SCORE.INTRA.REPUL.0>
0

>  <SCORE.INTRA.SOLV>
7.72864

>  <SCORE.INTRA.SOLV.lig_0>
-102.332

>  <SCORE.INTRA.VDW>
0.920622

>  <SCORE.INTRA.VDW.0>
-5.08747

>  <SCORE.INTRA.norm>
0.147128

>  <SCORE.RESTR>
10.6616

>  <SCORE.RESTR.CAVITY>
10.6616

>  <SCORE.RESTR.norm>
0.266539

>  <SCORE.SYSTEM>
0

>  <SCORE.SYSTEM.CONST>
0

>  <SCORE.SYSTEM.DIHEDRAL>
0

>  <SCORE.SYSTEM.SOLV>
0

>  <SCORE.SYSTEM.norm>
0

>  <SCORE.heavy>
40

>  <SCORE.norm>
0.427962

>  <RMSD>
11.583

$$$$
2g5q_lig
 OpenBabel11021811433D
libRbt.so/2013.1/901 2013/11/27
 40 42  0  0  0  0  0  0  0  0999 V2000
   11.5084   -2.3180   23.7936 C   0  0  2  0  0  0  0  0  0  0  0  0
   10.7638   -2.7169   24.9231 O   0  0  0  0  0  0  0  0  0  0  0  0
   12.0666   -3.5879   23.0861 C   0  0  1  0  0  0  0  0  0  0  0  0
   13.1232   -4.3264   23.9647 C   0  0  2  0  0  0  0  0  0  0  0  0
   14.2812   -3.3345   24.2477 C   0  0  2  0  0  0  0  0  0  0  0  0
   15.2889   -3.9864   25.0376 O   0  0  0  0  0  0  0  0  0  0  0  0
   13.6855   -2.0797   25.0057 C   0  0  2  0  0  0  0  0  0  0  0  0
   12.6382   -1.4275   24.1687 O   0  0  0  0  0  0  0  0  0  0  0  0
   14.7415   -1.0264   25.3238 C   0  0  0  0  0  0  0  0  0  0  0  0
   14.1822    0.1039   26.1308 N   0  0  0  0  0  0  0  0  0  0  0  0
    6.5051   -3.4547   25.5524 C   0  0  2  0  0  0  0  0  0  0  0  0
    5.0712   -3.2309   25.6931 N   0  0  0  0  0  0  0  0  0  0  0  0
    7.3005   -2.6149   26.6377 C   0  0  0  0  0  0  0  0  0  0  0  0
    8.8541   -2.8600   26.4934 C   0  0  2  0  0  0  0  0  0  0  0  0
    9.5875   -2.0759   27.5236 N   0  0  0  0  0  0  0  0  0  0  0  0
    9.3166   -2.4673   25.0340 C   0  0  2  0  0  0  0  0  0  0  0  0
    8.5008   -3.3195   23.9828 C   0  0  2  0  0  0  0  0  0  0  0  0
    8.9167   -2.9578   22.6621 O   0  0  0  0  0  0  0  0  0  0  0  0
    6.9553   -3.0484   24.1338 C   0  0  1  0  0  0  0  0  0  0  0  0
    6.2056   -3.8438   23.1728 O   0  0  0  0  0  0  0  0  0  0  0  0
    4.8677   -4.2407   23.3483 C   0  0  2  0  0  0  0  0  0  0  0  0
    4.8765   -5.7516   23.7609 C   0  0  2  0  0  0  0  0  0  0  0  0
    5.5902   -5.9059   24.9455 O   0  0  0  0  0  0  0  0  0  0  0  0
    5.4821   -6.6504   22.6171 C   0  0  1  0  0  0  0  0  0  0  0  0
    5.4906   -8.1005   23.0011 N   0  0  0  0  0  0  0  0  0  0  0  0
    4.6316   -6.4233   21.3047 C   0  0  2  0  0  0  0  0  0  0  0  0
    5.1308   -7.2212   20.2293 O   0  0  0  0  0  0  0  0  0  0  0  0
    4.6644   -4.8992   20.9461 C   0  0  2  0  0  0  0  0  0  0  0  0
    4.1356   -4.0672   22.0810 O   0  0  0  0  0  0  0  0  0  0  0  0
    3.8490   -4.5981   19.7221 C   0  0  0  0  0  0  0  0  0  0  0  0
    4.1729   -5.4937   18.6461 O   0  0  0  0  0  0  0  0  0  0  0  0
   10.9376   -4.4708   22.7636 O   0  0  0  0  0  0  0  0  0  0  0  0
   13.5914   -5.4305   23.2870 O   0  0  0  0  0  0  0  0  0  0  0  0
    0.9769   -2.1821   21.9645 N   0  0  0  0  0  0  0  0  0  0  0  0
    4.3338   -2.2922   24.9852 C   0  0  0  0  0  0  0  0  0  0  0  0
    4.8154   -1.5293   24.1548 O   0  0  0  0  0  0  0  0  0  0  0  0
    2.8371   -2.3030   25.3729 C   0  0  1  0  0  0  0  0  0  0  0  0
    1.9833   -1.7828   24.1988 C   0  0  0  0  0  0  0  0  0  0  0  0
    1.7280   -2.7826   23.0650 C   0  0  0  0  0  0  0  0  0  0  0  0
    2.4519   -3.6482   25.7351 O   0  0  0  0  0  0  0  0  0  0  0  0
  1  2  1  1  0  0  0
  1  3  1  0  0  0  0
  1  8  1  0  0  0  0
  3  4  1  0  0  0  0
  3 32  1  1  0  0  0
  4  5  1  0  0  0  0
  4 33  1  6  0  0  0
  5  6  1  1  0  0  0
  5  7  1  0  0  0  0
  7  8  1  0  0  0  0
  7  9  1  6  0  0  0
  9 10  1  0  0  0  0
 11 12  1  6  0  0  0
 11 13  1  0  0  0  0
 11 19  1  0  0  0  0
 12 35  1  0  0  0  0
 13 14  1  0  0  0  0
 14 15  1  1  0  0  0
 14 16  1  0  0  0  0
 16  2  1  1  0  0  0
 16 17  1  0  0  0  0
 17 18  1  6  0  0  0
 17 19  1  0  0  0  0
 19 20  1  6  0  0  0
 21 20  1  6  0  0  0
 21 22  1  0  0  0  0
 21 29  1  0  0  0  0
 22 23  1  1  0  0  0
 22 24  1  0  0  0  0
 24 25  1  1  0  0  0
 24 26  1  0  0  0  0
 26 27  1  6  0  0  0
 26 28  1  0  0  0  0
 28 29  1  0  0  0  0
 28 30  1  6  0  0  0
 30 31  1  0  0  0  0
 34 39  1  0  0  0  0
 35 36  2  0  0  0  0
 37 35  1  6  0  0  0
 37 38  1  0  0  0  0
 37 40  1  0  0  0  0
 38 39  1  0  0  0  0
M  END
>  <CHROM.1>
-116.14684562,-175.66515026,94.32583106,-172.30611916,35.15349062,-103.32979589
-49.24485783,-153.91887646,78.48474223,-176.77298180,7.66355309,-3.62759833
23.78317918,-0.25721761,0.02296072,-2.30295173

>  <Name>
2g5q_lig

>  <RI>
224

>  <Rbt.Current_Directory>
/home/itssahil/PROJECTS/Mol_Feturizer/New_Systems/rnas/2g5q

>  <Rbt.Executable>
rbdock ($Id: //depot/dev/client3/rdock/2013.1/src/exe/rbdock.cxx#4 $)

>  <Rbt.Library>
libRbt.so (2013.1, Build901 2013/11/27)

>  <Rbt.Parameter_File>
/export/apps/rDock/src/rDock_2013.1_src/data/scripts/dock_solv.prm

>  <Rbt.Receptor>
prm/blind_docking_60.prm

>  <SCORE>
21.1681

>  <SCORE.INTER>
-0.904452

>  <SCORE.INTER.CONST>
1

>  <SCORE.INTER.POLAR>
-0.591648

>  <SCORE.INTER.ROT>
10

>  <SCORE.INTER.SOLV>
26.9066

>  <SCORE.INTER.VDW>
-17.8663

>  <SCORE.INTER.norm>
-0.0226113

>  <SCORE.INTRA>
7.63134

>  <SCORE.INTRA.DIHEDRAL>
-2.75021

>  <SCORE.INTRA.DIHEDRAL.0>
22.5778

>  <SCORE.INTRA.POLAR>
0

>  <SCORE.INTRA.POLAR.0>
0

>  <SCORE.INTRA.REPUL>
0

>  <SCORE.INTRA.REPUL.0>
0

>  <SCORE.INTRA.SOLV>
2.68272

>  <SCORE.INTRA.SOLV.lig_0>
-102.332

>  <SCORE.INTRA.VDW>
7.66508

>  <SCORE.INTRA.VDW.0>
-5.08747

>  <SCORE.INTRA.norm>
0.190784

>  <SCORE.RESTR>
14.4412

>  <SCORE.RESTR.CAVITY>
14.4412

>  <SCORE.RESTR.norm>
0.361031

>  <SCORE.SYSTEM>
0

>  <SCORE.SYSTEM.CONST>
0

>  <SCORE.SYSTEM.DIHEDRAL>
0

>  <SCORE.SYSTEM.SOLV>
0

>  <SCORE.SYSTEM.norm>
0

>  <SCORE.heavy>
40

>  <SCORE.norm>
0.529203

>  <RMSD>
11.583

$$$$
2g5q_lig
 OpenBabel11021811433D
libRbt.so/2013.1/901 2013/11/27
 40 42  0  0  0  0  0  0  0  0999 V2000
    2.5851   -8.4856   19.6821 C   0  0  2  0  0  0  0  0  0  0  0  0
    2.3931   -7.2276   20.2904 O   0  0  0  0  0  0  0  0  0  0  0  0
    1.4112   -8.7497   18.6937 C   0  0  1  0  0  0  0  0  0  0  0  0
    0.0509   -8.9197   19.4381 C   0  0  2  0  0  0  0  0  0  0  0  0
    0.1909  -10.1163   20.4145 C   0  0  2  0  0  0  0  0  0  0  0  0
   -1.0526  -10.3204   21.1048 O   0  0  0  0  0  0  0  0  0  0  0  0
    1.3607   -9.7936   21.4302 C   0  0  2  0  0  0  0  0  0  0  0  0
    2.6360   -9.5787   20.6884 O   0  0  0  0  0  0  0  0  0  0  0  0
    1.5968  -10.9166   22.4346 C   0  0  0  0  0  0  0  0  0  0  0  0
    0.4069  -11.1423   23.3149 N   0  0  0  0  0  0  0  0  0  0  0  0
    4.8440   -4.8185   22.9860 C   0  0  2  0  0  0  0  0  0  0  0  0
    5.9561   -4.0366   23.5131 N   0  0  0  0  0  0  0  0  0  0  0  0
    5.3275   -6.2852   22.6241 C   0  0  0  0  0  0  0  0  0  0  0  0
    4.1240   -7.1380   22.0594 C   0  0  2  0  0  0  0  0  0  0  0  0
    4.5879   -8.5140   21.7345 N   0  0  0  0  0  0  0  0  0  0  0  0
    3.5192   -6.4194   20.7883 C   0  0  2  0  0  0  0  0  0  0  0  0
    3.0537   -4.9628   21.1864 C   0  0  2  0  0  0  0  0  0  0  0  0
    2.5123   -4.3119   20.0326 O   0  0  0  0  0  0  0  0  0  0  0  0
    4.2721   -4.1247   21.7324 C   0  0  1  0  0  0  0  0  0  0  0  0
    3.8381   -2.7877   22.1099 O   0  0  0  0  0  0  0  0  0  0  0  0
    3.1599   -1.9050   21.2502 C   0  0  2  0  0  0  0  0  0  0  0  0
    3.5322   -0.4471   21.6854 C   0  0  2  0  0  0  0  0  0  0  0  0
    4.9083   -0.2681   21.5814 O   0  0  0  0  0  0  0  0  0  0  0  0
    3.0338   -0.1454   23.1494 C   0  0  1  0  0  0  0  0  0  0  0  0
    3.3818    1.2506   23.5739 N   0  0  0  0  0  0  0  0  0  0  0  0
    1.4707   -0.3728   23.1983 C   0  0  2  0  0  0  0  0  0  0  0  0
    0.9574   -0.1062   24.5050 O   0  0  0  0  0  0  0  0  0  0  0  0
    1.1662   -1.8439   22.7558 C   0  0  2  0  0  0  0  0  0  0  0  0
    1.7070   -2.1155   21.3797 O   0  0  0  0  0  0  0  0  0  0  0  0
   -0.3078   -2.1282   22.7467 C   0  0  0  0  0  0  0  0  0  0  0  0
   -0.5678   -3.5292   22.5610 O   0  0  0  0  0  0  0  0  0  0  0  0
    1.3542   -7.6369   17.7363 O   0  0  0  0  0  0  0  0  0  0  0  0
   -0.9465   -9.1634   18.5199 O   0  0  0  0  0  0  0  0  0  0  0  0
    9.9191   -1.2393   24.4102 N   0  0  0  0  0  0  0  0  0  0  0  0
    6.3882   -4.0468   24.8319 C   0  0  0  0  0  0  0  0  0  0  0  0
    5.8696   -4.7196   25.7161 O   0  0  0  0  0  0  0  0  0  0  0  0
    7.5880   -3.1004   25.0671 C   0  0  1  0  0  0  0  0  0  0  0  0
    8.6731   -3.3473   23.9995 C   0  0  0  0  0  0  0  0  0  0  0  0
   10.0321   -2.6892   24.2647 C   0  0  0  0  0  0  0  0  0  0  0  0
    7.1258   -1.7314   25.0266 O   0  0  0  0  0  0  0  0  0  0  0  0
  1  2  1  1  0  0  0
  1  3  1  0  0  0  0
  1  8  1  0  0  0  0
  3  4  1  0  0  0  0
  3 32  1  6  0  0  0
  4  5  1  0  0  0  0
  4 33  1  6  0  0  0
  5  6  1  1  0  0  0
  5  7  1  0  0  0  0
  7  8  1  0  0  0  0
  7  9  1  1  0  0  0
  9 10  1  0  0  0  0
 11 12  1  6  0  0  0
 11 13  1  0  0  0  0
 11 19  1  0  0  0  0
 12 35  1  0  0  0  0
 13 14  1  0  0  0  0
 14 15  1  6  0  0  0
 14 16  1  0  0  0  0
 16  2  1  1  0  0  0
 16 17  1  0  0  0  0
 17 18  1  6  0  0  0
 17 19  1  0  0  0  0
 19 20  1  1  0  0  0
 21 20  1  1  0  0  0
 21 22  1  0  0  0  0
 21 29  1  0  0  0  0
 22 23  1  1  0  0  0
 22 24  1  0  0  0  0
 24 25  1  6  0  0  0
 24 26  1  0  0  0  0
 26 27  1  1  0  0  0
 26 28  1  0  0  0  0
 28 29  1  0  0  0  0
 28 30  1  6  0  0  0
 30 31  1  0  0  0  0
 34 39  1  0  0  0  0
 35 36  2  0  0  0  0
 37 35  1  6  0  0  0
 37 38  1  0  0  0  0
 37 40  1  0  0  0  0
 38 39  1  0  0  0  0
M  END
>  <CHROM.1>
-152.71629580,-63.15129811,-83.67344176,-69.76996128,-174.33271117,-150.63259761
-170.27118466,-49.10911106,-168.16370173,-57.77249443,3.26119762,-4.94485280
22.08880153,-2.13049312,-0.36846193,0.18702590

>  <Name>
2g5q_lig

>  <RI>
224

>  <Rbt.Current_Directory>
/home/itssahil/PROJECTS/Mol_Feturizer/New_Systems/rnas/2g5q

>  <Rbt.Executable>
rbdock ($Id: //depot/dev/client3/rdock/2013.1/src/exe/rbdock.cxx#4 $)

>  <Rbt.Library>
libRbt.so (2013.1, Build901 2013/11/27)

>  <Rbt.Parameter_File>
/export/apps/rDock/src/rDock_2013.1_src/data/scripts/dock_solv.prm

>  <Rbt.Receptor>
prm/pocket_docking_8.prm

>  <SCORE>
-16.5441

>  <SCORE.INTER>
-13.8489

>  <SCORE.INTER.CONST>
1

>  <SCORE.INTER.POLAR>
0

>  <SCORE.INTER.ROT>
10

>  <SCORE.INTER.SOLV>
15.6143

>  <SCORE.INTER.VDW>
-24.704

>  <SCORE.INTER.norm>
-0.346223

>  <SCORE.INTRA>
-2.69518

>  <SCORE.INTRA.DIHEDRAL>
-13.1545

>  <SCORE.INTRA.DIHEDRAL.0>
22.5778

>  <SCORE.INTRA.POLAR>
0

>  <SCORE.INTRA.POLAR.0>
0

>  <SCORE.INTRA.REPUL>
0

>  <SCORE.INTRA.REPUL.0>
0

>  <SCORE.INTRA.SOLV>
4.06941

>  <SCORE.INTRA.SOLV.lig_0>
-102.332

>  <SCORE.INTRA.VDW>
1.84737

>  <SCORE.INTRA.VDW.0>
-5.08747

>  <SCORE.INTRA.norm>
-0.0673795

>  <SCORE.RESTR>
0

>  <SCORE.RESTR.CAVITY>
0

>  <SCORE.RESTR.norm>
0

>  <SCORE.SYSTEM>
0

>  <SCORE.SYSTEM.CONST>
0

>  <SCORE.SYSTEM.DIHEDRAL>
0

>  <SCORE.SYSTEM.SOLV>
0

>  <SCORE.SYSTEM.norm>
0

>  <SCORE.heavy>
40

>  <SCORE.norm>
-0.413603

>  <RMSD>
11.602

$$$$
2g5q_lig
 OpenBabel11021811433D
libRbt.so/2013.1/901 2013/11/27
 40 42  0  0  0  0  0  0  0  0999 V2000
   10.9287  -10.0541    8.2671 C   0  0  2  0  0  0  0  0  0  0  0  0
    9.6731   -9.4145    8.3283 O   0  0  0  0  0  0  0  0  0  0  0  0
   11.0185  -10.8575    6.9361 C   0  0  1  0  0  0  0  0  0  0  0  0
   10.0118  -12.0488    6.9066 C   0  0  2  0  0  0  0  0  0  0  0  0
   10.3433  -12.9795    8.1019 C   0  0  2  0  0  0  0  0  0  0  0  0
    9.4497  -14.1046    8.0960 O   0  0  0  0  0  0  0  0  0  0  0  0
   10.1981  -12.1429    9.4372 C   0  0  2  0  0  0  0  0  0  0  0  0
   11.1292  -10.9786    9.4139 O   0  0  0  0  0  0  0  0  0  0  0  0
   10.5167  -12.9613   10.6839 C   0  0  0  0  0  0  0  0  0  0  0  0
    9.4763  -14.0040   10.9525 N   0  0  0  0  0  0  0  0  0  0  0  0
    6.2502   -9.3300   11.0401 C   0  0  2  0  0  0  0  0  0  0  0  0
    5.1607   -9.7720   11.9023 N   0  0  0  0  0  0  0  0  0  0  0  0
    6.0401   -9.8773    9.5663 C   0  0  0  0  0  0  0  0  0  0  0  0
    7.2147   -9.3947    8.6271 C   0  0  2  0  0  0  0  0  0  0  0  0
    7.0000   -9.9051    7.2460 N   0  0  0  0  0  0  0  0  0  0  0  0
    8.5964   -9.8880    9.2148 C   0  0  2  0  0  0  0  0  0  0  0  0
    8.7675   -9.3275   10.6822 C   0  0  2  0  0  0  0  0  0  0  0  0
   10.0162   -9.7806   11.2145 O   0  0  0  0  0  0  0  0  0  0  0  0
    7.5943   -9.8334   11.6057 C   0  0  1  0  0  0  0  0  0  0  0  0
    7.7476   -9.3057   12.9534 O   0  0  0  0  0  0  0  0  0  0  0  0
    8.3208   -8.0567   13.2526 C   0  0  2  0  0  0  0  0  0  0  0  0
    7.7895   -7.6213   14.6601 C   0  0  2  0  0  0  0  0  0  0  0  0
    8.1602   -8.5680   15.6102 O   0  0  0  0  0  0  0  0  0  0  0  0
    6.2265   -7.4233   14.6421 C   0  0  1  0  0  0  0  0  0  0  0  0
    5.7083   -7.0015   15.9852 N   0  0  0  0  0  0  0  0  0  0  0  0
    5.8755   -6.3444   13.5421 C   0  0  2  0  0  0  0  0  0  0  0  0
    4.4660   -6.1157   13.4837 O   0  0  0  0  0  0  0  0  0  0  0  0
    6.4301   -6.8385   12.1634 C   0  0  2  0  0  0  0  0  0  0  0  0
    7.9131   -7.0742   12.2324 O   0  0  0  0  0  0  0  0  0  0  0  0
    6.1616   -5.8473   11.0683 C   0  0  0  0  0  0  0  0  0  0  0  0
    4.7599   -5.7780   10.7594 O   0  0  0  0  0  0  0  0  0  0  0  0
   10.7754   -9.9325    5.8210 O   0  0  0  0  0  0  0  0  0  0  0  0
   10.1431  -12.7301    5.7166 O   0  0  0  0  0  0  0  0  0  0  0  0
    2.2800  -12.0156    9.8162 N   0  0  0  0  0  0  0  0  0  0  0  0
    3.8148   -9.7570   11.5636 C   0  0  0  0  0  0  0  0  0  0  0  0
    3.3851   -9.3568   10.4873 O   0  0  0  0  0  0  0  0  0  0  0  0
    2.9136  -10.2859   12.7032 C   0  0  1  0  0  0  0  0  0  0  0  0
    1.8398  -11.2335   12.1312 C   0  0  0  0  0  0  0  0  0  0  0  0
    2.3569  -12.3636   11.2336 C   0  0  0  0  0  0  0  0  0  0  0  0
    3.7349  -10.9657   13.6792 O   0  0  0  0  0  0  0  0  0  0  0  0
  1  2  1  1  0  0  0
  1  3  1  0  0  0  0
  1  8  1  0  0  0  0
  3  4  1  0  0  0  0
  3 32  1  6  0  0  0
  4  5  1  0  0  0  0
  4 33  1  6  0  0  0
  5  6  1  1  0  0  0
  5  7  1  0  0  0  0
  7  8  1  0  0  0  0
  7  9  1  1  0  0  0
  9 10  1  0  0  0  0
 11 12  1  1  0  0  0
 11 13  1  0  0  0  0
 11 19  1  0  0  0  0
 12 35  1  0  0  0  0
 13 14  1  0  0  0  0
 14 15  1  6  0  0  0
 14 16  1  0  0  0  0
 16  2  1  6  0  0  0
 16 17  1  0  0  0  0
 17 18  1  1  0  0  0
 17 19  1  0  0  0  0
 19 20  1  1  0  0  0
 21 20  1  6  0  0  0
 21 22  1  0  0  0  0
 21 29  1  0  0  0  0
 22 23  1  1  0  0  0
 22 24  1  0  0  0  0
 24 25  1  1  0  0  0
 24 26  1  0  0  0  0
 26 27  1  6  0  0  0
 26 28  1  0  0  0  0
 28 29  1  0  0  0  0
 28 30  1  6  0  0  0
 30 31  1  0  0  0  0
 34 39  1  0  0  0  0
 35 36  2  0  0  0  0
 37 35  1  6  0  0  0
 37 38  1  0  0  0  0
 37 40  1  0  0  0  0
 38 39  1  0  0  0  0
M  END
>  <CHROM.1>
105.88169099,-69.57570095,-44.02695000,-156.30384328,-87.63070084,157.44295655
-69.29671525,-136.34700263,51.62161008,-95.98251194,7.26959222,-9.77831608
10.78326366,-0.85219982,0.24029911,0.78492177

>  <Name>
2g5q_lig

>  <RI>
0

>  <Rbt.Current_Directory>
/home/itssahil/PROJECTS/Mol_Feturizer/New_Systems/rnas/2g5q

>  <Rbt.Executable>
rbdock ($Id: //depot/dev/client3/rdock/2013.1/src/exe/rbdock.cxx#4 $)

>  <Rbt.Library>
libRbt.so (2013.1, Build901 2013/11/27)

>  <Rbt.Parameter_File>
/export/apps/rDock/src/rDock_2013.1_src/data/scripts/dock_solv.prm

>  <Rbt.Receptor>
prm/blind_docking_20.prm

>  <SCORE>
28.9048

>  <SCORE.INTER>
7.40027

>  <SCORE.INTER.CONST>
1

>  <SCORE.INTER.POLAR>
-0.0563909

>  <SCORE.INTER.ROT>
10

>  <SCORE.INTER.SOLV>
27.6029

>  <SCORE.INTER.VDW>
-14.3462

>  <SCORE.INTER.norm>
0.185007

>  <SCORE.INTRA>
6.02122

>  <SCORE.INTRA.DIHEDRAL>
-1.63886

>  <SCORE.INTRA.DIHEDRAL.0>
22.5778

>  <SCORE.INTRA.POLAR>
0

>  <SCORE.INTRA.POLAR.0>
0

>  <SCORE.INTRA.REPUL>
0

>  <SCORE.INTRA.REPUL.0>
0

>  <SCORE.INTRA.SOLV>
5.85962

>  <SCORE.INTRA.SOLV.lig_0>
-102.332

>  <SCORE.INTRA.VDW>
3.91084

>  <SCORE.INTRA.VDW.0>
-5.08747

>  <SCORE.INTRA.norm>
0.15053

>  <SCORE.RESTR>
15.4834

>  <SCORE.RESTR.CAVITY>
15.4834

>  <SCORE.RESTR.norm>
0.387084

>  <SCORE.SYSTEM>
0

>  <SCORE.SYSTEM.CONST>
0

>  <SCORE.SYSTEM.DIHEDRAL>
0

>  <SCORE.SYSTEM.SOLV>
0

>  <SCORE.SYSTEM.norm>
0

>  <SCORE.heavy>
40

>  <SCORE.norm>
0.722621

>  <RMSD>
11.748

$$$$
2g5q_lig
 OpenBabel11021811433D
libRbt.so/2013.1/901 2013/11/27
 40 42  0  0  0  0  0  0  0  0999 V2000
   11.0065  -10.5300    8.2343 C   0  0  2  0  0  0  0  0  0  0  0  0
    9.8188   -9.7794    8.1102 O   0  0  0  0  0  0  0  0  0  0  0  0
   11.0648  -11.5722    7.0788 C   0  0  1  0  0  0  0  0  0  0  0  0
    9.9471  -12.6523    7.2126 C   0  0  2  0  0  0  0  0  0  0  0  0
   10.1416  -13.3698    8.5736 C   0  0  2  0  0  0  0  0  0  0  0  0
    9.1421  -14.3909    8.7247 O   0  0  0  0  0  0  0  0  0  0  0  0
   10.0314  -12.2892    9.7243 C   0  0  2  0  0  0  0  0  0  0  0  0
   11.0730  -11.2386    9.5395 O   0  0  0  0  0  0  0  0  0  0  0  0
   10.2222  -12.8861   11.1146 C   0  0  0  0  0  0  0  0  0  0  0  0
   10.9172  -14.2114   11.0664 N   0  0  0  0  0  0  0  0  0  0  0  0
    5.8413   -9.4885    9.8914 C   0  0  2  0  0  0  0  0  0  0  0  0
    4.5840   -9.8593   10.5298 N   0  0  0  0  0  0  0  0  0  0  0  0
    6.0034  -10.2551    8.5123 C   0  0  0  0  0  0  0  0  0  0  0  0
    7.3610   -9.8508    7.8138 C   0  0  2  0  0  0  0  0  0  0  0  0
    7.4956  -10.5677    6.5169 N   0  0  0  0  0  0  0  0  0  0  0  0
    8.5687  -10.1770    8.7798 C   0  0  2  0  0  0  0  0  0  0  0  0
    8.3701   -9.4005   10.1415 C   0  0  2  0  0  0  0  0  0  0  0  0
    9.4613   -9.7024   11.0168 O   0  0  0  0  0  0  0  0  0  0  0  0
    7.0180   -9.8299   10.8289 C   0  0  1  0  0  0  0  0  0  0  0  0
    6.8316   -9.1042   12.0766 O   0  0  0  0  0  0  0  0  0  0  0  0
    7.7092   -9.1795   13.1732 C   0  0  2  0  0  0  0  0  0  0  0  0
    6.8362   -9.1846   14.4736 C   0  0  2  0  0  0  0  0  0  0  0  0
    5.9825  -10.2833   14.4560 O   0  0  0  0  0  0  0  0  0  0  0  0
    6.0241   -7.8423   14.6192 C   0  0  1  0  0  0  0  0  0  0  0  0
    5.1880   -7.8356   15.8646 N   0  0  0  0  0  0  0  0  0  0  0  0
    7.0496   -6.6400   14.6263 C   0  0  2  0  0  0  0  0  0  0  0  0
    6.3697   -5.3907   14.7640 O   0  0  0  0  0  0  0  0  0  0  0  0
    7.8869   -6.6902   13.3038 C   0  0  2  0  0  0  0  0  0  0  0  0
    8.6009   -8.0061   13.1677 O   0  0  0  0  0  0  0  0  0  0  0  0
    8.9095   -5.5923   13.2508 C   0  0  0  0  0  0  0  0  0  0  0  0
    9.5857   -5.4479   14.5105 O   0  0  0  0  0  0  0  0  0  0  0  0
   10.9548  -10.8534    5.8024 O   0  0  0  0  0  0  0  0  0  0  0  0
   10.0537  -13.5527    6.1756 O   0  0  0  0  0  0  0  0  0  0  0  0
    2.4240  -13.6386   11.4014 N   0  0  0  0  0  0  0  0  0  0  0  0
    3.9597   -9.1461   11.5436 C   0  0  0  0  0  0  0  0  0  0  0  0
    4.4072   -8.1124   12.0279 O   0  0  0  0  0  0  0  0  0  0  0  0
    2.6429   -9.8102   12.0077 C   0  0  1  0  0  0  0  0  0  0  0  0
    2.8536  -11.3261   12.1967 C   0  0  0  0  0  0  0  0  0  0  0  0
    2.3257  -12.2191   11.0679 C   0  0  0  0  0  0  0  0  0  0  0  0
    2.2098   -9.1916   13.2402 O   0  0  0  0  0  0  0  0  0  0  0  0
  1  2  1  1  0  0  0
  1  3  1  0  0  0  0
  1  8  1  0  0  0  0
  3  4  1  0  0  0  0
  3 32  1  6  0  0  0
  4  5  1  0  0  0  0
  4 33  1  6  0  0  0
  5  6  1  1  0  0  0
  5  7  1  0  0  0  0
  7  8  1  0  0  0  0
  7  9  1  1  0  0  0
  9 10  1  0  0  0  0
 11 12  1  1  0  0  0
 11 13  1  0  0  0  0
 11 19  1  0  0  0  0
 12 35  1  0  0  0  0
 13 14  1  0  0  0  0
 14 15  1  6  0  0  0
 14 16  1  0  0  0  0
 16  2  1  6  0  0  0
 16 17  1  0  0  0  0
 17 18  1  1  0  0  0
 17 19  1  0  0  0  0
 19 20  1  1  0  0  0
 21 20  1  6  0  0  0
 21 22  1  0  0  0  0
 21 29  1  0  0  0  0
 22 23  1  6  0  0  0
 22 24  1  0  0  0  0
 24 25  1  1  0  0  0
 24 26  1  0  0  0  0
 26 27  1  6  0  0  0
 26 28  1  0  0  0  0
 28 29  1  0  0  0  0
 28 30  1  1  0  0  0
 30 31  1  0  0  0  0
 34 39  1  0  0  0  0
 35 36  2  0  0  0  0
 37 35  1  1  0  0  0
 37 38  1  0  0  0  0
 37 40  1  0  0  0  0
 38 39  1  0  0  0  0
M  END
>  <CHROM.1>
91.22598963,19.56317265,-162.25634869,-142.70526079,179.55397850,-140.97478445
43.62958402,45.56763345,-101.81905435,-173.21450469,7.44661581,-10.01538156
10.93989549,-0.97091423,0.27104653,0.78684089

>  <Name>
2g5q_lig

>  <RI>
0

>  <Rbt.Current_Directory>
/home/itssahil/PROJECTS/Mol_Feturizer/New_Systems/rnas/2g5q

>  <Rbt.Executable>
rbdock ($Id: //depot/dev/client3/rdock/2013.1/src/exe/rbdock.cxx#4 $)

>  <Rbt.Library>
libRbt.so (2013.1, Build901 2013/11/27)

>  <Rbt.Parameter_File>
/export/apps/rDock/src/rDock_2013.1_src/data/scripts/dock_solv.prm

>  <Rbt.Receptor>
prm/blind_docking_20.prm

>  <SCORE>
50.2612

>  <SCORE.INTER>
26.6331

>  <SCORE.INTER.CONST>
1

>  <SCORE.INTER.POLAR>
-1.29406

>  <SCORE.INTER.ROT>
10

>  <SCORE.INTER.SOLV>
24.8598

>  <SCORE.INTER.VDW>
3.51566

>  <SCORE.INTER.norm>
0.665827

>  <SCORE.INTRA>
4.60689

>  <SCORE.INTRA.DIHEDRAL>
1.81006

>  <SCORE.INTRA.DIHEDRAL.0>
22.5778

>  <SCORE.INTRA.POLAR>
0

>  <SCORE.INTRA.POLAR.0>
0

>  <SCORE.INTRA.REPUL>
0

>  <SCORE.INTRA.REPUL.0>
0

>  <SCORE.INTRA.SOLV>
5.31264

>  <SCORE.INTRA.SOLV.lig_0>
-102.332

>  <SCORE.INTRA.VDW>
1.04554

>  <SCORE.INTRA.VDW.0>
-5.08747

>  <SCORE.INTRA.norm>
0.115172

>  <SCORE.RESTR>
19.0212

>  <SCORE.RESTR.CAVITY>
19.0212

>  <SCORE.RESTR.norm>
0.47553

>  <SCORE.SYSTEM>
0

>  <SCORE.SYSTEM.CONST>
0

>  <SCORE.SYSTEM.DIHEDRAL>
0

>  <SCORE.SYSTEM.SOLV>
0

>  <SCORE.SYSTEM.norm>
0

>  <SCORE.heavy>
40

>  <SCORE.norm>
1.25653

>  <RMSD>
11.793

$$$$
2g5q_lig
 OpenBabel11021811433D
libRbt.so/2013.1/901 2013/11/27
 40 42  0  0  0  0  0  0  0  0999 V2000
    2.1438   -6.8432   18.5613 C   0  0  2  0  0  0  0  0  0  0  0  0
    2.6096   -7.2220   19.8376 O   0  0  0  0  0  0  0  0  0  0  0  0
    0.8994   -7.7083   18.2039 C   0  0  1  0  0  0  0  0  0  0  0  0
    1.2709   -9.2115   18.0141 C   0  0  2  0  0  0  0  0  0  0  0  0
    2.3152   -9.3011   16.8711 C   0  0  2  0  0  0  0  0  0  0  0  0
    2.6669  -10.6765   16.6494 O   0  0  0  0  0  0  0  0  0  0  0  0
    3.5815   -8.4487   17.2881 C   0  0  2  0  0  0  0  0  0  0  0  0
    3.1878   -7.0294   17.5195 O   0  0  0  0  0  0  0  0  0  0  0  0
    4.6737   -8.4550   16.2238 C   0  0  0  0  0  0  0  0  0  0  0  0
    4.1319   -8.1532   14.8611 N   0  0  0  0  0  0  0  0  0  0  0  0
    4.7991   -5.0892   22.9576 C   0  0  2  0  0  0  0  0  0  0  0  0
    5.8677   -4.3940   23.6652 N   0  0  0  0  0  0  0  0  0  0  0  0
    5.2611   -6.5565   22.5711 C   0  0  0  0  0  0  0  0  0  0  0  0
    4.1036   -7.3158   21.8106 C   0  0  2  0  0  0  0  0  0  0  0  0
    4.5454   -8.6937   21.4638 N   0  0  0  0  0  0  0  0  0  0  0  0
    3.6969   -6.4997   20.5196 C   0  0  2  0  0  0  0  0  0  0  0  0
    3.2478   -5.0453   20.9436 C   0  0  2  0  0  0  0  0  0  0  0  0
    2.8861   -4.3063   19.7726 O   0  0  0  0  0  0  0  0  0  0  0  0
    4.4217   -4.3004   21.6866 C   0  0  1  0  0  0  0  0  0  0  0  0
    4.0013   -2.9658   22.0868 O   0  0  0  0  0  0  0  0  0  0  0  0
    2.8304   -2.6917   22.8163 C   0  0  2  0  0  0  0  0  0  0  0  0
    2.2313   -1.3565   22.2581 C   0  0  2  0  0  0  0  0  0  0  0  0
    1.9392   -1.5076   20.9059 O   0  0  0  0  0  0  0  0  0  0  0  0
    3.2171   -0.1495   22.4901 C   0  0  1  0  0  0  0  0  0  0  0  0
    2.6499    1.1352   21.9627 N   0  0  0  0  0  0  0  0  0  0  0  0
    3.5100   -0.0386   24.0391 C   0  0  2  0  0  0  0  0  0  0  0  0
    4.3965    1.0480   24.3138 O   0  0  0  0  0  0  0  0  0  0  0  0
    4.1068   -1.3997   24.5329 C   0  0  2  0  0  0  0  0  0  0  0  0
    3.1675   -2.5369   24.2426 O   0  0  0  0  0  0  0  0  0  0  0  0
    4.3837   -1.3830   26.0083 C   0  0  0  0  0  0  0  0  0  0  0  0
    3.2240   -0.9750   26.7522 O   0  0  0  0  0  0  0  0  0  0  0  0
   -0.1002   -7.5414   19.2675 O   0  0  0  0  0  0  0  0  0  0  0  0
    0.1391   -9.9255   17.6874 O   0  0  0  0  0  0  0  0  0  0  0  0
    9.0509   -0.9612   25.9650 N   0  0  0  0  0  0  0  0  0  0  0  0
    5.9042   -4.1627   25.0331 C   0  0  0  0  0  0  0  0  0  0  0  0
    5.0240   -4.5164   25.8100 O   0  0  0  0  0  0  0  0  0  0  0  0
    7.1724   -3.3926   25.4678 C   0  0  1  0  0  0  0  0  0  0  0  0
    7.3627   -2.1449   24.5817 C   0  0  0  0  0  0  0  0  0  0  0  0
    8.7488   -1.4920   24.6373 C   0  0  0  0  0  0  0  0  0  0  0  0
    7.0478   -3.0231   26.8597 O   0  0  0  0  0  0  0  0  0  0  0  0
  1  2  1  1  0  0  0
  1  3  1  0  0  0  0
  1  8  1  0  0  0  0
  3  4  1  0  0  0  0
  3 32  1  1  0  0  0
  4  5  1  0  0  0  0
  4 33  1  6  0  0  0
  5  6  1  1  0  0  0
  5  7  1  0  0  0  0
  7  8  1  0  0  0  0
  7  9  1  6  0  0  0
  9 10  1  0  0  0  0
 11 12  1  6  0  0  0
 11 13  1  0  0  0  0
 11 19  1  0  0  0  0
 12 35  1  0  0  0  0
 13 14  1  0  0  0  0
 14 15  1  6  0  0  0
 14 16  1  0  0  0  0
 16  2  1  1  0  0  0
 16 17  1  0  0  0  0
 17 18  1  6  0  0  0
 17 19  1  0  0  0  0
 19 20  1  1  0  0  0
 21 20  1  6  0  0  0
 21 22  1  0  0  0  0
 21 29  1  0  0  0  0
 22 23  1  6  0  0  0
 22 24  1  0  0  0  0
 24 25  1  1  0  0  0
 24 26  1  0  0  0  0
 26 27  1  6  0  0  0
 26 28  1  0  0  0  0
 28 29  1  0  0  0  0
 28 30  1  1  0  0  0
 30 31  1  0  0  0  0
 34 39  1  0  0  0  0
 35 36  2  0  0  0  0
 37 35  1  6  0  0  0
 37 38  1  0  0  0  0
 37 40  1  0  0  0  0
 38 39  1  0  0  0  0
M  END
>  <CHROM.1>
-173.90694721,48.52933715,-104.13239715,-171.57026722,-67.56638332,-142.46083947
52.60180179,49.91637286,-164.42469351,-64.02103425,3.87970556,-4.62756287
21.68107313,1.93066127,0.66614358,-2.57247580

>  <Name>
2g5q_lig

>  <RI>
224

>  <Rbt.Current_Directory>
/home/itssahil/PROJECTS/Mol_Feturizer/New_Systems/rnas/2g5q

>  <Rbt.Executable>
rbdock ($Id: //depot/dev/client3/rdock/2013.1/src/exe/rbdock.cxx#4 $)

>  <Rbt.Library>
libRbt.so (2013.1, Build901 2013/11/27)

>  <Rbt.Parameter_File>
/export/apps/rDock/src/rDock_2013.1_src/data/scripts/dock_solv.prm

>  <Rbt.Receptor>
prm/pocket_docking_8.prm

>  <SCORE>
-25.2826

>  <SCORE.INTER>
-19.409

>  <SCORE.INTER.CONST>
1

>  <SCORE.INTER.POLAR>
-1.45508

>  <SCORE.INTER.ROT>
10

>  <SCORE.INTER.SOLV>
14.3948

>  <SCORE.INTER.VDW>
-23.154

>  <SCORE.INTER.norm>
-0.485226

>  <SCORE.INTRA>
-5.87359

>  <SCORE.INTRA.DIHEDRAL>
-13.351

>  <SCORE.INTRA.DIHEDRAL.0>
22.5778

>  <SCORE.INTRA.POLAR>
0

>  <SCORE.INTRA.POLAR.0>
0

>  <SCORE.INTRA.REPUL>
0

>  <SCORE.INTRA.REPUL.0>
0

>  <SCORE.INTRA.SOLV>
3.48148

>  <SCORE.INTRA.SOLV.lig_0>
-102.332

>  <SCORE.INTRA.VDW>
-0.93885

>  <SCORE.INTRA.VDW.0>
-5.08747

>  <SCORE.INTRA.norm>
-0.14684

>  <SCORE.RESTR>
0

>  <SCORE.RESTR.CAVITY>
0

>  <SCORE.RESTR.norm>
0

>  <SCORE.SYSTEM>
0

>  <SCORE.SYSTEM.CONST>
0

>  <SCORE.SYSTEM.DIHEDRAL>
0

>  <SCORE.SYSTEM.SOLV>
0

>  <SCORE.SYSTEM.norm>
0

>  <SCORE.heavy>
40

>  <SCORE.norm>
-0.632065

>  <RMSD>
11.803

$$$$
2g5q_lig
 OpenBabel11021811433D
libRbt.so/2013.1/901 2013/11/27
 40 42  0  0  0  0  0  0  0  0999 V2000
   11.2541  -10.4317    8.1755 C   0  0  2  0  0  0  0  0  0  0  0  0
   10.1561   -9.5640    8.3508 O   0  0  0  0  0  0  0  0  0  0  0  0
   11.0537  -11.2349    6.8566 C   0  0  1  0  0  0  0  0  0  0  0  0
    9.8410  -12.2118    6.9488 C   0  0  2  0  0  0  0  0  0  0  0  0
   10.1089  -13.1909    8.1211 C   0  0  2  0  0  0  0  0  0  0  0  0
    9.0216  -14.1245    8.2244 O   0  0  0  0  0  0  0  0  0  0  0  0
   10.2620  -12.3445    9.4494 C   0  0  2  0  0  0  0  0  0  0  0  0
   11.3903  -11.3797    9.3126 O   0  0  0  0  0  0  0  0  0  0  0  0
   10.5439  -13.2111   10.6721 C   0  0  0  0  0  0  0  0  0  0  0  0
   10.2843  -12.4785   11.9518 N   0  0  0  0  0  0  0  0  0  0  0  0
    6.4027   -9.2863   10.5672 C   0  0  2  0  0  0  0  0  0  0  0  0
    5.1804   -9.6660   11.2656 N   0  0  0  0  0  0  0  0  0  0  0  0
    6.3661   -9.8129    9.0715 C   0  0  0  0  0  0  0  0  0  0  0  0
    7.6854   -9.3975    8.3090 C   0  0  2  0  0  0  0  0  0  0  0  0
    7.6337   -9.8874    6.9050 N   0  0  0  0  0  0  0  0  0  0  0  0
    8.9413   -9.9760    9.0746 C   0  0  2  0  0  0  0  0  0  0  0  0
    8.9410   -9.4338   10.5588 C   0  0  2  0  0  0  0  0  0  0  0  0
   10.0754   -9.9639   11.2518 O   0  0  0  0  0  0  0  0  0  0  0  0
    7.6238   -9.8725   11.3056 C   0  0  1  0  0  0  0  0  0  0  0  0
    7.6205   -9.3615   12.6684 O   0  0  0  0  0  0  0  0  0  0  0  0
    8.2318   -8.1576   13.0623 C   0  0  2  0  0  0  0  0  0  0  0  0
    7.7002   -7.8076   14.4935 C   0  0  2  0  0  0  0  0  0  0  0  0
    8.0291   -8.8327   15.3751 O   0  0  0  0  0  0  0  0  0  0  0  0
    6.1449   -7.5559   14.4771 C   0  0  1  0  0  0  0  0  0  0  0  0
    5.6268   -7.2153   15.8431 N   0  0  0  0  0  0  0  0  0  0  0  0
    5.8417   -6.3887   13.4557 C   0  0  2  0  0  0  0  0  0  0  0  0
    4.4414   -6.1087   13.4025 O   0  0  0  0  0  0  0  0  0  0  0  0
    6.3943   -6.8001   12.0493 C   0  0  2  0  0  0  0  0  0  0  0  0
    7.8679   -7.0905   12.1131 O   0  0  0  0  0  0  0  0  0  0  0  0
    6.1706   -5.7237   11.0271 C   0  0  0  0  0  0  0  0  0  0  0  0
    4.7865   -5.3426   10.9651 O   0  0  0  0  0  0  0  0  0  0  0  0
   10.8792  -10.2784    5.7553 O   0  0  0  0  0  0  0  0  0  0  0  0
    9.7187  -12.9034    5.7639 O   0  0  0  0  0  0  0  0  0  0  0  0
    1.3255  -12.2916   11.0328 N   0  0  0  0  0  0  0  0  0  0  0  0
    3.8957   -9.3024   10.8868 C   0  0  0  0  0  0  0  0  0  0  0  0
    3.6424   -8.6040    9.9114 O   0  0  0  0  0  0  0  0  0  0  0  0
    2.8177   -9.8625   11.8432 C   0  0  1  0  0  0  0  0  0  0  0  0
    3.2053  -11.2826   12.3028 C   0  0  0  0  0  0  0  0  0  0  0  0
    2.7336  -12.4282   11.3999 C   0  0  0  0  0  0  0  0  0  0  0  0
    2.6806   -8.9732   12.9744 O   0  0  0  0  0  0  0  0  0  0  0  0
  1  2  1  1  0  0  0
  1  3  1  0  0  0  0
  1  8  1  0  0  0  0
  3  4  1  0  0  0  0
  3 32  1  6  0  0  0
  4  5  1  0  0  0  0
  4 33  1  6  0  0  0
  5  6  1  1  0  0  0
  5  7  1  0  0  0  0
  7  8  1  0  0  0  0
  7  9  1  1  0  0  0
  9 10  1  0  0  0  0
 11 12  1  1  0  0  0
 11 13  1  0  0  0  0
 11 19  1  0  0  0  0
 12 35  1  0  0  0  0
 13 14  1  0  0  0  0
 14 15  1  6  0  0  0
 14 16  1  0  0  0  0
 16  2  1  6  0  0  0
 16 17  1  0  0  0  0
 17 18  1  1  0  0  0
 17 19  1  0  0  0  0
 19 20  1  1  0  0  0
 21 20  1  6  0  0  0
 21 22  1  0  0  0  0
 21 29  1  0  0  0  0
 22 23  1  1  0  0  0
 22 24  1  0  0  0  0
 24 25  1  1  0  0  0
 24 26  1  0  0  0  0
 26 27  1  6  0  0  0
 26 28  1  0  0  0  0
 28 29  1  0  0  0  0
 28 30  1  6  0  0  0
 30 31  1  0  0  0  0
 34 39  1  0  0  0  0
 35 36  2  0  0  0  0
 37 35  1  6  0  0  0
 37 38  1  0  0  0  0
 37 40  1  0  0  0  0
 38 39  1  0  0  0  0
M  END
>  <CHROM.1>
89.61218723,-162.95056838,-59.29183976,-140.02918521,-88.32479690,166.18360555
-54.27883932,-37.80310825,-88.09135291,-47.29608393,7.32184249,-9.73500827
10.67267507,-0.84170965,0.13501810,0.81548551

>  <Name>
2g5q_lig

>  <RI>
0

>  <Rbt.Current_Directory>
/home/itssahil/PROJECTS/Mol_Feturizer/New_Systems/rnas/2g5q

>  <Rbt.Executable>
rbdock ($Id: //depot/dev/client3/rdock/2013.1/src/exe/rbdock.cxx#4 $)

>  <Rbt.Library>
libRbt.so (2013.1, Build901 2013/11/27)

>  <Rbt.Parameter_File>
/export/apps/rDock/src/rDock_2013.1_src/data/scripts/dock_solv.prm

>  <Rbt.Receptor>
prm/blind_docking_20.prm

>  <SCORE>
17.1589

>  <SCORE.INTER>
-0.868512

>  <SCORE.INTER.CONST>
1

>  <SCORE.INTER.POLAR>
-0.897935

>  <SCORE.INTER.ROT>
10

>  <SCORE.INTER.SOLV>
26.6151

>  <SCORE.INTER.VDW>
-16.7243

>  <SCORE.INTER.norm>
-0.0217128

>  <SCORE.INTRA>
3.29289

>  <SCORE.INTRA.DIHEDRAL>
-4.13683

>  <SCORE.INTRA.DIHEDRAL.0>
22.5778

>  <SCORE.INTRA.POLAR>
0

>  <SCORE.INTRA.POLAR.0>
0

>  <SCORE.INTRA.REPUL>
0

>  <SCORE.INTRA.REPUL.0>
0

>  <SCORE.INTRA.SOLV>
7.99527

>  <SCORE.INTRA.SOLV.lig_0>
-102.332

>  <SCORE.INTRA.VDW>
1.36367

>  <SCORE.INTRA.VDW.0>
-5.08747

>  <SCORE.INTRA.norm>
0.0823222

>  <SCORE.RESTR>
14.7345

>  <SCORE.RESTR.CAVITY>
14.7345

>  <SCORE.RESTR.norm>
0.368362

>  <SCORE.SYSTEM>
0

>  <SCORE.SYSTEM.CONST>
0

>  <SCORE.SYSTEM.DIHEDRAL>
0

>  <SCORE.SYSTEM.SOLV>
0

>  <SCORE.SYSTEM.norm>
0

>  <SCORE.heavy>
40

>  <SCORE.norm>
0.428972

>  <RMSD>
11.819

$$$$
2g5q_lig
 OpenBabel11021811433D
libRbt.so/2013.1/901 2013/11/27
 40 42  0  0  0  0  0  0  0  0999 V2000
   11.1678  -10.4413    8.1866 C   0  0  2  0  0  0  0  0  0  0  0  0
   10.0595   -9.5832    8.3439 O   0  0  0  0  0  0  0  0  0  0  0  0
   10.9561  -11.3056    6.9087 C   0  0  1  0  0  0  0  0  0  0  0  0
    9.7608  -12.2955    7.0673 C   0  0  2  0  0  0  0  0  0  0  0  0
   10.0656  -13.2171    8.2767 C   0  0  2  0  0  0  0  0  0  0  0  0
    8.9953  -14.1613    8.4421 O   0  0  0  0  0  0  0  0  0  0  0  0
   10.2295  -12.3098    9.5629 C   0  0  2  0  0  0  0  0  0  0  0  0
   11.3397  -11.3352    9.3619 O   0  0  0  0  0  0  0  0  0  0  0  0
   10.5475  -13.1165   10.8174 C   0  0  0  0  0  0  0  0  0  0  0  0
    9.3947  -13.9724   11.2420 N   0  0  0  0  0  0  0  0  0  0  0  0
    6.4011   -9.2438   10.7058 C   0  0  2  0  0  0  0  0  0  0  0  0
    5.2041   -9.6037   11.4565 N   0  0  0  0  0  0  0  0  0  0  0  0
    6.2992   -9.7854    9.2184 C   0  0  0  0  0  0  0  0  0  0  0  0
    7.5909   -9.3915    8.3993 C   0  0  2  0  0  0  0  0  0  0  0  0
    7.4780   -9.8953    7.0038 N   0  0  0  0  0  0  0  0  0  0  0  0
    8.8707   -9.9751    9.1201 C   0  0  2  0  0  0  0  0  0  0  0  0
    8.9354   -9.4178   10.5973 C   0  0  2  0  0  0  0  0  0  0  0  0
   10.0914   -9.9524   11.2499 O   0  0  0  0  0  0  0  0  0  0  0  0
    7.6450   -9.8350   11.4009 C   0  0  1  0  0  0  0  0  0  0  0  0
    7.7015   -9.3101   12.7571 O   0  0  0  0  0  0  0  0  0  0  0  0
    8.3019   -8.0872   13.1067 C   0  0  2  0  0  0  0  0  0  0  0  0
    7.7892   -7.7042   14.5363 C   0  0  2  0  0  0  0  0  0  0  0  0
    8.1473   -8.6993   15.4407 O   0  0  0  0  0  0  0  0  0  0  0  0
    6.2304   -7.4745   14.5392 C   0  0  1  0  0  0  0  0  0  0  0  0
    5.7301   -7.1026   15.9036 N   0  0  0  0  0  0  0  0  0  0  0  0
    5.8937   -6.3411   13.4907 C   0  0  2  0  0  0  0  0  0  0  0  0
    4.4888   -6.0821   13.4534 O   0  0  0  0  0  0  0  0  0  0  0  0
    6.4287   -6.7845   12.0872 C   0  0  2  0  0  0  0  0  0  0  0  0
    7.9071   -7.0525   12.1342 O   0  0  0  0  0  0  0  0  0  0  0  0
    6.1728   -5.7406   11.0392 C   0  0  0  0  0  0  0  0  0  0  0  0
    4.7696   -5.4548   10.9191 O   0  0  0  0  0  0  0  0  0  0  0  0
   10.7463  -10.4021    5.7695 O   0  0  0  0  0  0  0  0  0  0  0  0
    9.6279  -13.0413    5.9168 O   0  0  0  0  0  0  0  0  0  0  0  0
    2.5254  -13.6184   11.3784 N   0  0  0  0  0  0  0  0  0  0  0  0
    3.9029   -9.2962   11.0846 C   0  0  0  0  0  0  0  0  0  0  0  0
    3.6111   -8.6713   10.0709 O   0  0  0  0  0  0  0  0  0  0  0  0
    2.8602   -9.8153   12.1014 C   0  0  1  0  0  0  0  0  0  0  0  0
    2.2775  -11.1599   11.6211 C   0  0  0  0  0  0  0  0  0  0  0  0
    3.1549  -12.3930   11.8663 C   0  0  0  0  0  0  0  0  0  0  0  0
    3.4905   -9.9581   13.3943 O   0  0  0  0  0  0  0  0  0  0  0  0
  1  2  1  1  0  0  0
  1  3  1  0  0  0  0
  1  8  1  0  0  0  0
  3  4  1  0  0  0  0
  3 32  1  6  0  0  0
  4  5  1  0  0  0  0
  4 33  1  6  0  0  0
  5  6  1  1  0  0  0
  5  7  1  0  0  0  0
  7  8  1  0  0  0  0
  7  9  1  1  0  0  0
  9 10  1  0  0  0  0
 11 12  1  1  0  0  0
 11 13  1  0  0  0  0
 11 19  1  0  0  0  0
 12 35  1  0  0  0  0
 13 14  1  0  0  0  0
 14 15  1  6  0  0  0
 14 16  1  0  0  0  0
 16  2  1  6  0  0  0
 16 17  1  0  0  0  0
 17 18  1  1  0  0  0
 17 19  1  0  0  0  0
 19 20  1  1  0  0  0
 21 20  1  6  0  0  0
 21 22  1  0  0  0  0
 21 29  1  0  0  0  0
 22 23  1  1  0  0  0
 22 24  1  0  0  0  0
 24 25  1  1  0  0  0
 24 26  1  0  0  0  0
 26 27  1  6  0  0  0
 26 28  1  0  0  0  0
 28 29  1  0  0  0  0
 28 30  1  6  0  0  0
 30 31  1  0  0  0  0
 34 39  1  0  0  0  0
 35 36  2  0  0  0  0
 37 35  1  6  0  0  0
 37 38  1  0  0  0  0
 37 40  1  0  0  0  0
 38 39  1  0  0  0  0
M  END
>  <CHROM.1>
90.27208020,-67.85526456,-55.37139482,-143.06013717,-86.14805806,163.73440690
-58.70540932,-97.52764491,79.10195510,-179.90982536,7.33098539,-9.81971352
10.74275013,-0.86360710,0.30166999,0.66749309

>  <Name>
2g5q_lig

>  <RI>
0

>  <Rbt.Current_Directory>
/home/itssahil/PROJECTS/Mol_Feturizer/New_Systems/rnas/2g5q

>  <Rbt.Executable>
rbdock ($Id: //depot/dev/client3/rdock/2013.1/src/exe/rbdock.cxx#4 $)

>  <Rbt.Library>
libRbt.so (2013.1, Build901 2013/11/27)

>  <Rbt.Parameter_File>
/export/apps/rDock/src/rDock_2013.1_src/data/scripts/dock_solv.prm

>  <Rbt.Receptor>
prm/blind_docking_20.prm

>  <SCORE>
18.2189

>  <SCORE.INTER>
2.56787

>  <SCORE.INTER.CONST>
1

>  <SCORE.INTER.POLAR>
-0.083505

>  <SCORE.INTER.ROT>
10

>  <SCORE.INTER.SOLV>
23.2924

>  <SCORE.INTER.VDW>
-16.0405

>  <SCORE.INTER.norm>
0.0641966

>  <SCORE.INTRA>
0.864121

>  <SCORE.INTRA.DIHEDRAL>
-6.57836

>  <SCORE.INTRA.DIHEDRAL.0>
22.5778

>  <SCORE.INTRA.POLAR>
0

>  <SCORE.INTRA.POLAR.0>
0

>  <SCORE.INTRA.REPUL>
0

>  <SCORE.INTRA.REPUL.0>
0

>  <SCORE.INTRA.SOLV>
4.97936

>  <SCORE.INTRA.SOLV.lig_0>
-102.332

>  <SCORE.INTRA.VDW>
1.66362

>  <SCORE.INTRA.VDW.0>
-5.08747

>  <SCORE.INTRA.norm>
0.021603

>  <SCORE.RESTR>
14.787

>  <SCORE.RESTR.CAVITY>
14.787

>  <SCORE.RESTR.norm>
0.369674

>  <SCORE.SYSTEM>
0

>  <SCORE.SYSTEM.CONST>
0

>  <SCORE.SYSTEM.DIHEDRAL>
0

>  <SCORE.SYSTEM.SOLV>
0

>  <SCORE.SYSTEM.norm>
0

>  <SCORE.heavy>
40

>  <SCORE.norm>
0.455474

>  <RMSD>
11.829

$$$$
2g5q_lig
 OpenBabel11021811433D
libRbt.so/2013.1/901 2013/11/27
 40 42  0  0  0  0  0  0  0  0999 V2000
    3.9691   -7.9771   19.6162 C   0  0  2  0  0  0  0  0  0  0  0  0
    3.4835   -6.7046   19.9829 O   0  0  0  0  0  0  0  0  0  0  0  0
    3.4026   -8.3453   18.2132 C   0  0  1  0  0  0  0  0  0  0  0  0
    1.8567   -8.5515   18.2457 C   0  0  2  0  0  0  0  0  0  0  0  0
    1.5517   -9.6943   19.2486 C   0  0  2  0  0  0  0  0  0  0  0  0
    0.1351   -9.9309   19.2900 O   0  0  0  0  0  0  0  0  0  0  0  0
    2.1002   -9.2666   20.6700 C   0  0  2  0  0  0  0  0  0  0  0  0
    3.5688   -9.0198   20.5973 O   0  0  0  0  0  0  0  0  0  0  0  0
    1.8651  -10.3298   21.7377 C   0  0  0  0  0  0  0  0  0  0  0  0
    2.6177  -11.5916   21.4493 N   0  0  0  0  0  0  0  0  0  0  0  0
    4.5026   -4.4104   23.5572 C   0  0  2  0  0  0  0  0  0  0  0  0
    5.2290   -3.5554   24.4883 N   0  0  0  0  0  0  0  0  0  0  0  0
    5.3635   -5.6957   23.2067 C   0  0  0  0  0  0  0  0  0  0  0  0
    4.5771   -6.6284   22.2037 C   0  0  2  0  0  0  0  0  0  0  0  0
    5.3902   -7.8349   21.8919 N   0  0  0  0  0  0  0  0  0  0  0  0
    4.2260   -5.8167   20.8938 C   0  0  2  0  0  0  0  0  0  0  0  0
    3.3736   -4.5444   21.2830 C   0  0  2  0  0  0  0  0  0  0  0  0
    3.0623   -3.8078   20.0962 O   0  0  0  0  0  0  0  0  0  0  0  0
    4.1824   -3.6204   22.2714 C   0  0  1  0  0  0  0  0  0  0  0  0
    3.3903   -2.4556   22.6379 O   0  0  0  0  0  0  0  0  0  0  0  0
    3.7896   -1.4942   23.5836 C   0  0  2  0  0  0  0  0  0  0  0  0
    2.6114   -0.4746   23.7428 C   0  0  2  0  0  0  0  0  0  0  0  0
    1.4726   -1.1447   24.1796 O   0  0  0  0  0  0  0  0  0  0  0  0
    2.3330    0.2887   22.3929 C   0  0  1  0  0  0  0  0  0  0  0  0
    1.2086    1.2713   22.5364 N   0  0  0  0  0  0  0  0  0  0  0  0
    3.6631    1.0195   21.9525 C   0  0  2  0  0  0  0  0  0  0  0  0
    3.4700    1.7383   20.7326 O   0  0  0  0  0  0  0  0  0  0  0  0
    4.7971   -0.0510   21.8095 C   0  0  2  0  0  0  0  0  0  0  0  0
    4.9957   -0.8008   23.0972 O   0  0  0  0  0  0  0  0  0  0  0  0
    6.1061    0.5735   21.4219 C   0  0  0  0  0  0  0  0  0  0  0  0
    6.5815    1.4651   22.4436 O   0  0  0  0  0  0  0  0  0  0  0  0
    3.7741   -7.2810   17.2712 O   0  0  0  0  0  0  0  0  0  0  0  0
    1.4127   -8.8872   16.9857 O   0  0  0  0  0  0  0  0  0  0  0  0
    5.0167   -0.4176   29.0412 N   0  0  0  0  0  0  0  0  0  0  0  0
    5.8748   -3.9897   25.6375 C   0  0  0  0  0  0  0  0  0  0  0  0
    5.9001   -5.1585   26.0072 O   0  0  0  0  0  0  0  0  0  0  0  0
    6.5458   -2.8313   26.4110 C   0  0  1  0  0  0  0  0  0  0  0  0
    5.5062   -2.1152   27.2967 C   0  0  0  0  0  0  0  0  0  0  0  0
    6.0383   -0.9537   28.1441 C   0  0  0  0  0  0  0  0  0  0  0  0
    7.6280   -3.3602   27.2100 O   0  0  0  0  0  0  0  0  0  0  0  0
  1  2  1  1  0  0  0
  1  3  1  0  0  0  0
  1  8  1  0  0  0  0
  3  4  1  0  0  0  0
  3 32  1  6  0  0  0
  4  5  1  0  0  0  0
  4 33  1  6  0  0  0
  5  6  1  1  0  0  0
  5  7  1  0  0  0  0
  7  8  1  0  0  0  0
  7  9  1  1  0  0  0
  9 10  1  0  0  0  0
 11 12  1  1  0  0  0
 11 13  1  0  0  0  0
 11 19  1  0  0  0  0
 12 35  1  0  0  0  0
 13 14  1  0  0  0  0
 14 15  1  6  0  0  0
 14 16  1  0  0  0  0
 16  2  1  6  0  0  0
 16 17  1  0  0  0  0
 17 18  1  6  0  0  0
 17 19  1  0  0  0  0
 19 20  1  1  0  0  0
 21 20  1  6  0  0  0
 21 22  1  0  0  0  0
 21 29  1  0  0  0  0
 22 23  1  6  0  0  0
 22 24  1  0  0  0  0
 24 25  1  1  0  0  0
 24 26  1  0  0  0  0
 26 27  1  6  0  0  0
 26 28  1  0  0  0  0
 28 29  1  0  0  0  0
 28 30  1  1  0  0  0
 30 31  1  0  0  0  0
 34 39  1  0  0  0  0
 35 36  2  0  0  0  0
 37 35  1  1  0  0  0
 37 38  1  0  0  0  0
 37 40  1  0  0  0  0
 38 39  1  0  0  0  0
M  END
>  <CHROM.1>
-152.57368029,64.21862125,-46.98614710,-52.31714322,55.49018753,-176.25954589
63.65646030,82.44027010,178.98632637,-174.64892278,3.90951729,-4.30226575
22.31083074,-2.14441914,-1.13260072,0.01686492

>  <Name>
2g5q_lig

>  <RI>
224

>  <Rbt.Current_Directory>
/home/itssahil/PROJECTS/Mol_Feturizer/New_Systems/rnas/2g5q

>  <Rbt.Executable>
rbdock ($Id: //depot/dev/client3/rdock/2013.1/src/exe/rbdock.cxx#4 $)

>  <Rbt.Library>
libRbt.so (2013.1, Build901 2013/11/27)

>  <Rbt.Parameter_File>
/export/apps/rDock/src/rDock_2013.1_src/data/scripts/dock_solv.prm

>  <Rbt.Receptor>
prm/pocket_docking_8.prm

>  <SCORE>
-17.2997

>  <SCORE.INTER>
-12.9881

>  <SCORE.INTER.CONST>
1

>  <SCORE.INTER.POLAR>
-1.02421

>  <SCORE.INTER.ROT>
10

>  <SCORE.INTER.SOLV>
17.9964

>  <SCORE.INTER.VDW>
-21.5102

>  <SCORE.INTER.norm>
-0.324703

>  <SCORE.INTRA>
-4.33115

>  <SCORE.INTRA.DIHEDRAL>
-17.3025

>  <SCORE.INTRA.DIHEDRAL.0>
22.5778

>  <SCORE.INTRA.POLAR>
0

>  <SCORE.INTRA.POLAR.0>
0

>  <SCORE.INTRA.REPUL>
0

>  <SCORE.INTRA.REPUL.0>
0

>  <SCORE.INTRA.SOLV>
2.40954

>  <SCORE.INTRA.SOLV.lig_0>
-102.332

>  <SCORE.INTRA.VDW>
3.11533

>  <SCORE.INTRA.VDW.0>
-5.08747

>  <SCORE.INTRA.norm>
-0.108279

>  <SCORE.RESTR>
0.0196277

>  <SCORE.RESTR.CAVITY>
0.0196277

>  <SCORE.RESTR.norm>
0.000490692

>  <SCORE.SYSTEM>
0

>  <SCORE.SYSTEM.CONST>
0

>  <SCORE.SYSTEM.DIHEDRAL>
0

>  <SCORE.SYSTEM.SOLV>
0

>  <SCORE.SYSTEM.norm>
0

>  <SCORE.heavy>
40

>  <SCORE.norm>
-0.432491

>  <RMSD>
11.859

$$$$
2g5q_lig
 OpenBabel11021811433D
libRbt.so/2013.1/901 2013/11/27
 40 42  0  0  0  0  0  0  0  0999 V2000
   11.0945  -11.0537    7.9572 C   0  0  2  0  0  0  0  0  0  0  0  0
   10.1813  -10.0291    8.2823 O   0  0  0  0  0  0  0  0  0  0  0  0
   10.4885  -11.9229    6.8161 C   0  0  1  0  0  0  0  0  0  0  0  0
    9.2274  -12.7090    7.2907 C   0  0  2  0  0  0  0  0  0  0  0  0
    9.6530  -13.6200    8.4714 C   0  0  2  0  0  0  0  0  0  0  0  0
    8.5206  -14.3802    8.9232 O   0  0  0  0  0  0  0  0  0  0  0  0
   10.2209  -12.7008    9.6275 C   0  0  2  0  0  0  0  0  0  0  0  0
   11.3884  -11.9181    9.1305 O   0  0  0  0  0  0  0  0  0  0  0  0
   10.6855  -13.4986   10.8413 C   0  0  0  0  0  0  0  0  0  0  0  0
   10.4868  -12.7439   12.1191 N   0  0  0  0  0  0  0  0  0  0  0  0
    6.6244   -9.2726   10.7016 C   0  0  2  0  0  0  0  0  0  0  0  0
    5.4136   -9.4941   11.4831 N   0  0  0  0  0  0  0  0  0  0  0  0
    6.4385   -9.8357    9.2305 C   0  0  0  0  0  0  0  0  0  0  0  0
    7.7456   -9.5915    8.3782 C   0  0  2  0  0  0  0  0  0  0  0  0
    7.5544  -10.1137    6.9981 N   0  0  0  0  0  0  0  0  0  0  0  0
    8.9760  -10.2826    9.0898 C   0  0  2  0  0  0  0  0  0  0  0  0
    9.1262   -9.7003   10.5510 C   0  0  2  0  0  0  0  0  0  0  0  0
   10.2369  -10.3321   11.1955 O   0  0  0  0  0  0  0  0  0  0  0  0
    7.8178   -9.9684   11.3884 C   0  0  1  0  0  0  0  0  0  0  0  0
    7.9542   -9.4203   12.7298 O   0  0  0  0  0  0  0  0  0  0  0  0
    8.4084   -8.1188   13.0092 C   0  0  2  0  0  0  0  0  0  0  0  0
    8.6529   -8.0283   14.5536 C   0  0  2  0  0  0  0  0  0  0  0  0
    9.6071   -8.9690   14.9292 O   0  0  0  0  0  0  0  0  0  0  0  0
    7.3121   -8.2351   15.3551 C   0  0  1  0  0  0  0  0  0  0  0  0
    7.5351   -8.1456   16.8358 N   0  0  0  0  0  0  0  0  0  0  0  0
    6.2750   -7.1425   14.8776 C   0  0  2  0  0  0  0  0  0  0  0  0
    5.0361   -7.2752   15.5775 O   0  0  0  0  0  0  0  0  0  0  0  0
    6.0739   -7.2872   13.3312 C   0  0  2  0  0  0  0  0  0  0  0  0
    7.3808   -7.1439   12.6022 O   0  0  0  0  0  0  0  0  0  0  0  0
    5.1210   -6.2583   12.7955 C   0  0  0  0  0  0  0  0  0  0  0  0
    4.9584   -6.3880   11.3736 O   0  0  0  0  0  0  0  0  0  0  0  0
   10.1672  -11.0418    5.6853 O   0  0  0  0  0  0  0  0  0  0  0  0
    8.7421  -13.4685    6.2490 O   0  0  0  0  0  0  0  0  0  0  0  0
    2.5567  -13.3878   11.5616 N   0  0  0  0  0  0  0  0  0  0  0  0
    4.1209   -9.2408   11.0461 C   0  0  0  0  0  0  0  0  0  0  0  0
    3.8496   -8.7884    9.9393 O   0  0  0  0  0  0  0  0  0  0  0  0
    3.0590   -9.5769   12.1184 C   0  0  1  0  0  0  0  0  0  0  0  0
    2.3804  -10.9214   11.7870 C   0  0  0  0  0  0  0  0  0  0  0  0
    3.3006  -12.1475   11.7719 C   0  0  0  0  0  0  0  0  0  0  0  0
    3.6951   -9.6255   13.4154 O   0  0  0  0  0  0  0  0  0  0  0  0
  1  2  1  1  0  0  0
  1  3  1  0  0  0  0
  1  8  1  0  0  0  0
  3  4  1  0  0  0  0
  3 32  1  6  0  0  0
  4  5  1  0  0  0  0
  4 33  1  6  0  0  0
  5  6  1  1  0  0  0
  5  7  1  0  0  0  0
  7  8  1  0  0  0  0
  7  9  1  1  0  0  0
  9 10  1  0  0  0  0
 11 12  1  1  0  0  0
 11 13  1  0  0  0  0
 11 19  1  0  0  0  0
 12 35  1  0  0  0  0
 13 14  1  0  0  0  0
 14 15  1  6  0  0  0
 14 16  1  0  0  0  0
 16  2  1  6  0  0  0
 16 17  1  0  0  0  0
 17 18  1  1  0  0  0
 17 19  1  0  0  0  0
 19 20  1  1  0  0  0
 21 20  1  1  0  0  0
 21 22  1  0  0  0  0
 21 29  1  0  0  0  0
 22 23  1  1  0  0  0
 22 24  1  0  0  0  0
 24 25  1  1  0  0  0
 24 26  1  0  0  0  0
 26 27  1  1  0  0  0
 26 28  1  0  0  0  0
 28 29  1  0  0  0  0
 28 30  1  6  0  0  0
 30 31  1  0  0  0  0
 34 39  1  0  0  0  0
 35 36  2  0  0  0  0
 37 35  1  6  0  0  0
 37 38  1  0  0  0  0
 37 40  1  0  0  0  0
 38 39  1  0  0  0  0
M  END
>  <CHROM.1>
76.73401007,-147.83251396,-45.61792347,-133.21383307,-71.07484307,-169.80244761
179.18526775,-102.47752587,62.20142768,175.16581108,7.45999992,-10.09293850
10.99429295,-1.00642383,-0.03691476,0.99023224

>  <Name>
2g5q_lig

>  <RI>
0

>  <Rbt.Current_Directory>
/home/itssahil/PROJECTS/Mol_Feturizer/New_Systems/rnas/2g5q

>  <Rbt.Executable>
rbdock ($Id: //depot/dev/client3/rdock/2013.1/src/exe/rbdock.cxx#4 $)

>  <Rbt.Library>
libRbt.so (2013.1, Build901 2013/11/27)

>  <Rbt.Parameter_File>
/export/apps/rDock/src/rDock_2013.1_src/data/scripts/dock_solv.prm

>  <Rbt.Receptor>
prm/blind_docking_20.prm

>  <SCORE>
16.7865

>  <SCORE.INTER>
0.816236

>  <SCORE.INTER.CONST>
1

>  <SCORE.INTER.POLAR>
0

>  <SCORE.INTER.ROT>
10

>  <SCORE.INTER.SOLV>
22.2806

>  <SCORE.INTER.VDW>
-17.1494

>  <SCORE.INTER.norm>
0.0204059

>  <SCORE.INTRA>
-0.238525

>  <SCORE.INTRA.DIHEDRAL>
-8.48297

>  <SCORE.INTRA.DIHEDRAL.0>
22.5778

>  <SCORE.INTRA.POLAR>
0

>  <SCORE.INTRA.POLAR.0>
0

>  <SCORE.INTRA.REPUL>
0

>  <SCORE.INTRA.REPUL.0>
0

>  <SCORE.INTRA.SOLV>
7.94837

>  <SCORE.INTRA.SOLV.lig_0>
-102.332

>  <SCORE.INTRA.VDW>
0.0287754

>  <SCORE.INTRA.VDW.0>
-5.08747

>  <SCORE.INTRA.norm>
-0.00596312

>  <SCORE.RESTR>
16.2087

>  <SCORE.RESTR.CAVITY>
16.2087

>  <SCORE.RESTR.norm>
0.405218

>  <SCORE.SYSTEM>
0

>  <SCORE.SYSTEM.CONST>
0

>  <SCORE.SYSTEM.DIHEDRAL>
0

>  <SCORE.SYSTEM.SOLV>
0

>  <SCORE.SYSTEM.norm>
0

>  <SCORE.heavy>
40

>  <SCORE.norm>
0.419661

>  <RMSD>
11.860

$$$$
2g5q_lig
 OpenBabel11021811433D
libRbt.so/2013.1/901 2013/11/27
 40 42  0  0  0  0  0  0  0  0999 V2000
  -10.4188  -11.5174   14.3531 C   0  0  2  0  0  0  0  0  0  0  0  0
   -9.3115  -12.3481   14.6238 O   0  0  0  0  0  0  0  0  0  0  0  0
  -11.2213  -11.3054   15.6707 C   0  0  1  0  0  0  0  0  0  0  0  0
  -11.8830  -12.6276   16.1681 C   0  0  2  0  0  0  0  0  0  0  0  0
  -12.8349  -13.1306   15.0519 C   0  0  2  0  0  0  0  0  0  0  0  0
  -13.4831  -14.3384   15.4825 O   0  0  0  0  0  0  0  0  0  0  0  0
  -11.9789  -13.3778   13.7441 C   0  0  2  0  0  0  0  0  0  0  0  0
  -11.3116  -12.1125   13.3241 O   0  0  0  0  0  0  0  0  0  0  0  0
  -12.8220  -13.8645   12.5703 C   0  0  0  0  0  0  0  0  0  0  0  0
  -12.0080  -14.0305   11.3247 N   0  0  0  0  0  0  0  0  0  0  0  0
   -5.1499  -11.5681   15.6962 C   0  0  2  0  0  0  0  0  0  0  0  0
   -3.9765  -11.0850   16.4143 N   0  0  0  0  0  0  0  0  0  0  0  0
   -6.0634  -10.3489   15.2547 C   0  0  0  0  0  0  0  0  0  0  0  0
   -7.3323  -10.8674   14.4701 C   0  0  2  0  0  0  0  0  0  0  0  0
   -8.1745   -9.7141   14.0521 N   0  0  0  0  0  0  0  0  0  0  0  0
   -8.1429  -11.8712   15.3829 C   0  0  2  0  0  0  0  0  0  0  0  0
   -7.2006  -13.0673   15.8051 C   0  0  2  0  0  0  0  0  0  0  0  0
   -7.9348  -13.9715   16.6366 O   0  0  0  0  0  0  0  0  0  0  0  0
   -5.9497  -12.5295   16.5995 C   0  0  1  0  0  0  0  0  0  0  0  0
   -5.0774  -13.6319   16.9765 O   0  0  0  0  0  0  0  0  0  0  0  0
   -5.3313  -14.5107   18.0448 C   0  0  2  0  0  0  0  0  0  0  0  0
   -5.1606  -13.6974   19.3725 C   0  0  2  0  0  0  0  0  0  0  0  0
   -6.0626  -12.6379   19.3878 O   0  0  0  0  0  0  0  0  0  0  0  0
   -3.6813  -13.1804   19.5370 C   0  0  1  0  0  0  0  0  0  0  0  0
   -3.5066  -12.4038   20.8085 N   0  0  0  0  0  0  0  0  0  0  0  0
   -2.7129  -14.4288   19.5053 C   0  0  2  0  0  0  0  0  0  0  0  0
   -1.3515  -14.0219   19.6582 O   0  0  0  0  0  0  0  0  0  0  0  0
   -2.9304  -15.1952   18.1571 C   0  0  2  0  0  0  0  0  0  0  0  0
   -4.3638  -15.6218   18.0049 O   0  0  0  0  0  0  0  0  0  0  0  0
   -2.0634  -16.4174   18.0658 C   0  0  0  0  0  0  0  0  0  0  0  0
   -2.4262  -17.2314   16.9386 O   0  0  0  0  0  0  0  0  0  0  0  0
  -10.3095  -10.7572   16.6837 O   0  0  0  0  0  0  0  0  0  0  0  0
  -12.5883  -12.3799   17.3251 O   0  0  0  0  0  0  0  0  0  0  0  0
    1.2562  -10.2345   17.7882 N   0  0  0  0  0  0  0  0  0  0  0  0
   -2.7954  -10.6584   15.8234 C   0  0  0  0  0  0  0  0  0  0  0  0
   -2.6018  -10.6473   14.6127 O   0  0  0  0  0  0  0  0  0  0  0  0
   -1.7419  -10.2138   16.8640 C   0  0  1  0  0  0  0  0  0  0  0  0
   -0.5075   -9.6279   16.1492 C   0  0  0  0  0  0  0  0  0  0  0  0
    0.6216   -9.1362   17.0623 C   0  0  0  0  0  0  0  0  0  0  0  0
   -2.3354   -9.2394   17.7515 O   0  0  0  0  0  0  0  0  0  0  0  0
  1  2  1  1  0  0  0
  1  3  1  0  0  0  0
  1  8  1  0  0  0  0
  3  4  1  0  0  0  0
  3 32  1  1  0  0  0
  4  5  1  0  0  0  0
  4 33  1  1  0  0  0
  5  6  1  1  0  0  0
  5  7  1  0  0  0  0
  7  8  1  0  0  0  0
  7  9  1  6  0  0  0
  9 10  1  0  0  0  0
 11 12  1  1  0  0  0
 11 13  1  0  0  0  0
 11 19  1  0  0  0  0
 12 35  1  0  0  0  0
 13 14  1  0  0  0  0
 14 15  1  1  0  0  0
 14 16  1  0  0  0  0
 16  2  1  6  0  0  0
 16 17  1  0  0  0  0
 17 18  1  1  0  0  0
 17 19  1  0  0  0  0
 19 20  1  6  0  0  0
 21 20  1  6  0  0  0
 21 22  1  0  0  0  0
 21 29  1  0  0  0  0
 22 23  1  6  0  0  0
 22 24  1  0  0  0  0
 24 25  1  1  0  0  0
 24 26  1  0  0  0  0
 26 27  1  6  0  0  0
 26 28  1  0  0  0  0
 28 29  1  0  0  0  0
 28 30  1  1  0  0  0
 30 31  1  0  0  0  0
 34 39  1  0  0  0  0
 35 36  2  0  0  0  0
 37 35  1  6  0  0  0
 37 38  1  0  0  0  0
 37 40  1  0  0  0  0
 38 39  1  0  0  0  0
M  END
>  <CHROM.1>
-72.40112428,177.27821914,-85.18810225,-71.92650627,163.14088902,-69.46571269
170.32317937,-174.67698737,179.67722114,66.62492290,-6.33638520,-12.51245673
16.44128873,-3.01860636,0.30547012,2.60383615

>  <Name>
2g5q_lig

>  <RI>
2.47104e+07

>  <Rbt.Current_Directory>
/home/itssahil/PROJECTS/Mol_Feturizer/New_Systems/rnas/2g5q

>  <Rbt.Executable>
rbdock ($Id: //depot/dev/client3/rdock/2013.1/src/exe/rbdock.cxx#4 $)

>  <Rbt.Library>
libRbt.so (2013.1, Build901 2013/11/27)

>  <Rbt.Parameter_File>
/export/apps/rDock/src/rDock_2013.1_src/data/scripts/dock_solv.prm

>  <Rbt.Receptor>
prm/pocket_docking_7.prm

>  <SCORE>
-14.451

>  <SCORE.INTER>
-8.15978

>  <SCORE.INTER.CONST>
1

>  <SCORE.INTER.POLAR>
-1.26232

>  <SCORE.INTER.ROT>
10

>  <SCORE.INTER.SOLV>
12.9842

>  <SCORE.INTER.VDW>
-15.8269

>  <SCORE.INTER.norm>
-0.203994

>  <SCORE.INTRA>
-6.29124

>  <SCORE.INTRA.DIHEDRAL>
-17.6028

>  <SCORE.INTRA.DIHEDRAL.0>
22.5778

>  <SCORE.INTRA.POLAR>
0

>  <SCORE.INTRA.POLAR.0>
0

>  <SCORE.INTRA.REPUL>
0

>  <SCORE.INTRA.REPUL.0>
0

>  <SCORE.INTRA.SOLV>
1.76281

>  <SCORE.INTRA.SOLV.lig_0>
-102.332

>  <SCORE.INTRA.VDW>
1.62875

>  <SCORE.INTRA.VDW.0>
-5.08747

>  <SCORE.INTRA.norm>
-0.157281

>  <SCORE.RESTR>
0

>  <SCORE.RESTR.CAVITY>
0

>  <SCORE.RESTR.norm>
0

>  <SCORE.SYSTEM>
0

>  <SCORE.SYSTEM.CONST>
0

>  <SCORE.SYSTEM.DIHEDRAL>
0

>  <SCORE.SYSTEM.SOLV>
0

>  <SCORE.SYSTEM.norm>
0

>  <SCORE.heavy>
40

>  <SCORE.norm>
-0.361275

>  <RMSD>
11.905

$$$$
2g5q_lig
 OpenBabel11021811433D
libRbt.so/2013.1/901 2013/11/27
 40 42  0  0  0  0  0  0  0  0999 V2000
   11.3758  -10.4830    8.0625 C   0  0  2  0  0  0  0  0  0  0  0  0
   10.3383   -9.5813    8.3789 O   0  0  0  0  0  0  0  0  0  0  0  0
   11.0228  -11.2068    6.7297 C   0  0  1  0  0  0  0  0  0  0  0  0
    9.7797  -12.1366    6.8842 C   0  0  2  0  0  0  0  0  0  0  0  0
   10.1057  -13.1862    7.9783 C   0  0  2  0  0  0  0  0  0  0  0  0
    8.9904  -14.0785    8.1345 O   0  0  0  0  0  0  0  0  0  0  0  0
   10.4145  -12.4178    9.3267 C   0  0  2  0  0  0  0  0  0  0  0  0
   11.5690  -11.4942    9.1350 O   0  0  0  0  0  0  0  0  0  0  0  0
   10.7640  -13.3582   10.4752 C   0  0  0  0  0  0  0  0  0  0  0  0
    9.5639  -14.0966   10.9817 N   0  0  0  0  0  0  0  0  0  0  0  0
    6.4551   -9.3772   10.3679 C   0  0  2  0  0  0  0  0  0  0  0  0
    5.2121   -9.7809   11.0141 N   0  0  0  0  0  0  0  0  0  0  0  0
    6.5274   -9.9704    8.8986 C   0  0  0  0  0  0  0  0  0  0  0  0
    7.8693   -9.5294    8.1921 C   0  0  2  0  0  0  0  0  0  0  0  0
    7.9197  -10.0826    6.8118 N   0  0  0  0  0  0  0  0  0  0  0  0
    9.1027  -10.0158    9.0525 C   0  0  2  0  0  0  0  0  0  0  0  0
    8.9936   -9.4093   10.5075 C   0  0  2  0  0  0  0  0  0  0  0  0
   10.1079   -9.8562   11.2864 O   0  0  0  0  0  0  0  0  0  0  0  0
    7.6557   -9.8741   11.1995 C   0  0  1  0  0  0  0  0  0  0  0  0
    7.5519   -9.3041   12.5347 O   0  0  0  0  0  0  0  0  0  0  0  0
    8.0907   -8.0593   12.9065 C   0  0  2  0  0  0  0  0  0  0  0  0
    7.5663   -7.7317   14.3455 C   0  0  2  0  0  0  0  0  0  0  0  0
    7.9794   -8.7250   15.2282 O   0  0  0  0  0  0  0  0  0  0  0  0
    5.9978   -7.5824   14.3593 C   0  0  1  0  0  0  0  0  0  0  0  0
    5.4860   -7.2639   15.7330 N   0  0  0  0  0  0  0  0  0  0  0  0
    5.5982   -6.4470   13.3353 C   0  0  2  0  0  0  0  0  0  0  0  0
    4.1818   -6.2597   13.3089 O   0  0  0  0  0  0  0  0  0  0  0  0
    6.1482   -6.8343   11.9211 C   0  0  2  0  0  0  0  0  0  0  0  0
    7.6386   -7.0270   11.9567 O   0  0  0  0  0  0  0  0  0  0  0  0
    5.8339   -5.7841   10.8953 C   0  0  0  0  0  0  0  0  0  0  0  0
    6.1378   -4.4681   11.3859 O   0  0  0  0  0  0  0  0  0  0  0  0
   10.7950  -10.1874    5.6967 O   0  0  0  0  0  0  0  0  0  0  0  0
    9.5214  -12.7594    5.6831 O   0  0  0  0  0  0  0  0  0  0  0  0
    1.8212  -12.4755   13.2387 N   0  0  0  0  0  0  0  0  0  0  0  0
    3.9754   -9.1830   10.8159 C   0  0  0  0  0  0  0  0  0  0  0  0
    3.7893   -8.2287   10.0689 O   0  0  0  0  0  0  0  0  0  0  0  0
    2.8587   -9.8441   11.6564 C   0  0  1  0  0  0  0  0  0  0  0  0
    2.6614  -11.3084   11.2147 C   0  0  0  0  0  0  0  0  0  0  0  0
    1.4973  -12.0542   11.8773 C   0  0  0  0  0  0  0  0  0  0  0  0
    3.2132   -9.7703   13.0558 O   0  0  0  0  0  0  0  0  0  0  0  0
  1  2  1  1  0  0  0
  1  3  1  0  0  0  0
  1  8  1  0  0  0  0
  3  4  1  0  0  0  0
  3 32  1  6  0  0  0
  4  5  1  0  0  0  0
  4 33  1  6  0  0  0
  5  6  1  1  0  0  0
  5  7  1  0  0  0  0
  7  8  1  0  0  0  0
  7  9  1  1  0  0  0
  9 10  1  0  0  0  0
 11 12  1  1  0  0  0
 11 13  1  0  0  0  0
 11 19  1  0  0  0  0
 12 35  1  0  0  0  0
 13 14  1  0  0  0  0
 14 15  1  6  0  0  0
 14 16  1  0  0  0  0
 16  2  1  6  0  0  0
 16 17  1  0  0  0  0
 17 18  1  1  0  0  0
 17 19  1  0  0  0  0
 19 20  1  1  0  0  0
 21 20  1  6  0  0  0
 21 22  1  0  0  0  0
 21 29  1  0  0  0  0
 22 23  1  1  0  0  0
 22 24  1  0  0  0  0
 24 25  1  1  0  0  0
 24 26  1  0  0  0  0
 26 27  1  6  0  0  0
 26 28  1  0  0  0  0
 28 29  1  0  0  0  0
 28 30  1  6  0  0  0
 30 31  1  0  0  0  0
 34 39  1  0  0  0  0
 35 36  2  0  0  0  0
 37 35  1  6  0  0  0
 37 38  1  0  0  0  0
 37 40  1  0  0  0  0
 38 39  1  0  0  0  0
M  END
>  <CHROM.1>
82.31999198,-72.79635125,-80.21895869,-126.76467904,-88.52500619,171.33823934
46.56096640,-63.68371844,-174.72602475,-77.23179460,7.31705181,-9.76817997
10.61290753,-0.77903298,0.37382010,0.59755312

>  <Name>
2g5q_lig

>  <RI>
0

>  <Rbt.Current_Directory>
/home/itssahil/PROJECTS/Mol_Feturizer/New_Systems/rnas/2g5q

>  <Rbt.Executable>
rbdock ($Id: //depot/dev/client3/rdock/2013.1/src/exe/rbdock.cxx#4 $)

>  <Rbt.Library>
libRbt.so (2013.1, Build901 2013/11/27)

>  <Rbt.Parameter_File>
/export/apps/rDock/src/rDock_2013.1_src/data/scripts/dock_solv.prm

>  <Rbt.Receptor>
prm/blind_docking_20.prm

>  <SCORE>
17.6719

>  <SCORE.INTER>
1.29391

>  <SCORE.INTER.CONST>
1

>  <SCORE.INTER.POLAR>
-0.117081

>  <SCORE.INTER.ROT>
10

>  <SCORE.INTER.SOLV>
16.4529

>  <SCORE.INTER.VDW>
-14.4981

>  <SCORE.INTER.norm>
0.0323478

>  <SCORE.INTRA>
0.491478

>  <SCORE.INTRA.DIHEDRAL>
-6.26708

>  <SCORE.INTRA.DIHEDRAL.0>
22.5778

>  <SCORE.INTRA.POLAR>
0

>  <SCORE.INTRA.POLAR.0>
0

>  <SCORE.INTRA.REPUL>
0

>  <SCORE.INTRA.REPUL.0>
0

>  <SCORE.INTRA.SOLV>
7.61131

>  <SCORE.INTRA.SOLV.lig_0>
-102.332

>  <SCORE.INTRA.VDW>
-0.180637

>  <SCORE.INTRA.VDW.0>
-5.08747

>  <SCORE.INTRA.norm>
0.012287

>  <SCORE.RESTR>
15.8865

>  <SCORE.RESTR.CAVITY>
15.8865

>  <SCORE.RESTR.norm>
0.397164

>  <SCORE.SYSTEM>
0

>  <SCORE.SYSTEM.CONST>
0

>  <SCORE.SYSTEM.DIHEDRAL>
0

>  <SCORE.SYSTEM.SOLV>
0

>  <SCORE.SYSTEM.norm>
0

>  <SCORE.heavy>
40

>  <SCORE.norm>
0.441798

>  <RMSD>
11.914

$$$$
2g5q_lig
 OpenBabel11021811433D
libRbt.so/2013.1/901 2013/11/27
 40 42  0  0  0  0  0  0  0  0999 V2000
   11.3765  -10.5453    8.1115 C   0  0  2  0  0  0  0  0  0  0  0  0
   10.3236   -9.6363    8.3449 O   0  0  0  0  0  0  0  0  0  0  0  0
   11.0937  -11.3115    6.7857 C   0  0  1  0  0  0  0  0  0  0  0  0
    9.8446  -12.2385    6.9045 C   0  0  2  0  0  0  0  0  0  0  0  0
   10.1135  -13.2525    8.0466 C   0  0  2  0  0  0  0  0  0  0  0  0
    8.9920  -14.1417    8.1726 O   0  0  0  0  0  0  0  0  0  0  0  0
   10.3513  -12.4413    9.3844 C   0  0  2  0  0  0  0  0  0  0  0  0
   11.5139  -11.5219    9.2240 O   0  0  0  0  0  0  0  0  0  0  0  0
   10.6408  -13.3445   10.5786 C   0  0  0  0  0  0  0  0  0  0  0  0
   10.1518  -12.7510   11.8633 N   0  0  0  0  0  0  0  0  0  0  0  0
    6.4354   -9.3357   10.3120 C   0  0  2  0  0  0  0  0  0  0  0  0
    5.1816   -9.7084   10.9561 N   0  0  0  0  0  0  0  0  0  0  0  0
    6.5032   -9.9456    8.8493 C   0  0  0  0  0  0  0  0  0  0  0  0
    7.8570   -9.5383    8.1451 C   0  0  2  0  0  0  0  0  0  0  0  0
    7.9032  -10.1068    6.7708 N   0  0  0  0  0  0  0  0  0  0  0  0
    9.0765  -10.0395    9.0167 C   0  0  2  0  0  0  0  0  0  0  0  0
    8.9722   -9.4158   10.4647 C   0  0  2  0  0  0  0  0  0  0  0  0
   10.0737   -9.8760   11.2539 O   0  0  0  0  0  0  0  0  0  0  0  0
    7.6221   -9.8471   11.1548 C   0  0  1  0  0  0  0  0  0  0  0  0
    7.5230   -9.2613   12.4834 O   0  0  0  0  0  0  0  0  0  0  0  0
    8.1573   -8.0668   12.8696 C   0  0  2  0  0  0  0  0  0  0  0  0
    7.6491   -7.7090   14.3073 C   0  0  2  0  0  0  0  0  0  0  0  0
    7.9734   -8.7392   15.1848 O   0  0  0  0  0  0  0  0  0  0  0  0
    6.0977   -7.4338   14.3104 C   0  0  1  0  0  0  0  0  0  0  0  0
    5.6019   -7.0855   15.6827 N   0  0  0  0  0  0  0  0  0  0  0  0
    5.7995   -6.2620   13.2928 C   0  0  2  0  0  0  0  0  0  0  0  0
    4.4030   -5.9608   13.2571 O   0  0  0  0  0  0  0  0  0  0  0  0
    6.3281   -6.6816   11.8796 C   0  0  2  0  0  0  0  0  0  0  0  0
    7.7978   -6.9942   11.9250 O   0  0  0  0  0  0  0  0  0  0  0  0
    6.1080   -5.6017   10.8602 C   0  0  0  0  0  0  0  0  0  0  0  0
    4.7240   -5.2205   10.7945 O   0  0  0  0  0  0  0  0  0  0  0  0
   10.9197  -10.3256    5.7106 O   0  0  0  0  0  0  0  0  0  0  0  0
    9.6495  -12.8993    5.7117 O   0  0  0  0  0  0  0  0  0  0  0  0
    2.4424  -13.5762   11.5368 N   0  0  0  0  0  0  0  0  0  0  0  0
    3.9619   -9.0758   10.7606 C   0  0  0  0  0  0  0  0  0  0  0  0
    3.8022   -8.1131   10.0183 O   0  0  0  0  0  0  0  0  0  0  0  0
    2.8273   -9.7101   11.5978 C   0  0  1  0  0  0  0  0  0  0  0  0
    3.1184  -11.2058   11.8350 C   0  0  0  0  0  0  0  0  0  0  0  0
    2.0860  -12.1852   11.2648 C   0  0  0  0  0  0  0  0  0  0  0  0
    2.7119   -9.0013   12.8522 O   0  0  0  0  0  0  0  0  0  0  0  0
  1  2  1  1  0  0  0
  1  3  1  0  0  0  0
  1  8  1  0  0  0  0
  3  4  1  0  0  0  0
  3 32  1  6  0  0  0
  4  5  1  0  0  0  0
  4 33  1  6  0  0  0
  5  6  1  1  0  0  0
  5  7  1  0  0  0  0
  7  8  1  0  0  0  0
  7  9  1  1  0  0  0
  9 10  1  0  0  0  0
 11 12  1  1  0  0  0
 11 13  1  0  0  0  0
 11 19  1  0  0  0  0
 12 35  1  0  0  0  0
 13 14  1  0  0  0  0
 14 15  1  6  0  0  0
 14 16  1  0  0  0  0
 16  2  1  6  0  0  0
 16 17  1  0  0  0  0
 17 18  1  1  0  0  0
 17 19  1  0  0  0  0
 19 20  1  1  0  0  0
 21 20  1  6  0  0  0
 21 22  1  0  0  0  0
 21 29  1  0  0  0  0
 22 23  1  1  0  0  0
 22 24  1  0  0  0  0
 24 25  1  1  0  0  0
 24 26  1  0  0  0  0
 26 27  1  6  0  0  0
 26 28  1  0  0  0  0
 28 29  1  0  0  0  0
 28 30  1  6  0  0  0
 30 31  1  0  0  0  0
 34 39  1  0  0  0  0
 35 36  2  0  0  0  0
 37 35  1  6  0  0  0
 37 38  1  0  0  0  0
 37 40  1  0  0  0  0
 38 39  1  0  0  0  0
M  END
>  <CHROM.1>
84.89406476,-149.21210772,-81.24545696,-130.46158644,-92.88959613,173.13665416
-55.56552016,-28.86590642,-118.66547737,-179.98224140,7.35060181,-9.74116105
10.55706557,-0.83442637,0.22905523,0.69007009

>  <Name>
2g5q_lig

>  <RI>
0

>  <Rbt.Current_Directory>
/home/itssahil/PROJECTS/Mol_Feturizer/New_Systems/rnas/2g5q

>  <Rbt.Executable>
rbdock ($Id: //depot/dev/client3/rdock/2013.1/src/exe/rbdock.cxx#4 $)

>  <Rbt.Library>
libRbt.so (2013.1, Build901 2013/11/27)

>  <Rbt.Parameter_File>
/export/apps/rDock/src/rDock_2013.1_src/data/scripts/dock_solv.prm

>  <Rbt.Receptor>
prm/blind_docking_20.prm

>  <SCORE>
17.6345

>  <SCORE.INTER>
-1.29927

>  <SCORE.INTER.CONST>
1

>  <SCORE.INTER.POLAR>
-0.815234

>  <SCORE.INTER.ROT>
10

>  <SCORE.INTER.SOLV>
24.9593

>  <SCORE.INTER.VDW>
-16.7352

>  <SCORE.INTER.norm>
-0.0324818

>  <SCORE.INTRA>
4.49134

>  <SCORE.INTRA.DIHEDRAL>
1.10768

>  <SCORE.INTRA.DIHEDRAL.0>
22.5778

>  <SCORE.INTRA.POLAR>
0

>  <SCORE.INTRA.POLAR.0>
0

>  <SCORE.INTRA.REPUL>
0

>  <SCORE.INTRA.REPUL.0>
0

>  <SCORE.INTRA.SOLV>
6.97078

>  <SCORE.INTRA.SOLV.lig_0>
-102.332

>  <SCORE.INTRA.VDW>
0.452113

>  <SCORE.INTRA.VDW.0>
-5.08747

>  <SCORE.INTRA.norm>
0.112284

>  <SCORE.RESTR>
14.4425

>  <SCORE.RESTR.CAVITY>
14.4425

>  <SCORE.RESTR.norm>
0.361061

>  <SCORE.SYSTEM>
0

>  <SCORE.SYSTEM.CONST>
0

>  <SCORE.SYSTEM.DIHEDRAL>
0

>  <SCORE.SYSTEM.SOLV>
0

>  <SCORE.SYSTEM.norm>
0

>  <SCORE.heavy>
40

>  <SCORE.norm>
0.440863

>  <RMSD>
11.929

$$$$
2g5q_lig
 OpenBabel11021811433D
libRbt.so/2013.1/901 2013/11/27
 40 42  0  0  0  0  0  0  0  0999 V2000
   11.2808  -10.8321    8.0925 C   0  0  2  0  0  0  0  0  0  0  0  0
   10.2249   -9.9021    8.1900 O   0  0  0  0  0  0  0  0  0  0  0  0
   11.0150  -11.7678    6.8765 C   0  0  1  0  0  0  0  0  0  0  0  0
    9.7647  -12.6731    7.1015 C   0  0  2  0  0  0  0  0  0  0  0  0
   10.0192  -13.5262    8.3713 C   0  0  2  0  0  0  0  0  0  0  0  0
    8.8963  -14.3929    8.5999 O   0  0  0  0  0  0  0  0  0  0  0  0
   10.2398  -12.5444    9.5925 C   0  0  2  0  0  0  0  0  0  0  0  0
   11.4043  -11.6522    9.3263 O   0  0  0  0  0  0  0  0  0  0  0  0
   10.5143  -13.2807   10.8995 C   0  0  0  0  0  0  0  0  0  0  0  0
    9.3073  -14.0153   11.3946 N   0  0  0  0  0  0  0  0  0  0  0  0
    6.6549   -9.1900   10.6036 C   0  0  2  0  0  0  0  0  0  0  0  0
    5.4420   -9.4260   11.3774 N   0  0  0  0  0  0  0  0  0  0  0  0
    6.4775   -9.7364    9.1251 C   0  0  0  0  0  0  0  0  0  0  0  0
    7.7869   -9.4763    8.2811 C   0  0  2  0  0  0  0  0  0  0  0  0
    7.6035   -9.9829    6.8942 N   0  0  0  0  0  0  0  0  0  0  0  0
    9.0175  -10.1704    8.9895 C   0  0  2  0  0  0  0  0  0  0  0  0
    9.1592   -9.6050   10.4581 C   0  0  2  0  0  0  0  0  0  0  0  0
   10.2700  -10.2395   11.0996 O   0  0  0  0  0  0  0  0  0  0  0  0
    7.8486   -9.8887   11.2869 C   0  0  1  0  0  0  0  0  0  0  0  0
    7.9772   -9.3560   12.6353 O   0  0  0  0  0  0  0  0  0  0  0  0
    8.4328   -8.0589   12.9324 C   0  0  2  0  0  0  0  0  0  0  0  0
    8.6724   -7.9882   14.4786 C   0  0  2  0  0  0  0  0  0  0  0  0
    9.6237   -8.9352   14.8454 O   0  0  0  0  0  0  0  0  0  0  0  0
    7.3287   -8.2024   15.2730 C   0  0  1  0  0  0  0  0  0  0  0  0
    7.5470   -8.1318   16.7555 N   0  0  0  0  0  0  0  0  0  0  0  0
    6.2950   -7.1021   14.8059 C   0  0  2  0  0  0  0  0  0  0  0  0
    5.0537   -7.2413   15.5000 O   0  0  0  0  0  0  0  0  0  0  0  0
    6.0988   -7.2271   13.2572 C   0  0  2  0  0  0  0  0  0  0  0  0
    7.4083   -7.0772   12.5342 O   0  0  0  0  0  0  0  0  0  0  0  0
    5.1494   -6.1899   12.7312 C   0  0  0  0  0  0  0  0  0  0  0  0
    5.0554   -6.2473   11.2985 O   0  0  0  0  0  0  0  0  0  0  0  0
   10.8545  -10.9335    5.6780 O   0  0  0  0  0  0  0  0  0  0  0  0
    9.5848  -13.4867    6.0045 O   0  0  0  0  0  0  0  0  0  0  0  0
    2.4602  -13.2952   11.5423 N   0  0  0  0  0  0  0  0  0  0  0  0
    4.1536   -9.1237   10.9591 C   0  0  0  0  0  0  0  0  0  0  0  0
    3.8888   -8.6094    9.8780 O   0  0  0  0  0  0  0  0  0  0  0  0
    3.0879   -9.4922   12.0169 C   0  0  1  0  0  0  0  0  0  0  0  0
    3.1042  -11.0123   12.2762 C   0  0  0  0  0  0  0  0  0  0  0  0
    2.5208  -11.8860   11.1596 C   0  0  0  0  0  0  0  0  0  0  0  0
    3.3549   -8.7582   13.2331 O   0  0  0  0  0  0  0  0  0  0  0  0
  1  2  1  1  0  0  0
  1  3  1  0  0  0  0
  1  8  1  0  0  0  0
  3  4  1  0  0  0  0
  3 32  1  6  0  0  0
  4  5  1  0  0  0  0
  4 33  1  6  0  0  0
  5  6  1  1  0  0  0
  5  7  1  0  0  0  0
  7  8  1  0  0  0  0
  7  9  1  1  0  0  0
  9 10  1  0  0  0  0
 11 12  1  1  0  0  0
 11 13  1  0  0  0  0
 11 19  1  0  0  0  0
 12 35  1  0  0  0  0
 13 14  1  0  0  0  0
 14 15  1  6  0  0  0
 14 16  1  0  0  0  0
 16  2  1  6  0  0  0
 16 17  1  0  0  0  0
 17 18  1  1  0  0  0
 17 19  1  0  0  0  0
 19 20  1  1  0  0  0
 21 20  1  1  0  0  0
 21 22  1  0  0  0  0
 21 29  1  0  0  0  0
 22 23  1  1  0  0  0
 22 24  1  0  0  0  0
 24 25  1  1  0  0  0
 24 26  1  0  0  0  0
 26 27  1  1  0  0  0
 26 28  1  0  0  0  0
 28 29  1  0  0  0  0
 28 30  1  6  0  0  0
 30 31  1  0  0  0  0
 34 39  1  0  0  0  0
 35 36  2  0  0  0  0
 37 35  1  6  0  0  0
 37 38  1  0  0  0  0
 37 40  1  0  0  0  0
 38 39  1  0  0  0  0
M  END
>  <CHROM.1>
90.22856610,-68.96266708,-48.34015425,-146.97258006,-71.50807028,-169.57826033
175.56680220,-62.12480799,-72.85534833,-174.55076979,7.52496562,-10.01213788
10.90195436,-0.96946549,0.00085850,0.95728495

>  <Name>
2g5q_lig

>  <RI>
0

>  <Rbt.Current_Directory>
/home/itssahil/PROJECTS/Mol_Feturizer/New_Systems/rnas/2g5q

>  <Rbt.Executable>
rbdock ($Id: //depot/dev/client3/rdock/2013.1/src/exe/rbdock.cxx#4 $)

>  <Rbt.Library>
libRbt.so (2013.1, Build901 2013/11/27)

>  <Rbt.Parameter_File>
/export/apps/rDock/src/rDock_2013.1_src/data/scripts/dock_solv.prm

>  <Rbt.Receptor>
prm/blind_docking_20.prm

>  <SCORE>
12.7973

>  <SCORE.INTER>
-0.337553

>  <SCORE.INTER.CONST>
1

>  <SCORE.INTER.POLAR>
-0.140213

>  <SCORE.INTER.ROT>
10

>  <SCORE.INTER.SOLV>
21.1471

>  <SCORE.INTER.VDW>
-17.0733

>  <SCORE.INTER.norm>
-0.00843884

>  <SCORE.INTRA>
-2.5151

>  <SCORE.INTRA.DIHEDRAL>
-11.668

>  <SCORE.INTRA.DIHEDRAL.0>
22.5778

>  <SCORE.INTRA.POLAR>
0

>  <SCORE.INTRA.POLAR.0>
0

>  <SCORE.INTRA.REPUL>
0

>  <SCORE.INTRA.REPUL.0>
0

>  <SCORE.INTRA.SOLV>
5.52579

>  <SCORE.INTRA.SOLV.lig_0>
-102.332

>  <SCORE.INTRA.VDW>
0.556011

>  <SCORE.INTRA.VDW.0>
-5.08747

>  <SCORE.INTRA.norm>
-0.0628774

>  <SCORE.RESTR>
15.65

>  <SCORE.RESTR.CAVITY>
15.65

>  <SCORE.RESTR.norm>
0.391249

>  <SCORE.SYSTEM>
0

>  <SCORE.SYSTEM.CONST>
0

>  <SCORE.SYSTEM.DIHEDRAL>
0

>  <SCORE.SYSTEM.SOLV>
0

>  <SCORE.SYSTEM.norm>
0

>  <SCORE.heavy>
40

>  <SCORE.norm>
0.319933

>  <RMSD>
11.941

$$$$
2g5q_lig
 OpenBabel11021811433D
libRbt.so/2013.1/901 2013/11/27
 40 42  0  0  0  0  0  0  0  0999 V2000
    9.0824  -12.9476    7.6321 C   0  0  2  0  0  0  0  0  0  0  0  0
    8.6225  -13.1857    8.9441 O   0  0  0  0  0  0  0  0  0  0  0  0
   10.6340  -12.8189    7.6595 C   0  0  1  0  0  0  0  0  0  0  0  0
   11.0987  -11.5473    8.4344 C   0  0  2  0  0  0  0  0  0  0  0  0
   10.4844  -10.3108    7.7283 C   0  0  2  0  0  0  0  0  0  0  0  0
   10.9092   -9.1141    8.4007 O   0  0  0  0  0  0  0  0  0  0  0  0
    8.9088  -10.4537    7.7593 C   0  0  2  0  0  0  0  0  0  0  0  0
    8.4960  -11.7057    7.0629 O   0  0  0  0  0  0  0  0  0  0  0  0
    8.1972   -9.2912    7.0752 C   0  0  0  0  0  0  0  0  0  0  0  0
    6.7078   -9.4068    7.1758 N   0  0  0  0  0  0  0  0  0  0  0  0
    7.8923  -11.1724   12.7508 C   0  0  2  0  0  0  0  0  0  0  0  0
    7.8600  -10.1460   13.7857 N   0  0  0  0  0  0  0  0  0  0  0  0
    9.3900  -11.4751   12.3249 C   0  0  0  0  0  0  0  0  0  0  0  0
    9.4301  -12.5918   11.2088 C   0  0  2  0  0  0  0  0  0  0  0  0
   10.8400  -12.8743   10.8264 N   0  0  0  0  0  0  0  0  0  0  0  0
    8.5787  -12.1227    9.9625 C   0  0  2  0  0  0  0  0  0  0  0  0
    7.0973  -11.8271   10.4261 C   0  0  2  0  0  0  0  0  0  0  0  0
    6.3300  -11.3965    9.2975 O   0  0  0  0  0  0  0  0  0  0  0  0
    7.0790  -10.6999   11.5280 C   0  0  1  0  0  0  0  0  0  0  0  0
    5.7146  -10.4384   11.9619 O   0  0  0  0  0  0  0  0  0  0  0  0
    4.8328   -9.5582   11.3094 C   0  0  2  0  0  0  0  0  0  0  0  0
    3.9956   -8.8282   12.4136 C   0  0  2  0  0  0  0  0  0  0  0  0
    4.8508   -8.1254   13.2568 O   0  0  0  0  0  0  0  0  0  0  0  0
    3.1148   -9.8495   13.2282 C   0  0  1  0  0  0  0  0  0  0  0  0
    2.3053   -9.1591   14.2857 N   0  0  0  0  0  0  0  0  0  0  0  0
    2.1753  -10.6144   12.2136 C   0  0  2  0  0  0  0  0  0  0  0  0
    1.3435  -11.5537   12.8977 O   0  0  0  0  0  0  0  0  0  0  0  0
    3.0703  -11.3218   11.1406 C   0  0  2  0  0  0  0  0  0  0  0  0
    3.9401  -10.3270   10.4239 O   0  0  0  0  0  0  0  0  0  0  0  0
    2.2445  -12.0474   10.1183 C   0  0  0  0  0  0  0  0  0  0  0  0
    1.9156  -13.3747   10.5599 O   0  0  0  0  0  0  0  0  0  0  0  0
   11.1879  -14.0379    8.2639 O   0  0  0  0  0  0  0  0  0  0  0  0
   12.4743  -11.4767    8.4158 O   0  0  0  0  0  0  0  0  0  0  0  0
    7.3331   -4.7467   13.0973 N   0  0  0  0  0  0  0  0  0  0  0  0
    8.4132   -8.8781   13.6738 C   0  0  0  0  0  0  0  0  0  0  0  0
    9.0066   -8.4764   12.6789 O   0  0  0  0  0  0  0  0  0  0  0  0
    8.2129   -8.0319   14.9522 C   0  0  1  0  0  0  0  0  0  0  0  0
    8.1904   -6.5318   14.5949 C   0  0  0  0  0  0  0  0  0  0  0  0
    7.1035   -6.0979   13.6046 C   0  0  0  0  0  0  0  0  0  0  0  0
    6.9797   -8.4283   15.5937 O   0  0  0  0  0  0  0  0  0  0  0  0
  1  2  1  1  0  0  0
  1  3  1  0  0  0  0
  1  8  1  0  0  0  0
  3  4  1  0  0  0  0
  3 32  1  1  0  0  0
  4  5  1  0  0  0  0
  4 33  1  6  0  0  0
  5  6  1  1  0  0  0
  5  7  1  0  0  0  0
  7  8  1  0  0  0  0
  7  9  1  6  0  0  0
  9 10  1  0  0  0  0
 11 12  1  1  0  0  0
 11 13  1  0  0  0  0
 11 19  1  0  0  0  0
 12 35  1  0  0  0  0
 13 14  1  0  0  0  0
 14 15  1  6  0  0  0
 14 16  1  0  0  0  0
 16  2  1  6  0  0  0
 16 17  1  0  0  0  0
 17 18  1  6  0  0  0
 17 19  1  0  0  0  0
 19 20  1  1  0  0  0
 21 20  1  1  0  0  0
 21 22  1  0  0  0  0
 21 29  1  0  0  0  0
 22 23  1  1  0  0  0
 22 24  1  0  0  0  0
 24 25  1  1  0  0  0
 24 26  1  0  0  0  0
 26 27  1  1  0  0  0
 26 28  1  0  0  0  0
 28 29  1  0  0  0  0
 28 30  1  6  0  0  0
 30 31  1  0  0  0  0
 34 39  1  0  0  0  0
 35 36  2  0  0  0  0
 37 35  1  6  0  0  0
 37 38  1  0  0  0  0
 37 40  1  0  0  0  0
 38 39  1  0  0  0  0
M  END
>  <CHROM.1>
74.57216393,-177.04515570,56.47508883,-123.22675627,155.35637372,-142.56704156
-86.10731345,-152.57211864,58.92783034,-167.32292594,7.14022921,-10.43768889
10.94932509,0.68419162,-0.20689329,-2.29327704

>  <Name>
2g5q_lig

>  <RI>
0

>  <Rbt.Current_Directory>
/home/itssahil/PROJECTS/Mol_Feturizer/New_Systems/rnas/2g5q

>  <Rbt.Executable>
rbdock ($Id: //depot/dev/client3/rdock/2013.1/src/exe/rbdock.cxx#4 $)

>  <Rbt.Library>
libRbt.so (2013.1, Build901 2013/11/27)

>  <Rbt.Parameter_File>
/export/apps/rDock/src/rDock_2013.1_src/data/scripts/dock_solv.prm

>  <Rbt.Receptor>
prm/blind_docking_20.prm

>  <SCORE>
23.7366

>  <SCORE.INTER>
0.572861

>  <SCORE.INTER.CONST>
1

>  <SCORE.INTER.POLAR>
-0.845478

>  <SCORE.INTER.ROT>
10

>  <SCORE.INTER.SOLV>
26.2917

>  <SCORE.INTER.VDW>
-15.8304

>  <SCORE.INTER.norm>
0.0143215

>  <SCORE.INTRA>
2.78819

>  <SCORE.INTRA.DIHEDRAL>
-2.60327

>  <SCORE.INTRA.DIHEDRAL.0>
22.5778

>  <SCORE.INTRA.POLAR>
0

>  <SCORE.INTRA.POLAR.0>
0

>  <SCORE.INTRA.REPUL>
0.0301082

>  <SCORE.INTRA.REPUL.0>
0

>  <SCORE.INTRA.SOLV>
7.3754

>  <SCORE.INTRA.SOLV.lig_0>
-102.332

>  <SCORE.INTRA.VDW>
0.251582

>  <SCORE.INTRA.VDW.0>
-5.08747

>  <SCORE.INTRA.norm>
0.0697047

>  <SCORE.RESTR>
20.3756

>  <SCORE.RESTR.CAVITY>
20.3756

>  <SCORE.RESTR.norm>
0.509389

>  <SCORE.SYSTEM>
0

>  <SCORE.SYSTEM.CONST>
0

>  <SCORE.SYSTEM.DIHEDRAL>
0

>  <SCORE.SYSTEM.SOLV>
0

>  <SCORE.SYSTEM.norm>
0

>  <SCORE.heavy>
40

>  <SCORE.norm>
0.593416

>  <RMSD>
11.948

$$$$
2g5q_lig
 OpenBabel11021811433D
libRbt.so/2013.1/901 2013/11/27
 40 42  0  0  0  0  0  0  0  0999 V2000
   11.4025  -11.2431    8.1913 C   0  0  2  0  0  0  0  0  0  0  0  0
   10.5898  -10.1238    8.4675 O   0  0  0  0  0  0  0  0  0  0  0  0
   10.7878  -12.0267    6.9943 C   0  0  1  0  0  0  0  0  0  0  0  0
    9.4142  -12.6680    7.3626 C   0  0  2  0  0  0  0  0  0  0  0  0
    9.6456  -13.6324    8.5547 C   0  0  2  0  0  0  0  0  0  0  0  0
    8.4041  -14.2624    8.9101 O   0  0  0  0  0  0  0  0  0  0  0  0
   10.2269  -12.7948    9.7649 C   0  0  2  0  0  0  0  0  0  0  0  0
   11.5091  -12.1461    9.3674 O   0  0  0  0  0  0  0  0  0  0  0  0
   10.5073  -13.6516   10.9949 C   0  0  0  0  0  0  0  0  0  0  0  0
    9.2493  -14.1887   11.6040 N   0  0  0  0  0  0  0  0  0  0  0  0
    6.6578   -9.0298   10.0232 C   0  0  2  0  0  0  0  0  0  0  0  0
    5.2911   -9.1361   10.5197 N   0  0  0  0  0  0  0  0  0  0  0  0
    6.7570   -9.6270    8.5571 C   0  0  0  0  0  0  0  0  0  0  0  0
    8.2347   -9.5073    8.0125 C   0  0  2  0  0  0  0  0  0  0  0  0
    8.3117  -10.0604    6.6334 N   0  0  0  0  0  0  0  0  0  0  0  0
    9.2201  -10.2617    8.9912 C   0  0  2  0  0  0  0  0  0  0  0  0
    9.0900   -9.6430   10.4393 C   0  0  2  0  0  0  0  0  0  0  0  0
    9.9784  -10.3318   11.3249 O   0  0  0  0  0  0  0  0  0  0  0  0
    7.6124   -9.7869   10.9695 C   0  0  1  0  0  0  0  0  0  0  0  0
    7.4926   -9.2053   12.2983 O   0  0  0  0  0  0  0  0  0  0  0  0
    8.1354   -8.0219   12.7038 C   0  0  2  0  0  0  0  0  0  0  0  0
    7.6529   -7.7005   14.1588 C   0  0  2  0  0  0  0  0  0  0  0  0
    7.9909   -8.7532   15.0039 O   0  0  0  0  0  0  0  0  0  0  0  0
    6.1023   -7.4236   14.1960 C   0  0  1  0  0  0  0  0  0  0  0  0
    5.6310   -7.1101   15.5853 N   0  0  0  0  0  0  0  0  0  0  0  0
    5.7883   -6.2258   13.2142 C   0  0  2  0  0  0  0  0  0  0  0  0
    4.3919   -5.9222   13.2106 O   0  0  0  0  0  0  0  0  0  0  0  0
    6.2915   -6.6096   11.7816 C   0  0  2  0  0  0  0  0  0  0  0  0
    7.7612   -6.9251   11.7934 O   0  0  0  0  0  0  0  0  0  0  0  0
    6.0554   -5.5037   10.7943 C   0  0  0  0  0  0  0  0  0  0  0  0
    4.6986   -5.0340   10.8516 O   0  0  0  0  0  0  0  0  0  0  0  0
   10.6528  -11.1043    5.8589 O   0  0  0  0  0  0  0  0  0  0  0  0
    8.9243  -13.3574    6.2753 O   0  0  0  0  0  0  0  0  0  0  0  0
    1.6746  -12.3622   10.3034 N   0  0  0  0  0  0  0  0  0  0  0  0
    4.7215  -10.2815   11.0581 C   0  0  0  0  0  0  0  0  0  0  0  0
    5.3115  -11.3503   11.1709 O   0  0  0  0  0  0  0  0  0  0  0  0
    3.2514  -10.0647   11.4851 C   0  0  1  0  0  0  0  0  0  0  0  0
    2.7433  -11.2901   12.2714 C   0  0  0  0  0  0  0  0  0  0  0  0
    2.5491  -12.5732   11.4552 C   0  0  0  0  0  0  0  0  0  0  0  0
    3.1633   -8.8646   12.2860 O   0  0  0  0  0  0  0  0  0  0  0  0
  1  2  1  1  0  0  0
  1  3  1  0  0  0  0
  1  8  1  0  0  0  0
  3  4  1  0  0  0  0
  3 32  1  6  0  0  0
  4  5  1  0  0  0  0
  4 33  1  6  0  0  0
  5  6  1  1  0  0  0
  5  7  1  0  0  0  0
  7  8  1  0  0  0  0
  7  9  1  1  0  0  0
  9 10  1  0  0  0  0
 11 12  1  1  0  0  0
 11 13  1  0  0  0  0
 11 19  1  0  0  0  0
 12 35  1  0  0  0  0
 13 14  1  0  0  0  0
 14 15  1  6  0  0  0
 14 16  1  0  0  0  0
 16  2  1  6  0  0  0
 16 17  1  0  0  0  0
 17 18  1  1  0  0  0
 17 19  1  0  0  0  0
 19 20  1  1  0  0  0
 21 20  1  6  0  0  0
 21 22  1  0  0  0  0
 21 29  1  0  0  0  0
 22 23  1  1  0  0  0
 22 24  1  0  0  0  0
 24 25  1  1  0  0  0
 24 26  1  0  0  0  0
 26 27  1  6  0  0  0
 26 28  1  0  0  0  0
 28 29  1  0  0  0  0
 28 30  1  6  0  0  0
 30 31  1  0  0  0  0
 34 39  1  0  0  0  0
 35 36  2  0  0  0  0
 37 35  1  1  0  0  0
 37 38  1  0  0  0  0
 37 40  1  0  0  0  0
 38 39  1  0  0  0  0
M  END
>  <CHROM.1>
67.09890228,-67.09703096,80.52545366,-123.98625039,-80.54653527,175.81297995
-50.15329904,-171.16190684,-69.72024375,-54.68973705,7.35376380,-9.99095496
10.58594503,-0.88242200,0.29869083,0.54800595

>  <Name>
2g5q_lig

>  <RI>
0

>  <Rbt.Current_Directory>
/home/itssahil/PROJECTS/Mol_Feturizer/New_Systems/rnas/2g5q

>  <Rbt.Executable>
rbdock ($Id: //depot/dev/client3/rdock/2013.1/src/exe/rbdock.cxx#4 $)

>  <Rbt.Library>
libRbt.so (2013.1, Build901 2013/11/27)

>  <Rbt.Parameter_File>
/export/apps/rDock/src/rDock_2013.1_src/data/scripts/dock_solv.prm

>  <Rbt.Receptor>
prm/blind_docking_20.prm

>  <SCORE>
11.6896

>  <SCORE.INTER>
-4.0436

>  <SCORE.INTER.CONST>
1

>  <SCORE.INTER.POLAR>
-0.861987

>  <SCORE.INTER.ROT>
10

>  <SCORE.INTER.SOLV>
24.3889

>  <SCORE.INTER.VDW>
-18.2188

>  <SCORE.INTER.norm>
-0.10109

>  <SCORE.INTRA>
0.216419

>  <SCORE.INTRA.DIHEDRAL>
-11.0537

>  <SCORE.INTRA.DIHEDRAL.0>
22.5778

>  <SCORE.INTRA.POLAR>
0

>  <SCORE.INTRA.POLAR.0>
0

>  <SCORE.INTRA.REPUL>
0

>  <SCORE.INTRA.REPUL.0>
0

>  <SCORE.INTRA.SOLV>
8.30467

>  <SCORE.INTRA.SOLV.lig_0>
-102.332

>  <SCORE.INTRA.VDW>
1.59095

>  <SCORE.INTRA.VDW.0>
-5.08747

>  <SCORE.INTRA.norm>
0.00541048

>  <SCORE.RESTR>
15.5168

>  <SCORE.RESTR.CAVITY>
15.5168

>  <SCORE.RESTR.norm>
0.387919

>  <SCORE.SYSTEM>
0

>  <SCORE.SYSTEM.CONST>
0

>  <SCORE.SYSTEM.DIHEDRAL>
0

>  <SCORE.SYSTEM.SOLV>
0

>  <SCORE.SYSTEM.norm>
0

>  <SCORE.heavy>
40

>  <SCORE.norm>
0.292239

>  <RMSD>
11.958

$$$$
2g5q_lig
 OpenBabel11021811433D
libRbt.so/2013.1/901 2013/11/27
 40 42  0  0  0  0  0  0  0  0999 V2000
    9.5034  -13.0746    9.0702 C   0  0  2  0  0  0  0  0  0  0  0  0
    9.7652  -12.0878   10.0435 O   0  0  0  0  0  0  0  0  0  0  0  0
   10.8500  -13.5065    8.4183 C   0  0  1  0  0  0  0  0  0  0  0  0
   11.4917  -12.3516    7.5888 C   0  0  2  0  0  0  0  0  0  0  0  0
   10.4830  -11.9446    6.4834 C   0  0  2  0  0  0  0  0  0  0  0  0
   11.0483  -10.8956    5.6807 O   0  0  0  0  0  0  0  0  0  0  0  0
    9.1453  -11.4697    7.1829 C   0  0  2  0  0  0  0  0  0  0  0  0
    8.5847  -12.5728    8.0146 O   0  0  0  0  0  0  0  0  0  0  0  0
    8.0709  -11.0566    6.1826 C   0  0  0  0  0  0  0  0  0  0  0  0
    6.8529  -10.5099    6.8603 N   0  0  0  0  0  0  0  0  0  0  0  0
    7.3397   -8.9497   11.8729 C   0  0  2  0  0  0  0  0  0  0  0  0
    6.5363   -7.7440   12.0355 N   0  0  0  0  0  0  0  0  0  0  0  0
    8.7841   -8.5779   11.3331 C   0  0  0  0  0  0  0  0  0  0  0  0
    9.6603   -9.8808   11.1623 C   0  0  2  0  0  0  0  0  0  0  0  0
   11.0154   -9.5175   10.6664 N   0  0  0  0  0  0  0  0  0  0  0  0
    8.9345  -10.8787   10.1747 C   0  0  2  0  0  0  0  0  0  0  0  0
    7.5004  -11.2216   10.7427 C   0  0  2  0  0  0  0  0  0  0  0  0
    6.8427  -12.1202    9.8438 O   0  0  0  0  0  0  0  0  0  0  0  0
    6.6381   -9.9103   10.8906 C   0  0  1  0  0  0  0  0  0  0  0  0
    5.3222  -10.2275   11.4254 O   0  0  0  0  0  0  0  0  0  0  0  0
    4.1171   -9.7088   10.9185 C   0  0  2  0  0  0  0  0  0  0  0  0
    3.3576   -9.0350   12.1110 C   0  0  2  0  0  0  0  0  0  0  0  0
    4.1408   -8.0160   12.6446 O   0  0  0  0  0  0  0  0  0  0  0  0
    2.9801  -10.0929   13.2159 C   0  0  1  0  0  0  0  0  0  0  0  0
    2.2479   -9.4577   14.3608 N   0  0  0  0  0  0  0  0  0  0  0  0
    2.0995  -11.2199   12.5438 C   0  0  2  0  0  0  0  0  0  0  0  0
    1.7185  -12.2089   13.5024 O   0  0  0  0  0  0  0  0  0  0  0  0
    2.9135  -11.8529   11.3651 C   0  0  2  0  0  0  0  0  0  0  0  0
    3.3082  -10.8070   10.3601 O   0  0  0  0  0  0  0  0  0  0  0  0
    2.1273  -12.9159   10.6539 C   0  0  0  0  0  0  0  0  0  0  0  0
    2.0365  -14.1134   11.4429 O   0  0  0  0  0  0  0  0  0  0  0  0
   11.7552  -13.9578    9.4838 O   0  0  0  0  0  0  0  0  0  0  0  0
   12.6694  -12.7914    7.0258 O   0  0  0  0  0  0  0  0  0  0  0  0
    7.2964   -5.8556   10.2042 N   0  0  0  0  0  0  0  0  0  0  0  0
    6.8368   -6.6903   12.8874 C   0  0  0  0  0  0  0  0  0  0  0  0
    7.8231   -6.6592   13.6150 O   0  0  0  0  0  0  0  0  0  0  0  0
    5.7783   -5.5647   12.8299 C   0  0  1  0  0  0  0  0  0  0  0  0
    5.1616   -5.4908   11.4184 C   0  0  0  0  0  0  0  0  0  0  0  0
    6.1020   -5.0192   10.3032 C   0  0  0  0  0  0  0  0  0  0  0  0
    4.7614   -5.8203   13.8248 O   0  0  0  0  0  0  0  0  0  0  0  0
  1  2  1  1  0  0  0
  1  3  1  0  0  0  0
  1  8  1  0  0  0  0
  3  4  1  0  0  0  0
  3 32  1  1  0  0  0
  4  5  1  0  0  0  0
  4 33  1  6  0  0  0
  5  6  1  1  0  0  0
  5  7  1  0  0  0  0
  7  8  1  0  0  0  0
  7  9  1  6  0  0  0
  9 10  1  0  0  0  0
 11 12  1  6  0  0  0
 11 13  1  0  0  0  0
 11 19  1  0  0  0  0
 12 35  1  0  0  0  0
 13 14  1  0  0  0  0
 14 15  1  6  0  0  0
 14 16  1  0  0  0  0
 16  2  1  1  0  0  0
 16 17  1  0  0  0  0
 17 18  1  6  0  0  0
 17 19  1  0  0  0  0
 19 20  1  1  0  0  0
 21 20  1  1  0  0  0
 21 22  1  0  0  0  0
 21 29  1  0  0  0  0
 22 23  1  1  0  0  0
 22 24  1  0  0  0  0
 24 25  1  1  0  0  0
 24 26  1  0  0  0  0
 26 27  1  1  0  0  0
 26 28  1  0  0  0  0
 28 29  1  0  0  0  0
 28 30  1  6  0  0  0
 30 31  1  0  0  0  0
 34 39  1  0  0  0  0
 35 36  2  0  0  0  0
 37 35  1  6  0  0  0
 37 38  1  0  0  0  0
 37 40  1  0  0  0  0
 38 39  1  0  0  0  0
M  END
>  <CHROM.1>
136.47247790,-175.53102220,-61.48389934,-169.54622296,105.78475222,-125.30331321
-73.63968081,-31.19875294,-67.90426163,56.94460646,6.83705913,-10.17819300
10.50490980,0.56168320,-0.42818615,-2.74442937

>  <Name>
2g5q_lig

>  <RI>
0

>  <Rbt.Current_Directory>
/home/itssahil/PROJECTS/Mol_Feturizer/New_Systems/rnas/2g5q

>  <Rbt.Executable>
rbdock ($Id: //depot/dev/client3/rdock/2013.1/src/exe/rbdock.cxx#4 $)

>  <Rbt.Library>
libRbt.so (2013.1, Build901 2013/11/27)

>  <Rbt.Parameter_File>
/export/apps/rDock/src/rDock_2013.1_src/data/scripts/dock_solv.prm

>  <Rbt.Receptor>
prm/blind_docking_20.prm

>  <SCORE>
19.7563

>  <SCORE.INTER>
-3.27444

>  <SCORE.INTER.CONST>
1

>  <SCORE.INTER.POLAR>
-0.415038

>  <SCORE.INTER.ROT>
10

>  <SCORE.INTER.SOLV>
21.1417

>  <SCORE.INTER.VDW>
-18.1134

>  <SCORE.INTER.norm>
-0.081861

>  <SCORE.INTRA>
5.38317

>  <SCORE.INTRA.DIHEDRAL>
-0.240032

>  <SCORE.INTRA.DIHEDRAL.0>
22.5778

>  <SCORE.INTRA.POLAR>
0

>  <SCORE.INTRA.POLAR.0>
0

>  <SCORE.INTRA.REPUL>
0.0254364

>  <SCORE.INTRA.REPUL.0>
0

>  <SCORE.INTRA.SOLV>
8.26887

>  <SCORE.INTRA.SOLV.lig_0>
-102.332

>  <SCORE.INTRA.VDW>
1.24157

>  <SCORE.INTRA.VDW.0>
-5.08747

>  <SCORE.INTRA.norm>
0.134579

>  <SCORE.RESTR>
17.6476

>  <SCORE.RESTR.CAVITY>
17.6476

>  <SCORE.RESTR.norm>
0.44119

>  <SCORE.SYSTEM>
0

>  <SCORE.SYSTEM.CONST>
0

>  <SCORE.SYSTEM.DIHEDRAL>
0

>  <SCORE.SYSTEM.SOLV>
0

>  <SCORE.SYSTEM.norm>
0

>  <SCORE.heavy>
40

>  <SCORE.norm>
0.493909

>  <RMSD>
11.976

$$$$
2g5q_lig
 OpenBabel11021811433D
libRbt.so/2013.1/901 2013/11/27
 40 42  0  0  0  0  0  0  0  0999 V2000
   10.3268  -10.7300    9.1823 C   0  0  2  0  0  0  0  0  0  0  0  0
    9.6080  -11.7162    9.8896 O   0  0  0  0  0  0  0  0  0  0  0  0
    9.6902  -10.5599    7.7714 C   0  0  1  0  0  0  0  0  0  0  0  0
    9.8770  -11.8344    6.8914 C   0  0  2  0  0  0  0  0  0  0  0  0
   11.3993  -12.0940    6.7498 C   0  0  2  0  0  0  0  0  0  0  0  0
   11.6141  -13.2502    5.9242 O   0  0  0  0  0  0  0  0  0  0  0  0
   12.0030  -12.3065    8.1970 C   0  0  2  0  0  0  0  0  0  0  0  0
   11.7597  -11.0971    9.0342 O   0  0  0  0  0  0  0  0  0  0  0  0
   13.5071  -12.5574    8.1780 C   0  0  0  0  0  0  0  0  0  0  0  0
   14.2721  -11.3516    7.7281 N   0  0  0  0  0  0  0  0  0  0  0  0
    5.5580  -10.4838   10.9647 C   0  0  2  0  0  0  0  0  0  0  0  0
    4.3730  -10.1758   11.7563 N   0  0  0  0  0  0  0  0  0  0  0  0
    5.9678  -12.0037   11.1591 C   0  0  0  0  0  0  0  0  0  0  0  0
    7.2471  -12.3436   10.2975 C   0  0  2  0  0  0  0  0  0  0  0  0
    7.6143  -13.7739   10.4799 N   0  0  0  0  0  0  0  0  0  0  0  0
    8.4338  -11.3869   10.7154 C   0  0  2  0  0  0  0  0  0  0  0  0
    7.9873   -9.8849   10.5124 C   0  0  2  0  0  0  0  0  0  0  0  0
    9.0609   -9.0205   10.8974 O   0  0  0  0  0  0  0  0  0  0  0  0
    6.7195   -9.5629   11.3923 C   0  0  1  0  0  0  0  0  0  0  0  0
    6.3031   -8.1825   11.1940 O   0  0  0  0  0  0  0  0  0  0  0  0
    5.4576   -7.4786   12.0703 C   0  0  2  0  0  0  0  0  0  0  0  0
    5.4984   -5.9700   11.6514 C   0  0  2  0  0  0  0  0  0  0  0  0
    5.0566   -5.8401   10.3382 O   0  0  0  0  0  0  0  0  0  0  0  0
    6.9460   -5.3713   11.8206 C   0  0  1  0  0  0  0  0  0  0  0  0
    6.9944   -3.9248   11.4261 N   0  0  0  0  0  0  0  0  0  0  0  0
    7.3865   -5.5562   13.3270 C   0  0  2  0  0  0  0  0  0  0  0  0
    8.6945   -5.0232   13.5448 O   0  0  0  0  0  0  0  0  0  0  0  0
    7.3263   -7.0805   13.6812 C   0  0  2  0  0  0  0  0  0  0  0  0
    5.9471   -7.6329   13.4519 O   0  0  0  0  0  0  0  0  0  0  0  0
    7.7030   -7.3345   15.1120 C   0  0  0  0  0  0  0  0  0  0  0  0
    8.0439   -8.7141   15.3248 O   0  0  0  0  0  0  0  0  0  0  0  0
    8.2667  -10.2399    7.9424 O   0  0  0  0  0  0  0  0  0  0  0  0
    9.3087  -11.6243    5.6543 O   0  0  0  0  0  0  0  0  0  0  0  0
    3.8635   -8.5275   14.4774 N   0  0  0  0  0  0  0  0  0  0  0  0
    3.2260  -10.9549   11.8176 C   0  0  0  0  0  0  0  0  0  0  0  0
    3.0766  -12.0017   11.1969 O   0  0  0  0  0  0  0  0  0  0  0  0
    2.1481  -10.3463   12.7440 C   0  0  1  0  0  0  0  0  0  0  0  0
    2.5169  -10.5975   14.2201 C   0  0  0  0  0  0  0  0  0  0  0  0
    3.8338   -9.9724   14.6946 C   0  0  0  0  0  0  0  0  0  0  0  0
    2.0360   -8.9308   12.4735 O   0  0  0  0  0  0  0  0  0  0  0  0
  1  2  1  6  0  0  0
  1  3  1  0  0  0  0
  1  8  1  0  0  0  0
  3  4  1  0  0  0  0
  3 32  1  1  0  0  0
  4  5  1  0  0  0  0
  4 33  1  6  0  0  0
  5  6  1  6  0  0  0
  5  7  1  0  0  0  0
  7  8  1  0  0  0  0
  7  9  1  6  0  0  0
  9 10  1  0  0  0  0
 11 12  1  1  0  0  0
 11 13  1  0  0  0  0
 11 19  1  0  0  0  0
 12 35  1  0  0  0  0
 13 14  1  0  0  0  0
 14 15  1  1  0  0  0
 14 16  1  0  0  0  0
 16  2  1  6  0  0  0
 16 17  1  0  0  0  0
 17 18  1  1  0  0  0
 17 19  1  0  0  0  0
 19 20  1  6  0  0  0
 21 20  1  6  0  0  0
 21 22  1  0  0  0  0
 21 29  1  0  0  0  0
 22 23  1  6  0  0  0
 22 24  1  0  0  0  0
 24 25  1  1  0  0  0
 24 26  1  0  0  0  0
 26 27  1  6  0  0  0
 26 28  1  0  0  0  0
 28 29  1  0  0  0  0
 28 30  1  1  0  0  0
 30 31  1  0  0  0  0
 34 39  1  0  0  0  0
 35 36  2  0  0  0  0
 37 35  1  6  0  0  0
 37 38  1  0  0  0  0
 37 40  1  0  0  0  0
 38 39  1  0  0  0  0
M  END
>  <CHROM.1>
-89.03819811,67.05375526,-46.30634397,128.98681918,78.47382330,168.78107349
-162.26859809,-77.03905421,61.60731528,56.43764578,7.42989945,-9.67580542
10.88845821,-0.70611096,0.42054386,0.50912131

>  <Name>
2g5q_lig

>  <RI>
0

>  <Rbt.Current_Directory>
/home/itssahil/PROJECTS/Mol_Feturizer/New_Systems/rnas/2g5q

>  <Rbt.Executable>
rbdock ($Id: //depot/dev/client3/rdock/2013.1/src/exe/rbdock.cxx#4 $)

>  <Rbt.Library>
libRbt.so (2013.1, Build901 2013/11/27)

>  <Rbt.Parameter_File>
/export/apps/rDock/src/rDock_2013.1_src/data/scripts/dock_solv.prm

>  <Rbt.Receptor>
prm/blind_docking_20.prm

>  <SCORE>
22.7772

>  <SCORE.INTER>
0.736929

>  <SCORE.INTER.CONST>
1

>  <SCORE.INTER.POLAR>
-0.930881

>  <SCORE.INTER.ROT>
10

>  <SCORE.INTER.SOLV>
16.2054

>  <SCORE.INTER.VDW>
-12.0743

>  <SCORE.INTER.norm>
0.0184232

>  <SCORE.INTRA>
2.73562

>  <SCORE.INTRA.DIHEDRAL>
-7.63276

>  <SCORE.INTRA.DIHEDRAL.0>
22.5778

>  <SCORE.INTRA.POLAR>
0

>  <SCORE.INTRA.POLAR.0>
0

>  <SCORE.INTRA.REPUL>
0.000546457

>  <SCORE.INTRA.REPUL.0>
0

>  <SCORE.INTRA.SOLV>
7.73258

>  <SCORE.INTRA.SOLV.lig_0>
-102.332

>  <SCORE.INTRA.VDW>
2.68298

>  <SCORE.INTRA.VDW.0>
-5.08747

>  <SCORE.INTRA.norm>
0.0683904

>  <SCORE.RESTR>
19.3046

>  <SCORE.RESTR.CAVITY>
19.3046

>  <SCORE.RESTR.norm>
0.482615

>  <SCORE.SYSTEM>
0

>  <SCORE.SYSTEM.CONST>
0

>  <SCORE.SYSTEM.DIHEDRAL>
0

>  <SCORE.SYSTEM.SOLV>
0

>  <SCORE.SYSTEM.norm>
0

>  <SCORE.heavy>
40

>  <SCORE.norm>
0.569429

>  <RMSD>
11.996

$$$$
2g5q_lig
 OpenBabel11021811433D
libRbt.so/2013.1/901 2013/11/27
 40 42  0  0  0  0  0  0  0  0999 V2000
   11.2542  -10.7916    7.9811 C   0  0  2  0  0  0  0  0  0  0  0  0
   10.0979   -9.9839    7.9756 O   0  0  0  0  0  0  0  0  0  0  0  0
   11.1600  -11.8111    6.8078 C   0  0  1  0  0  0  0  0  0  0  0  0
   10.0074  -12.8403    7.0225 C   0  0  2  0  0  0  0  0  0  0  0  0
   10.2859  -13.5943    8.3487 C   0  0  2  0  0  0  0  0  0  0  0  0
    9.2553  -14.5705    8.5711 O   0  0  0  0  0  0  0  0  0  0  0  0
   10.3299  -12.5339    9.5225 C   0  0  2  0  0  0  0  0  0  0  0  0
   11.4009  -11.5296    9.2632 O   0  0  0  0  0  0  0  0  0  0  0  0
   10.6132  -13.1679   10.8802 C   0  0  0  0  0  0  0  0  0  0  0  0
    9.4547  -13.9771   11.3750 N   0  0  0  0  0  0  0  0  0  0  0  0
    6.4078   -9.3478   10.2240 C   0  0  2  0  0  0  0  0  0  0  0  0
    5.2509   -9.5935   11.0767 N   0  0  0  0  0  0  0  0  0  0  0  0
    6.3747  -10.3103    8.9637 C   0  0  0  0  0  0  0  0  0  0  0  0
    7.6227  -10.0425    8.0335 C   0  0  2  0  0  0  0  0  0  0  0  0
    7.5740  -10.9433    6.8502 N   0  0  0  0  0  0  0  0  0  0  0  0
    8.9524  -10.2517    8.8617 C   0  0  2  0  0  0  0  0  0  0  0  0
    8.9469   -9.2810   10.1086 C   0  0  2  0  0  0  0  0  0  0  0  0
   10.1487   -9.4767   10.8604 O   0  0  0  0  0  0  0  0  0  0  0  0
    7.7028   -9.5755   11.0309 C   0  0  1  0  0  0  0  0  0  0  0  0
    7.6934   -8.6720   12.1718 O   0  0  0  0  0  0  0  0  0  0  0  0
    6.5408   -8.3368   12.9048 C   0  0  2  0  0  0  0  0  0  0  0  0
    6.2533   -6.8169   12.6585 C   0  0  2  0  0  0  0  0  0  0  0  0
    6.0483   -6.5969   11.2998 O   0  0  0  0  0  0  0  0  0  0  0  0
    7.4284   -5.9198   13.2035 C   0  0  1  0  0  0  0  0  0  0  0  0
    7.1602   -4.4615   12.9763 N   0  0  0  0  0  0  0  0  0  0  0  0
    7.6106   -6.2227   14.7438 C   0  0  2  0  0  0  0  0  0  0  0  0
    8.6623   -5.4297   15.2983 O   0  0  0  0  0  0  0  0  0  0  0  0
    7.8961   -7.7522   14.9214 C   0  0  2  0  0  0  0  0  0  0  0  0
    6.7845   -8.5792   14.3380 O   0  0  0  0  0  0  0  0  0  0  0  0
    8.0509   -8.1250   16.3674 C   0  0  0  0  0  0  0  0  0  0  0  0
    8.5346   -9.4705   16.5104 O   0  0  0  0  0  0  0  0  0  0  0  0
   10.9730  -11.0614    5.5584 O   0  0  0  0  0  0  0  0  0  0  0  0
    9.9785  -13.7228    5.9653 O   0  0  0  0  0  0  0  0  0  0  0  0
    2.1966  -12.0307   10.0559 N   0  0  0  0  0  0  0  0  0  0  0  0
    3.9668   -9.1234   10.8394 C   0  0  0  0  0  0  0  0  0  0  0  0
    3.6593   -8.4318    9.8747 O   0  0  0  0  0  0  0  0  0  0  0  0
    2.9680   -9.5549   11.9379 C   0  0  1  0  0  0  0  0  0  0  0  0
    3.0680  -11.0753   12.1755 C   0  0  0  0  0  0  0  0  0  0  0  0
    1.9891  -11.9289   11.4990 C   0  0  0  0  0  0  0  0  0  0  0  0
    3.2536   -8.8228   13.1511 O   0  0  0  0  0  0  0  0  0  0  0  0
  1  2  1  1  0  0  0
  1  3  1  0  0  0  0
  1  8  1  0  0  0  0
  3  4  1  0  0  0  0
  3 32  1  6  0  0  0
  4  5  1  0  0  0  0
  4 33  1  6  0  0  0
  5  6  1  1  0  0  0
  5  7  1  0  0  0  0
  7  8  1  0  0  0  0
  7  9  1  1  0  0  0
  9 10  1  0  0  0  0
 11 12  1  1  0  0  0
 11 13  1  0  0  0  0
 11 19  1  0  0  0  0
 12 35  1  0  0  0  0
 13 14  1  0  0  0  0
 14 15  1  6  0  0  0
 14 16  1  0  0  0  0
 16  2  1  6  0  0  0
 16 17  1  0  0  0  0
 17 18  1  1  0  0  0
 17 19  1  0  0  0  0
 19 20  1  1  0  0  0
 21 20  1  6  0  0  0
 21 22  1  0  0  0  0
 21 29  1  0  0  0  0
 22 23  1  6  0  0  0
 22 24  1  0  0  0  0
 24 25  1  1  0  0  0
 24 26  1  0  0  0  0
 26 27  1  6  0  0  0
 26 28  1  0  0  0  0
 28 29  1  0  0  0  0
 28 30  1  1  0  0  0
 30 31  1  0  0  0  0
 34 39  1  0  0  0  0
 35 36  2  0  0  0  0
 37 35  1  6  0  0  0
 37 38  1  0  0  0  0
 37 40  1  0  0  0  0
 38 39  1  0  0  0  0
M  END
>  <CHROM.1>
98.31280652,-70.61603548,-78.77524558,-138.28304646,37.13621805,-113.27783449
-170.13885110,-50.60090420,-100.03307493,73.48615063,7.61154156,-9.89516762
10.81454450,-1.07756848,0.05067238,0.88029569

>  <Name>
2g5q_lig

>  <RI>
0

>  <Rbt.Current_Directory>
/home/itssahil/PROJECTS/Mol_Feturizer/New_Systems/rnas/2g5q

>  <Rbt.Executable>
rbdock ($Id: //depot/dev/client3/rdock/2013.1/src/exe/rbdock.cxx#4 $)

>  <Rbt.Library>
libRbt.so (2013.1, Build901 2013/11/27)

>  <Rbt.Parameter_File>
/export/apps/rDock/src/rDock_2013.1_src/data/scripts/dock_solv.prm

>  <Rbt.Receptor>
prm/blind_docking_20.prm

>  <SCORE>
23.961

>  <SCORE.INTER>
1.98112

>  <SCORE.INTER.CONST>
1

>  <SCORE.INTER.POLAR>
-0.776154

>  <SCORE.INTER.ROT>
10

>  <SCORE.INTER.SOLV>
25.9867

>  <SCORE.INTER.VDW>
-15.021

>  <SCORE.INTER.norm>
0.0495281

>  <SCORE.INTRA>
6.77591

>  <SCORE.INTRA.DIHEDRAL>
3.91214

>  <SCORE.INTRA.DIHEDRAL.0>
22.5778

>  <SCORE.INTRA.POLAR>
0

>  <SCORE.INTRA.POLAR.0>
0

>  <SCORE.INTRA.REPUL>
0

>  <SCORE.INTRA.REPUL.0>
0

>  <SCORE.INTRA.SOLV>
6.33064

>  <SCORE.INTRA.SOLV.lig_0>
-102.332

>  <SCORE.INTRA.VDW>
1.65452

>  <SCORE.INTRA.VDW.0>
-5.08747

>  <SCORE.INTRA.norm>
0.169398

>  <SCORE.RESTR>
15.204

>  <SCORE.RESTR.CAVITY>
15.204

>  <SCORE.RESTR.norm>
0.380099

>  <SCORE.SYSTEM>
0

>  <SCORE.SYSTEM.CONST>
0

>  <SCORE.SYSTEM.DIHEDRAL>
0

>  <SCORE.SYSTEM.SOLV>
0

>  <SCORE.SYSTEM.norm>
0

>  <SCORE.heavy>
40

>  <SCORE.norm>
0.599025

>  <RMSD>
12.114

$$$$
2g5q_lig
 OpenBabel11021811433D
libRbt.so/2013.1/901 2013/11/27
 40 42  0  0  0  0  0  0  0  0999 V2000
    9.2224  -13.1680    9.0103 C   0  0  2  0  0  0  0  0  0  0  0  0
    9.0989  -12.3238   10.1335 O   0  0  0  0  0  0  0  0  0  0  0  0
   10.7293  -13.2899    8.6371 C   0  0  1  0  0  0  0  0  0  0  0  0
   11.3142  -11.9359    8.1291 C   0  0  2  0  0  0  0  0  0  0  0  0
   10.5001  -11.5061    6.8811 C   0  0  2  0  0  0  0  0  0  0  0  0
   11.0248  -10.2707    6.3682 O   0  0  0  0  0  0  0  0  0  0  0  0
    8.9844  -11.3485    7.3076 C   0  0  2  0  0  0  0  0  0  0  0  0
    8.4678  -12.6406    7.8429 O   0  0  0  0  0  0  0  0  0  0  0  0
    8.0842  -10.9392    6.1468 C   0  0  0  0  0  0  0  0  0  0  0  0
    6.6628  -10.7504    6.5777 N   0  0  0  0  0  0  0  0  0  0  0  0
    7.5535   -8.4173   11.3287 C   0  0  2  0  0  0  0  0  0  0  0  0
    7.0364   -7.0560   11.2559 N   0  0  0  0  0  0  0  0  0  0  0  0
    8.9893   -8.4954   10.6592 C   0  0  0  0  0  0  0  0  0  0  0  0
    9.5563   -9.9671   10.7423 C   0  0  2  0  0  0  0  0  0  0  0  0
   10.9073  -10.0244   10.1213 N   0  0  0  0  0  0  0  0  0  0  0  0
    8.5532  -10.9597   10.0305 C   0  0  2  0  0  0  0  0  0  0  0  0
    7.1359  -10.8506   10.7206 C   0  0  2  0  0  0  0  0  0  0  0  0
    6.2278  -11.7454   10.0705 O   0  0  0  0  0  0  0  0  0  0  0  0
    6.5821   -9.3786   10.6128 C   0  0  1  0  0  0  0  0  0  0  0  0
    5.2824   -9.2781   11.2599 O   0  0  0  0  0  0  0  0  0  0  0  0
    5.0997   -9.0094   12.6284 C   0  0  2  0  0  0  0  0  0  0  0  0
    5.8198  -10.1459   13.4302 C   0  0  2  0  0  0  0  0  0  0  0  0
    7.1743  -10.1533   13.1113 O   0  0  0  0  0  0  0  0  0  0  0  0
    5.1651  -11.5495   13.1404 C   0  0  1  0  0  0  0  0  0  0  0  0
    5.8453  -12.6445   13.9076 N   0  0  0  0  0  0  0  0  0  0  0  0
    3.6325  -11.4697   13.5174 C   0  0  2  0  0  0  0  0  0  0  0  0
    2.9837  -12.7210   13.2820 O   0  0  0  0  0  0  0  0  0  0  0  0
    2.9726  -10.3200   12.6835 C   0  0  2  0  0  0  0  0  0  0  0  0
    3.6589   -9.0071   12.9385 O   0  0  0  0  0  0  0  0  0  0  0  0
    1.5161  -10.1610   13.0107 C   0  0  0  0  0  0  0  0  0  0  0  0
    1.3288   -9.7692   14.3804 O   0  0  0  0  0  0  0  0  0  0  0  0
   11.4598  -13.7716    9.8171 O   0  0  0  0  0  0  0  0  0  0  0  0
   12.6416  -12.1043    7.8018 O   0  0  0  0  0  0  0  0  0  0  0  0
    7.2190   -5.6965   13.1350 N   0  0  0  0  0  0  0  0  0  0  0  0
    7.2146   -6.1877   10.1879 C   0  0  0  0  0  0  0  0  0  0  0  0
    7.8430   -6.4709    9.1740 O   0  0  0  0  0  0  0  0  0  0  0  0
    6.5459   -4.8142   10.4262 C   0  0  1  0  0  0  0  0  0  0  0  0
    5.4812   -4.9301   11.5358 C   0  0  0  0  0  0  0  0  0  0  0  0
    6.0097   -4.8917   12.9744 C   0  0  0  0  0  0  0  0  0  0  0  0
    7.5610   -3.8493   10.7836 O   0  0  0  0  0  0  0  0  0  0  0  0
  1  2  1  1  0  0  0
  1  3  1  0  0  0  0
  1  8  1  0  0  0  0
  3  4  1  0  0  0  0
  3 32  1  1  0  0  0
  4  5  1  0  0  0  0
  4 33  1  6  0  0  0
  5  6  1  1  0  0  0
  5  7  1  0  0  0  0
  7  8  1  0  0  0  0
  7  9  1  6  0  0  0
  9 10  1  0  0  0  0
 11 12  1  6  0  0  0
 11 13  1  0  0  0  0
 11 19  1  0  0  0  0
 12 35  1  0  0  0  0
 13 14  1  0  0  0  0
 14 15  1  6  0  0  0
 14 16  1  0  0  0  0
 16  2  1  1  0  0  0
 16 17  1  0  0  0  0
 17 18  1  6  0  0  0
 17 19  1  0  0  0  0
 19 20  1  1  0  0  0
 21 20  1  6  0  0  0
 21 22  1  0  0  0  0
 21 29  1  0  0  0  0
 22 23  1  6  0  0  0
 22 24  1  0  0  0  0
 24 25  1  1  0  0  0
 24 26  1  0  0  0  0
 26 27  1  6  0  0  0
 26 28  1  0  0  0  0
 28 29  1  0  0  0  0
 28 30  1  1  0  0  0
 30 31  1  0  0  0  0
 34 39  1  0  0  0  0
 35 36  2  0  0  0  0
 37 35  1  1  0  0  0
 37 38  1  0  0  0  0
 37 40  1  0  0  0  0
 38 39  1  0  0  0  0
M  END
>  <CHROM.1>
107.64423698,-178.09499534,37.27582230,-129.50920727,-32.24688862,-59.42358435
63.43924484,-19.17972385,81.06498762,-42.66550586,7.22329002,-9.86574957
10.64115447,0.40553272,-0.65691119,-3.10427626

>  <Name>
2g5q_lig

>  <RI>
0

>  <Rbt.Current_Directory>
/home/itssahil/PROJECTS/Mol_Feturizer/New_Systems/rnas/2g5q

>  <Rbt.Executable>
rbdock ($Id: //depot/dev/client3/rdock/2013.1/src/exe/rbdock.cxx#4 $)

>  <Rbt.Library>
libRbt.so (2013.1, Build901 2013/11/27)

>  <Rbt.Parameter_File>
/export/apps/rDock/src/rDock_2013.1_src/data/scripts/dock_solv.prm

>  <Rbt.Receptor>
prm/blind_docking_20.prm

>  <SCORE>
51.2232

>  <SCORE.INTER>
5.98008

>  <SCORE.INTER.CONST>
1

>  <SCORE.INTER.POLAR>
-0.848528

>  <SCORE.INTER.ROT>
10

>  <SCORE.INTER.SOLV>
15.4859

>  <SCORE.INTER.VDW>
-8.61348

>  <SCORE.INTER.norm>
0.149502

>  <SCORE.INTRA>
16.2928

>  <SCORE.INTRA.DIHEDRAL>
-1.15718

>  <SCORE.INTRA.DIHEDRAL.0>
22.5778

>  <SCORE.INTRA.POLAR>
0

>  <SCORE.INTRA.POLAR.0>
0

>  <SCORE.INTRA.REPUL>
0

>  <SCORE.INTRA.REPUL.0>
0

>  <SCORE.INTRA.SOLV>
13.467

>  <SCORE.INTRA.SOLV.lig_0>
-102.332

>  <SCORE.INTRA.VDW>
10.1379

>  <SCORE.INTRA.VDW.0>
-5.08747

>  <SCORE.INTRA.norm>
0.40732

>  <SCORE.RESTR>
28.9503

>  <SCORE.RESTR.CAVITY>
28.9503

>  <SCORE.RESTR.norm>
0.723758

>  <SCORE.SYSTEM>
0

>  <SCORE.SYSTEM.CONST>
0

>  <SCORE.SYSTEM.DIHEDRAL>
0

>  <SCORE.SYSTEM.SOLV>
0

>  <SCORE.SYSTEM.norm>
0

>  <SCORE.heavy>
40

>  <SCORE.norm>
1.28058

>  <RMSD>
12.128

$$$$
2g5q_lig
 OpenBabel11021811433D
libRbt.so/2013.1/901 2013/11/27
 40 42  0  0  0  0  0  0  0  0999 V2000
   11.3452  -10.8943    8.0771 C   0  0  2  0  0  0  0  0  0  0  0  0
   10.1645  -10.1461    7.8880 O   0  0  0  0  0  0  0  0  0  0  0  0
   11.4096  -12.0124    6.9952 C   0  0  1  0  0  0  0  0  0  0  0  0
   10.2825  -13.0736    7.1873 C   0  0  2  0  0  0  0  0  0  0  0  0
   10.4553  -13.6991    8.5958 C   0  0  2  0  0  0  0  0  0  0  0  0
    9.4467  -14.7012    8.8027 O   0  0  0  0  0  0  0  0  0  0  0  0
   10.3393  -12.5428    9.6698 C   0  0  2  0  0  0  0  0  0  0  0  0
   11.3907  -11.5139    9.4277 O   0  0  0  0  0  0  0  0  0  0  0  0
   10.5090  -13.0459   11.0994 C   0  0  0  0  0  0  0  0  0  0  0  0
    9.3650  -13.9105   11.5301 N   0  0  0  0  0  0  0  0  0  0  0  0
    6.1681   -9.5482    9.5458 C   0  0  2  0  0  0  0  0  0  0  0  0
    4.9899   -9.6877   10.3933 N   0  0  0  0  0  0  0  0  0  0  0  0
    6.4985  -10.9268    8.8343 C   0  0  0  0  0  0  0  0  0  0  0  0
    7.7701  -10.7782    7.9094 C   0  0  2  0  0  0  0  0  0  0  0  0
    8.0625  -12.0743    7.2396 N   0  0  0  0  0  0  0  0  0  0  0  0
    8.9979  -10.2881    8.7756 C   0  0  2  0  0  0  0  0  0  0  0  0
    8.6301   -8.9175    9.4706 C   0  0  2  0  0  0  0  0  0  0  0  0
    9.7407   -8.4789   10.2593 O   0  0  0  0  0  0  0  0  0  0  0  0
    7.3688   -9.0917   10.4001 C   0  0  1  0  0  0  0  0  0  0  0  0
    7.0249   -7.8252   11.0293 O   0  0  0  0  0  0  0  0  0  0  0  0
    5.8749   -7.6184   11.8122 C   0  0  2  0  0  0  0  0  0  0  0  0
    5.7040   -6.0724   11.9962 C   0  0  2  0  0  0  0  0  0  0  0  0
    5.5608   -5.4690   10.7505 O   0  0  0  0  0  0  0  0  0  0  0  0
    6.9206   -5.4552   12.7846 C   0  0  1  0  0  0  0  0  0  0  0  0
    6.7639   -3.9749   12.9701 N   0  0  0  0  0  0  0  0  0  0  0  0
    7.0292   -6.1865   14.1813 C   0  0  2  0  0  0  0  0  0  0  0  0
    8.1151   -5.6622   14.9483 O   0  0  0  0  0  0  0  0  0  0  0  0
    7.1997   -7.7226   13.9286 C   0  0  2  0  0  0  0  0  0  0  0  0
    6.0527   -8.2669   13.1237 O   0  0  0  0  0  0  0  0  0  0  0  0
    7.2791   -8.4926   15.2149 C   0  0  0  0  0  0  0  0  0  0  0  0
    8.4281   -8.1040   15.9855 O   0  0  0  0  0  0  0  0  0  0  0  0
   11.3203  -11.3804    5.6720 O   0  0  0  0  0  0  0  0  0  0  0  0
   10.3949  -14.0425    6.2146 O   0  0  0  0  0  0  0  0  0  0  0  0
    1.9952  -13.3268   12.6077 N   0  0  0  0  0  0  0  0  0  0  0  0
    4.8345  -10.6307   11.3997 C   0  0  0  0  0  0  0  0  0  0  0  0
    5.6813  -11.4694   11.6875 O   0  0  0  0  0  0  0  0  0  0  0  0
    3.4649  -10.5173   12.1082 C   0  0  1  0  0  0  0  0  0  0  0  0
    2.3852  -11.2571   11.2927 C   0  0  0  0  0  0  0  0  0  0  0  0
    2.4539  -12.7883   11.3288 C   0  0  0  0  0  0  0  0  0  0  0  0
    3.5740  -11.0685   13.4399 O   0  0  0  0  0  0  0  0  0  0  0  0
  1  2  1  1  0  0  0
  1  3  1  0  0  0  0
  1  8  1  0  0  0  0
  3  4  1  0  0  0  0
  3 32  1  6  0  0  0
  4  5  1  0  0  0  0
  4 33  1  6  0  0  0
  5  6  1  1  0  0  0
  5  7  1  0  0  0  0
  7  8  1  0  0  0  0
  7  9  1  1  0  0  0
  9 10  1  0  0  0  0
 11 12  1  1  0  0  0
 11 13  1  0  0  0  0
 11 19  1  0  0  0  0
 12 35  1  0  0  0  0
 13 14  1  0  0  0  0
 14 15  1  1  0  0  0
 14 16  1  0  0  0  0
 16  2  1  6  0  0  0
 16 17  1  0  0  0  0
 17 18  1  1  0  0  0
 17 19  1  0  0  0  0
 19 20  1  6  0  0  0
 21 20  1  6  0  0  0
 21 22  1  0  0  0  0
 21 29  1  0  0  0  0
 22 23  1  6  0  0  0
 22 24  1  0  0  0  0
 24 25  1  1  0  0  0
 24 26  1  0  0  0  0
 26 27  1  6  0  0  0
 26 28  1  0  0  0  0
 28 29  1  0  0  0  0
 28 30  1  1  0  0  0
 30 31  1  0  0  0  0
 34 39  1  0  0  0  0
 35 36  2  0  0  0  0
 37 35  1  6  0  0  0
 37 38  1  0  0  0  0
 37 40  1  0  0  0  0
 38 39  1  0  0  0  0
M  END
>  <CHROM.1>
105.25596763,-68.31363297,54.82329568,-119.16555056,54.12470754,-166.41024088
-62.52523811,82.72554595,72.71737298,74.05805691,7.55085822,-10.06674501
10.67658562,-0.95662506,0.44818922,0.52995309

>  <Name>
2g5q_lig

>  <RI>
0

>  <Rbt.Current_Directory>
/home/itssahil/PROJECTS/Mol_Feturizer/New_Systems/rnas/2g5q

>  <Rbt.Executable>
rbdock ($Id: //depot/dev/client3/rdock/2013.1/src/exe/rbdock.cxx#4 $)

>  <Rbt.Library>
libRbt.so (2013.1, Build901 2013/11/27)

>  <Rbt.Parameter_File>
/export/apps/rDock/src/rDock_2013.1_src/data/scripts/dock_solv.prm

>  <Rbt.Receptor>
prm/blind_docking_20.prm

>  <SCORE>
26.5597

>  <SCORE.INTER>
5.3822

>  <SCORE.INTER.CONST>
1

>  <SCORE.INTER.POLAR>
-0.438568

>  <SCORE.INTER.ROT>
10

>  <SCORE.INTER.SOLV>
18.4856

>  <SCORE.INTER.VDW>
-11.3785

>  <SCORE.INTER.norm>
0.134555

>  <SCORE.INTRA>
5.99202

>  <SCORE.INTRA.DIHEDRAL>
-5.25851

>  <SCORE.INTRA.DIHEDRAL.0>
22.5778

>  <SCORE.INTRA.POLAR>
0

>  <SCORE.INTRA.POLAR.0>
0

>  <SCORE.INTRA.REPUL>
0

>  <SCORE.INTRA.REPUL.0>
0

>  <SCORE.INTRA.SOLV>
8.54767

>  <SCORE.INTRA.SOLV.lig_0>
-102.332

>  <SCORE.INTRA.VDW>
4.34744

>  <SCORE.INTRA.VDW.0>
-5.08747

>  <SCORE.INTRA.norm>
0.149801

>  <SCORE.RESTR>
15.1855

>  <SCORE.RESTR.CAVITY>
15.1855

>  <SCORE.RESTR.norm>
0.379637

>  <SCORE.SYSTEM>
0

>  <SCORE.SYSTEM.CONST>
0

>  <SCORE.SYSTEM.DIHEDRAL>
0

>  <SCORE.SYSTEM.SOLV>
0

>  <SCORE.SYSTEM.norm>
0

>  <SCORE.heavy>
40

>  <SCORE.norm>
0.663992

>  <RMSD>
12.142

$$$$
2g5q_lig
 OpenBabel11021811433D
libRbt.so/2013.1/901 2013/11/27
 40 42  0  0  0  0  0  0  0  0999 V2000
    9.1865  -13.4090    8.4141 C   0  0  2  0  0  0  0  0  0  0  0  0
    9.2361  -12.7446    9.6573 O   0  0  0  0  0  0  0  0  0  0  0  0
   10.6379  -13.5735    7.8745 C   0  0  1  0  0  0  0  0  0  0  0  0
   11.2848  -12.1998    7.5169 C   0  0  2  0  0  0  0  0  0  0  0  0
   10.3994  -11.5254    6.4370 C   0  0  2  0  0  0  0  0  0  0  0  0
   10.9762  -10.2637    6.0630 O   0  0  0  0  0  0  0  0  0  0  0  0
    8.9470  -11.3335    7.0353 C   0  0  2  0  0  0  0  0  0  0  0  0
    8.3756  -12.6552    7.4220 O   0  0  0  0  0  0  0  0  0  0  0  0
    7.9823  -10.6871    6.0469 C   0  0  0  0  0  0  0  0  0  0  0  0
    6.6974  -10.2813    6.6997 N   0  0  0  0  0  0  0  0  0  0  0  0
    8.1100   -8.9880   11.5802 C   0  0  2  0  0  0  0  0  0  0  0  0
    7.6925   -7.6037   11.7670 N   0  0  0  0  0  0  0  0  0  0  0  0
    9.4657   -9.0461   10.7588 C   0  0  0  0  0  0  0  0  0  0  0  0
    9.9255  -10.5440   10.5603 C   0  0  2  0  0  0  0  0  0  0  0  0
   11.2031  -10.5840    9.7986 N   0  0  0  0  0  0  0  0  0  0  0  0
    8.7873  -11.3511    9.8179 C   0  0  2  0  0  0  0  0  0  0  0  0
    7.4544  -11.2667   10.6623 C   0  0  2  0  0  0  0  0  0  0  0  0
    6.4237  -11.9928    9.9851 O   0  0  0  0  0  0  0  0  0  0  0  0
    7.0054   -9.7656   10.8351 C   0  0  1  0  0  0  0  0  0  0  0  0
    5.7843   -9.6900   11.6235 O   0  0  0  0  0  0  0  0  0  0  0  0
    4.6449   -8.9563   11.2473 C   0  0  2  0  0  0  0  0  0  0  0  0
    3.9136   -8.5183   12.5613 C   0  0  2  0  0  0  0  0  0  0  0  0
    4.7679   -7.7327   13.3290 O   0  0  0  0  0  0  0  0  0  0  0  0
    3.4125   -9.7693   13.3777 C   0  0  1  0  0  0  0  0  0  0  0  0
    2.7064   -9.3599   14.6363 N   0  0  0  0  0  0  0  0  0  0  0  0
    2.4557  -10.6174   12.4489 C   0  0  2  0  0  0  0  0  0  0  0  0
    1.9614  -11.7665   13.1399 O   0  0  0  0  0  0  0  0  0  0  0  0
    3.2444  -11.0242   11.1586 C   0  0  2  0  0  0  0  0  0  0  0  0
    3.7588   -9.8102   10.4363 O   0  0  0  0  0  0  0  0  0  0  0  0
    2.3884  -11.8098   10.2079 C   0  0  0  0  0  0  0  0  0  0  0  0
    1.9335  -13.0347   10.8059 O   0  0  0  0  0  0  0  0  0  0  0  0
   11.4300  -14.2826    8.8883 O   0  0  0  0  0  0  0  0  0  0  0  0
   12.5584  -12.4050    7.0339 O   0  0  0  0  0  0  0  0  0  0  0  0
    4.6376   -4.7186    9.8722 N   0  0  0  0  0  0  0  0  0  0  0  0
    7.4237   -7.0064   12.9906 C   0  0  0  0  0  0  0  0  0  0  0  0
    7.5016   -7.5881   14.0671 O   0  0  0  0  0  0  0  0  0  0  0  0
    6.9975   -5.5274   12.8444 C   0  0  1  0  0  0  0  0  0  0  0  0
    6.5157   -5.2561   11.4048 C   0  0  0  0  0  0  0  0  0  0  0  0
    4.9968   -5.1740   11.2137 C   0  0  0  0  0  0  0  0  0  0  0  0
    5.9531   -5.2391   13.8012 O   0  0  0  0  0  0  0  0  0  0  0  0
  1  2  1  1  0  0  0
  1  3  1  0  0  0  0
  1  8  1  0  0  0  0
  3  4  1  0  0  0  0
  3 32  1  1  0  0  0
  4  5  1  0  0  0  0
  4 33  1  6  0  0  0
  5  6  1  1  0  0  0
  5  7  1  0  0  0  0
  7  8  1  0  0  0  0
  7  9  1  6  0  0  0
  9 10  1  0  0  0  0
 11 12  1  6  0  0  0
 11 13  1  0  0  0  0
 11 19  1  0  0  0  0
 12 35  1  0  0  0  0
 13 14  1  0  0  0  0
 14 15  1  6  0  0  0
 14 16  1  0  0  0  0
 16  2  1  1  0  0  0
 16 17  1  0  0  0  0
 17 18  1  6  0  0  0
 17 19  1  0  0  0  0
 19 20  1  1  0  0  0
 21 20  1  1  0  0  0
 21 22  1  0  0  0  0
 21 29  1  0  0  0  0
 22 23  1  1  0  0  0
 22 24  1  0  0  0  0
 24 25  1  1  0  0  0
 24 26  1  0  0  0  0
 26 27  1  1  0  0  0
 26 28  1  0  0  0  0
 28 29  1  0  0  0  0
 28 30  1  6  0  0  0
 30 31  1  0  0  0  0
 34 39  1  0  0  0  0
 35 36  2  0  0  0  0
 37 35  1  6  0  0  0
 37 38  1  0  0  0  0
 37 40  1  0  0  0  0
 38 39  1  0  0  0  0
M  END
>  <CHROM.1>
108.19906898,-169.39591767,-124.88153159,-129.59842085,110.14097690,-151.30762153
-61.31150522,19.67635133,102.77285378,171.42146002,6.95940350,-10.00581709
10.39854769,0.69944743,-0.40492322,-2.68365567

>  <Name>
2g5q_lig

>  <RI>
0

>  <Rbt.Current_Directory>
/home/itssahil/PROJECTS/Mol_Feturizer/New_Systems/rnas/2g5q

>  <Rbt.Executable>
rbdock ($Id: //depot/dev/client3/rdock/2013.1/src/exe/rbdock.cxx#4 $)

>  <Rbt.Library>
libRbt.so (2013.1, Build901 2013/11/27)

>  <Rbt.Parameter_File>
/export/apps/rDock/src/rDock_2013.1_src/data/scripts/dock_solv.prm

>  <Rbt.Receptor>
prm/blind_docking_20.prm

>  <SCORE>
34.5157

>  <SCORE.INTER>
9.3526

>  <SCORE.INTER.CONST>
1

>  <SCORE.INTER.POLAR>
-1.10464

>  <SCORE.INTER.ROT>
10

>  <SCORE.INTER.SOLV>
29.9078

>  <SCORE.INTER.VDW>
-10.3187

>  <SCORE.INTER.norm>
0.233815

>  <SCORE.INTRA>
8.83267

>  <SCORE.INTRA.DIHEDRAL>
8.85526

>  <SCORE.INTRA.DIHEDRAL.0>
22.5778

>  <SCORE.INTRA.POLAR>
0

>  <SCORE.INTRA.POLAR.0>
0

>  <SCORE.INTRA.REPUL>
0

>  <SCORE.INTRA.REPUL.0>
0

>  <SCORE.INTRA.SOLV>
6.96068

>  <SCORE.INTRA.SOLV.lig_0>
-102.332

>  <SCORE.INTRA.VDW>
0.924701

>  <SCORE.INTRA.VDW.0>
-5.08747

>  <SCORE.INTRA.norm>
0.220817

>  <SCORE.RESTR>
16.3304

>  <SCORE.RESTR.CAVITY>
16.3304

>  <SCORE.RESTR.norm>
0.40826

>  <SCORE.SYSTEM>
0

>  <SCORE.SYSTEM.CONST>
0

>  <SCORE.SYSTEM.DIHEDRAL>
0

>  <SCORE.SYSTEM.SOLV>
0

>  <SCORE.SYSTEM.norm>
0

>  <SCORE.heavy>
40

>  <SCORE.norm>
0.862891

>  <RMSD>
12.143

$$$$
2g5q_lig
 OpenBabel11021811433D
libRbt.so/2013.1/901 2013/11/27
 40 42  0  0  0  0  0  0  0  0999 V2000
   11.5381  -11.5025    8.1325 C   0  0  2  0  0  0  0  0  0  0  0  0
   10.5907  -10.4623    8.0326 O   0  0  0  0  0  0  0  0  0  0  0  0
   11.2273  -12.5708    7.0431 C   0  0  1  0  0  0  0  0  0  0  0  0
    9.8730  -13.2975    7.3104 C   0  0  2  0  0  0  0  0  0  0  0  0
    9.9674  -13.9803    8.6996 C   0  0  2  0  0  0  0  0  0  0  0  0
    8.7439  -14.6819    8.9735 O   0  0  0  0  0  0  0  0  0  0  0  0
   10.2383  -12.8611    9.7850 C   0  0  2  0  0  0  0  0  0  0  0  0
   11.5078  -12.1442    9.4732 O   0  0  0  0  0  0  0  0  0  0  0  0
   10.3640  -13.4256   11.1961 C   0  0  0  0  0  0  0  0  0  0  0  0
   10.3414  -12.3487   12.2361 N   0  0  0  0  0  0  0  0  0  0  0  0
    6.5632   -9.3435    9.2993 C   0  0  2  0  0  0  0  0  0  0  0  0
    5.2403   -9.4064    9.9092 N   0  0  0  0  0  0  0  0  0  0  0  0
    6.7301  -10.5033    8.2303 C   0  0  0  0  0  0  0  0  0  0  0  0
    8.1594  -10.4345    7.5619 C   0  0  2  0  0  0  0  0  0  0  0  0
    8.2991  -11.5201    6.5539 N   0  0  0  0  0  0  0  0  0  0  0  0
    9.2706  -10.5416    8.6808 C   0  0  2  0  0  0  0  0  0  0  0  0
    9.0693   -9.3749    9.7272 C   0  0  2  0  0  0  0  0  0  0  0  0
   10.0725   -9.4776   10.7426 O   0  0  0  0  0  0  0  0  0  0  0  0
    7.6437   -9.4714   10.3930 C   0  0  1  0  0  0  0  0  0  0  0  0
    7.4563   -8.3885   11.3472 O   0  0  0  0  0  0  0  0  0  0  0  0
    6.2406   -8.1095   11.9970 C   0  0  2  0  0  0  0  0  0  0  0  0
    6.0708   -6.5527   12.0270 C   0  0  2  0  0  0  0  0  0  0  0  0
    6.0516   -6.0620   10.7250 O   0  0  0  0  0  0  0  0  0  0  0  0
    7.2153   -5.8716   12.8690 C   0  0  1  0  0  0  0  0  0  0  0  0
    7.0588   -4.3802   12.9076 N   0  0  0  0  0  0  0  0  0  0  0  0
    7.1844   -6.4761   14.3288 C   0  0  2  0  0  0  0  0  0  0  0  0
    8.1997   -5.8890   15.1453 O   0  0  0  0  0  0  0  0  0  0  0  0
    7.3604   -8.0291   14.2297 C   0  0  2  0  0  0  0  0  0  0  0  0
    6.2875   -8.6393   13.3715 O   0  0  0  0  0  0  0  0  0  0  0  0
    7.3103   -8.6820   15.5806 C   0  0  0  0  0  0  0  0  0  0  0  0
    8.3817   -8.2238   16.4215 O   0  0  0  0  0  0  0  0  0  0  0  0
   11.2206  -11.9061    5.7330 O   0  0  0  0  0  0  0  0  0  0  0  0
    9.6556  -14.2375    6.3273 O   0  0  0  0  0  0  0  0  0  0  0  0
    2.1451  -13.8335   11.4224 N   0  0  0  0  0  0  0  0  0  0  0  0
    4.8303  -10.3538   10.8367 C   0  0  0  0  0  0  0  0  0  0  0  0
    5.5440  -11.2623   11.2472 O   0  0  0  0  0  0  0  0  0  0  0  0
    3.3646  -10.1468   11.2833 C   0  0  1  0  0  0  0  0  0  0  0  0
    2.5408  -11.4192   10.9992 C   0  0  0  0  0  0  0  0  0  0  0  0
    2.9689  -12.6761   11.7654 C   0  0  0  0  0  0  0  0  0  0  0  0
    3.3406   -9.8198   12.6910 O   0  0  0  0  0  0  0  0  0  0  0  0
  1  2  1  1  0  0  0
  1  3  1  0  0  0  0
  1  8  1  0  0  0  0
  3  4  1  0  0  0  0
  3 32  1  6  0  0  0
  4  5  1  0  0  0  0
  4 33  1  6  0  0  0
  5  6  1  1  0  0  0
  5  7  1  0  0  0  0
  7  8  1  0  0  0  0
  7  9  1  1  0  0  0
  9 10  1  0  0  0  0
 11 12  1  1  0  0  0
 11 13  1  0  0  0  0
 11 19  1  0  0  0  0
 12 35  1  0  0  0  0
 13 14  1  0  0  0  0
 14 15  1  6  0  0  0
 14 16  1  0  0  0  0
 16  2  1  6  0  0  0
 16 17  1  0  0  0  0
 17 18  1  1  0  0  0
 17 19  1  0  0  0  0
 19 20  1  1  0  0  0
 21 20  1  1  0  0  0
 21 22  1  0  0  0  0
 21 29  1  0  0  0  0
 22 23  1  6  0  0  0
 22 24  1  0  0  0  0
 24 25  1  1  0  0  0
 24 26  1  0  0  0  0
 26 27  1  1  0  0  0
 26 28  1  0  0  0  0
 28 29  1  0  0  0  0
 28 30  1  1  0  0  0
 30 31  1  0  0  0  0
 34 39  1  0  0  0  0
 35 36  2  0  0  0  0
 37 35  1  1  0  0  0
 37 38  1  0  0  0  0
 37 40  1  0  0  0  0
 38 39  1  0  0  0  0
M  END
>  <CHROM.1>
84.33096942,-168.42931643,73.52905445,-120.23863448,53.24741104,-139.22200447
-62.17254463,122.55109832,63.35283305,-179.31417185,7.66808619,-10.21035365
10.64914572,-1.06849336,0.25584166,0.70228562

>  <Name>
2g5q_lig

>  <RI>
0

>  <Rbt.Current_Directory>
/home/itssahil/PROJECTS/Mol_Feturizer/New_Systems/rnas/2g5q

>  <Rbt.Executable>
rbdock ($Id: //depot/dev/client3/rdock/2013.1/src/exe/rbdock.cxx#4 $)

>  <Rbt.Library>
libRbt.so (2013.1, Build901 2013/11/27)

>  <Rbt.Parameter_File>
/export/apps/rDock/src/rDock_2013.1_src/data/scripts/dock_solv.prm

>  <Rbt.Receptor>
prm/blind_docking_20.prm

>  <SCORE>
24.0596

>  <SCORE.INTER>
3.08843

>  <SCORE.INTER.CONST>
1

>  <SCORE.INTER.POLAR>
-0.619291

>  <SCORE.INTER.ROT>
10

>  <SCORE.INTER.SOLV>
24.5158

>  <SCORE.INTER.VDW>
-14.3153

>  <SCORE.INTER.norm>
0.0772108

>  <SCORE.INTRA>
5.76479

>  <SCORE.INTRA.DIHEDRAL>
-3.95429

>  <SCORE.INTRA.DIHEDRAL.0>
22.5778

>  <SCORE.INTRA.POLAR>
0

>  <SCORE.INTRA.POLAR.0>
0

>  <SCORE.INTRA.REPUL>
0

>  <SCORE.INTRA.REPUL.0>
0

>  <SCORE.INTRA.SOLV>
7.66481

>  <SCORE.INTRA.SOLV.lig_0>
-102.332

>  <SCORE.INTRA.VDW>
3.90953

>  <SCORE.INTRA.VDW.0>
-5.08747

>  <SCORE.INTRA.norm>
0.14412

>  <SCORE.RESTR>
15.2064

>  <SCORE.RESTR.CAVITY>
15.2064

>  <SCORE.RESTR.norm>
0.380159

>  <SCORE.SYSTEM>
0

>  <SCORE.SYSTEM.CONST>
0

>  <SCORE.SYSTEM.DIHEDRAL>
0

>  <SCORE.SYSTEM.SOLV>
0

>  <SCORE.SYSTEM.norm>
0

>  <SCORE.heavy>
40

>  <SCORE.norm>
0.60149

>  <RMSD>
12.214

$$$$
2g5q_lig
 OpenBabel11021811433D
libRbt.so/2013.1/901 2013/11/27
 40 42  0  0  0  0  0  0  0  0999 V2000
   11.5390  -11.2576    8.1084 C   0  0  2  0  0  0  0  0  0  0  0  0
   10.4777  -10.3478    7.9201 O   0  0  0  0  0  0  0  0  0  0  0  0
   11.4399  -12.3751    7.0286 C   0  0  1  0  0  0  0  0  0  0  0  0
   10.1724  -13.2632    7.2250 C   0  0  2  0  0  0  0  0  0  0  0  0
   10.2567  -13.9046    8.6344 C   0  0  2  0  0  0  0  0  0  0  0  0
    9.1150  -14.7511    8.8453 O   0  0  0  0  0  0  0  0  0  0  0  0
   10.3103  -12.7417    9.7063 C   0  0  2  0  0  0  0  0  0  0  0  0
   11.4981  -11.8749    9.4602 O   0  0  0  0  0  0  0  0  0  0  0  0
   10.4091  -13.2616   11.1366 C   0  0  0  0  0  0  0  0  0  0  0  0
    9.1390  -13.9149   11.5858 N   0  0  0  0  0  0  0  0  0  0  0  0
    6.3902   -9.5143    9.2144 C   0  0  2  0  0  0  0  0  0  0  0  0
    5.0994   -9.6434    9.8799 N   0  0  0  0  0  0  0  0  0  0  0  0
    6.6509  -10.7658    8.2754 C   0  0  0  0  0  0  0  0  0  0  0  0
    8.0453  -10.6266    7.5468 C   0  0  2  0  0  0  0  0  0  0  0  0
    8.2726  -11.8005    6.6613 N   0  0  0  0  0  0  0  0  0  0  0  0
    9.1924  -10.4885    8.6253 C   0  0  2  0  0  0  0  0  0  0  0  0
    8.8962   -9.2364    9.5425 C   0  0  2  0  0  0  0  0  0  0  0  0
    9.9326   -9.1171   10.5221 O   0  0  0  0  0  0  0  0  0  0  0  0
    7.5084   -9.4029   10.2714 C   0  0  1  0  0  0  0  0  0  0  0  0
    7.2325   -8.2427   11.1058 O   0  0  0  0  0  0  0  0  0  0  0  0
    6.2897   -8.2263   12.1494 C   0  0  2  0  0  0  0  0  0  0  0  0
    5.2269   -7.1286   11.8047 C   0  0  2  0  0  0  0  0  0  0  0  0
    4.6113   -7.4408   10.5964 O   0  0  0  0  0  0  0  0  0  0  0  0
    5.8842   -5.6977   11.7490 C   0  0  1  0  0  0  0  0  0  0  0  0
    4.8730   -4.6384   11.4238 N   0  0  0  0  0  0  0  0  0  0  0  0
    6.5673   -5.4106   13.1448 C   0  0  2  0  0  0  0  0  0  0  0  0
    7.1770   -4.1182   13.1578 O   0  0  0  0  0  0  0  0  0  0  0  0
    7.6164   -6.5382   13.4284 C   0  0  2  0  0  0  0  0  0  0  0  0
    6.9670   -7.8940   13.4155 O   0  0  0  0  0  0  0  0  0  0  0  0
    8.2886   -6.3511   14.7576 C   0  0  0  0  0  0  0  0  0  0  0  0
    8.8082   -7.5935   15.2590 O   0  0  0  0  0  0  0  0  0  0  0  0
   11.4393  -11.7391    5.7043 O   0  0  0  0  0  0  0  0  0  0  0  0
   10.1424  -14.2398    6.2541 O   0  0  0  0  0  0  0  0  0  0  0  0
    1.8620  -12.6267   10.1887 N   0  0  0  0  0  0  0  0  0  0  0  0
    4.8544  -10.4101   11.0105 C   0  0  0  0  0  0  0  0  0  0  0  0
    5.7083  -11.0807   11.5801 O   0  0  0  0  0  0  0  0  0  0  0  0
    3.3779  -10.3384   11.4636 C   0  0  1  0  0  0  0  0  0  0  0  0
    2.9799  -11.6463   12.1771 C   0  0  0  0  0  0  0  0  0  0  0  0
    1.7426  -12.3603   11.6207 C   0  0  0  0  0  0  0  0  0  0  0  0
    3.2059   -9.2004   12.3380 O   0  0  0  0  0  0  0  0  0  0  0  0
  1  2  1  1  0  0  0
  1  3  1  0  0  0  0
  1  8  1  0  0  0  0
  3  4  1  0  0  0  0
  3 32  1  6  0  0  0
  4  5  1  0  0  0  0
  4 33  1  6  0  0  0
  5  6  1  1  0  0  0
  5  7  1  0  0  0  0
  7  8  1  0  0  0  0
  7  9  1  1  0  0  0
  9 10  1  0  0  0  0
 11 12  1  1  0  0  0
 11 13  1  0  0  0  0
 11 19  1  0  0  0  0
 12 35  1  0  0  0  0
 13 14  1  0  0  0  0
 14 15  1  1  0  0  0
 14 16  1  0  0  0  0
 16  2  1  6  0  0  0
 16 17  1  0  0  0  0
 17 18  1  1  0  0  0
 17 19  1  0  0  0  0
 19 20  1  1  0  0  0
 21 20  1  6  0  0  0
 21 22  1  0  0  0  0
 21 29  1  0  0  0  0
 22 23  1  6  0  0  0
 22 24  1  0  0  0  0
 24 25  1  1  0  0  0
 24 26  1  0  0  0  0
 26 27  1  6  0  0  0
 26 28  1  0  0  0  0
 28 29  1  0  0  0  0
 28 30  1  1  0  0  0
 30 31  1  0  0  0  0
 34 39  1  0  0  0  0
 35 36  2  0  0  0  0
 37 35  1  1  0  0  0
 37 38  1  0  0  0  0
 37 40  1  0  0  0  0
 38 39  1  0  0  0  0
M  END
>  <CHROM.1>
92.62117458,-70.07341468,80.67421354,-120.95093615,78.81494252,-119.84039953
156.45935423,151.10490723,-125.71161242,54.65523995,7.50507989,-10.02693635
10.37667722,-0.96673450,0.24022175,0.54824402

>  <Name>
2g5q_lig

>  <RI>
0

>  <Rbt.Current_Directory>
/home/itssahil/PROJECTS/Mol_Feturizer/New_Systems/rnas/2g5q

>  <Rbt.Executable>
rbdock ($Id: //depot/dev/client3/rdock/2013.1/src/exe/rbdock.cxx#4 $)

>  <Rbt.Library>
libRbt.so (2013.1, Build901 2013/11/27)

>  <Rbt.Parameter_File>
/export/apps/rDock/src/rDock_2013.1_src/data/scripts/dock_solv.prm

>  <Rbt.Receptor>
prm/blind_docking_20.prm

>  <SCORE>
35.064

>  <SCORE.INTER>
8.39876

>  <SCORE.INTER.CONST>
1

>  <SCORE.INTER.POLAR>
-1.05367

>  <SCORE.INTER.ROT>
10

>  <SCORE.INTER.SOLV>
26.7003

>  <SCORE.INTER.VDW>
-10.0554

>  <SCORE.INTER.norm>
0.209969

>  <SCORE.INTRA>
12.7925

>  <SCORE.INTRA.DIHEDRAL>
6.62329

>  <SCORE.INTRA.DIHEDRAL.0>
22.5778

>  <SCORE.INTRA.POLAR>
0

>  <SCORE.INTRA.POLAR.0>
0

>  <SCORE.INTRA.REPUL>
0

>  <SCORE.INTRA.REPUL.0>
0

>  <SCORE.INTRA.SOLV>
8.88381

>  <SCORE.INTRA.SOLV.lig_0>
-102.332

>  <SCORE.INTRA.VDW>
5.03894

>  <SCORE.INTRA.VDW.0>
-5.08747

>  <SCORE.INTRA.norm>
0.319812

>  <SCORE.RESTR>
13.8728

>  <SCORE.RESTR.CAVITY>
13.8728

>  <SCORE.RESTR.norm>
0.346819

>  <SCORE.SYSTEM>
0

>  <SCORE.SYSTEM.CONST>
0

>  <SCORE.SYSTEM.DIHEDRAL>
0

>  <SCORE.SYSTEM.SOLV>
0

>  <SCORE.SYSTEM.norm>
0

>  <SCORE.heavy>
40

>  <SCORE.norm>
0.876601

>  <RMSD>
12.218

$$$$
2g5q_lig
 OpenBabel11021811433D
libRbt.so/2013.1/901 2013/11/27
 40 42  0  0  0  0  0  0  0  0999 V2000
   11.5574  -11.2830    8.1083 C   0  0  2  0  0  0  0  0  0  0  0  0
   10.5064  -10.3621    7.9164 O   0  0  0  0  0  0  0  0  0  0  0  0
   11.4767  -12.3748    7.0009 C   0  0  1  0  0  0  0  0  0  0  0  0
   10.1996  -13.2587    7.1474 C   0  0  2  0  0  0  0  0  0  0  0  0
   10.2469  -13.9328    8.5432 C   0  0  2  0  0  0  0  0  0  0  0  0
    9.0954  -14.7762    8.7079 O   0  0  0  0  0  0  0  0  0  0  0  0
   10.2826  -12.7952    9.6426 C   0  0  2  0  0  0  0  0  0  0  0  0
   11.4811  -11.9310    9.4441 O   0  0  0  0  0  0  0  0  0  0  0  0
   10.3448  -13.3484   11.0623 C   0  0  0  0  0  0  0  0  0  0  0  0
   10.0672  -12.2941   12.0886 N   0  0  0  0  0  0  0  0  0  0  0  0
    6.4336   -9.4699    9.2178 C   0  0  2  0  0  0  0  0  0  0  0  0
    5.1476   -9.5726    9.8971 N   0  0  0  0  0  0  0  0  0  0  0  0
    6.6807  -10.7501    8.3145 C   0  0  0  0  0  0  0  0  0  0  0  0
    8.0698  -10.6397    7.5710 C   0  0  2  0  0  0  0  0  0  0  0  0
    8.2842  -11.8406    6.7191 N   0  0  0  0  0  0  0  0  0  0  0  0
    9.2262  -10.4753    8.6358 C   0  0  2  0  0  0  0  0  0  0  0  0
    8.9434   -9.1949    9.5174 C   0  0  2  0  0  0  0  0  0  0  0  0
    9.9883   -9.0517   10.4848 O   0  0  0  0  0  0  0  0  0  0  0  0
    7.5608   -9.3326   10.2620 C   0  0  1  0  0  0  0  0  0  0  0  0
    7.2972   -8.1467   11.0636 O   0  0  0  0  0  0  0  0  0  0  0  0
    6.1165   -7.9359   11.7981 C   0  0  2  0  0  0  0  0  0  0  0  0
    5.9145   -6.3882   11.9281 C   0  0  2  0  0  0  0  0  0  0  0  0
    5.8069   -5.8253   10.6600 O   0  0  0  0  0  0  0  0  0  0  0  0
    7.0917   -5.7267   12.7400 C   0  0  1  0  0  0  0  0  0  0  0  0
    6.9049   -4.2444   12.8739 N   0  0  0  0  0  0  0  0  0  0  0  0
    7.1613   -6.4134   14.1616 C   0  0  2  0  0  0  0  0  0  0  0  0
    8.2101   -5.8477   14.9503 O   0  0  0  0  0  0  0  0  0  0  0  0
    7.3653   -7.9533   13.9628 C   0  0  2  0  0  0  0  0  0  0  0  0
    6.2569   -8.5412   13.1346 O   0  0  0  0  0  0  0  0  0  0  0  0
    7.4103   -8.6825   15.2742 C   0  0  0  0  0  0  0  0  0  0  0  0
    8.4362   -8.1537   16.1302 O   0  0  0  0  0  0  0  0  0  0  0  0
   11.5109  -11.7086    5.6921 O   0  0  0  0  0  0  0  0  0  0  0  0
   10.1862  -14.2125    6.1537 O   0  0  0  0  0  0  0  0  0  0  0  0
    1.8402  -12.7956   12.8192 N   0  0  0  0  0  0  0  0  0  0  0  0
    4.8803  -10.3901   10.9863 C   0  0  0  0  0  0  0  0  0  0  0  0
    5.7071  -11.1343   11.5018 O   0  0  0  0  0  0  0  0  0  0  0  0
    3.4160  -10.2711   11.4682 C   0  0  1  0  0  0  0  0  0  0  0  0
    2.5723  -11.4224   10.8844 C   0  0  0  0  0  0  0  0  0  0  0  0
    2.6745  -12.7638   11.6196 C   0  0  0  0  0  0  0  0  0  0  0  0
    3.3901  -10.2933   12.9132 O   0  0  0  0  0  0  0  0  0  0  0  0
  1  2  1  6  0  0  0
  1  3  1  0  0  0  0
  1  8  1  0  0  0  0
  3  4  1  0  0  0  0
  3 32  1  6  0  0  0
  4  5  1  0  0  0  0
  4 33  1  6  0  0  0
  5  6  1  1  0  0  0
  5  7  1  0  0  0  0
  7  8  1  0  0  0  0
  7  9  1  1  0  0  0
  9 10  1  0  0  0  0
 11 12  1  1  0  0  0
 11 13  1  0  0  0  0
 11 19  1  0  0  0  0
 12 35  1  0  0  0  0
 13 14  1  0  0  0  0
 14 15  1  1  0  0  0
 14 16  1  0  0  0  0
 16  2  1  6  0  0  0
 16 17  1  0  0  0  0
 17 18  1  1  0  0  0
 17 19  1  0  0  0  0
 19 20  1  6  0  0  0
 21 20  1  6  0  0  0
 21 22  1  0  0  0  0
 21 29  1  0  0  0  0
 22 23  1  6  0  0  0
 22 24  1  0  0  0  0
 24 25  1  1  0  0  0
 24 26  1  0  0  0  0
 26 27  1  1  0  0  0
 26 28  1  0  0  0  0
 28 29  1  0  0  0  0
 28 30  1  1  0  0  0
 30 31  1  0  0  0  0
 34 39  1  0  0  0  0
 35 36  2  0  0  0  0
 37 35  1  1  0  0  0
 37 38  1  0  0  0  0
 37 40  1  0  0  0  0
 38 39  1  0  0  0  0
M  END
>  <CHROM.1>
95.51814398,-167.06529658,75.01842675,-119.96537507,57.48309659,-153.41998211
-56.39333103,97.76226038,81.14716890,79.98046137,7.66754713,-10.13962322
10.59113755,-0.98979417,0.32670353,0.64432867

>  <Name>
2g5q_lig

>  <RI>
0

>  <Rbt.Current_Directory>
/home/itssahil/PROJECTS/Mol_Feturizer/New_Systems/rnas/2g5q

>  <Rbt.Executable>
rbdock ($Id: //depot/dev/client3/rdock/2013.1/src/exe/rbdock.cxx#4 $)

>  <Rbt.Library>
libRbt.so (2013.1, Build901 2013/11/27)

>  <Rbt.Parameter_File>
/export/apps/rDock/src/rDock_2013.1_src/data/scripts/dock_solv.prm

>  <Rbt.Receptor>
prm/blind_docking_20.prm

>  <SCORE>
27.9779

>  <SCORE.INTER>
4.55942

>  <SCORE.INTER.CONST>
1

>  <SCORE.INTER.POLAR>
-0.561106

>  <SCORE.INTER.ROT>
10

>  <SCORE.INTER.SOLV>
18.6041

>  <SCORE.INTER.VDW>
-11.5581

>  <SCORE.INTER.norm>
0.113985

>  <SCORE.INTRA>
8.53583

>  <SCORE.INTRA.DIHEDRAL>
-2.16641

>  <SCORE.INTRA.DIHEDRAL.0>
22.5778

>  <SCORE.INTRA.POLAR>
0

>  <SCORE.INTRA.POLAR.0>
0

>  <SCORE.INTRA.REPUL>
0

>  <SCORE.INTRA.REPUL.0>
0

>  <SCORE.INTRA.SOLV>
9.174

>  <SCORE.INTRA.SOLV.lig_0>
-102.332

>  <SCORE.INTRA.VDW>
5.03204

>  <SCORE.INTRA.VDW.0>
-5.08747

>  <SCORE.INTRA.norm>
0.213396

>  <SCORE.RESTR>
14.8827

>  <SCORE.RESTR.CAVITY>
14.8827

>  <SCORE.RESTR.norm>
0.372067

>  <SCORE.SYSTEM>
0

>  <SCORE.SYSTEM.CONST>
0

>  <SCORE.SYSTEM.DIHEDRAL>
0

>  <SCORE.SYSTEM.SOLV>
0

>  <SCORE.SYSTEM.norm>
0

>  <SCORE.heavy>
40

>  <SCORE.norm>
0.699448

>  <RMSD>
12.236

$$$$
2g5q_lig
 OpenBabel11021811433D
libRbt.so/2013.1/901 2013/11/27
 40 42  0  0  0  0  0  0  0  0999 V2000
   10.9309  -11.0113    9.0363 C   0  0  2  0  0  0  0  0  0  0  0  0
   10.2125  -11.9280    9.8320 O   0  0  0  0  0  0  0  0  0  0  0  0
   10.1510  -10.7801    7.7085 C   0  0  1  0  0  0  0  0  0  0  0  0
   10.1142  -12.0646    6.8241 C   0  0  2  0  0  0  0  0  0  0  0  0
   11.5787  -12.4642    6.5070 C   0  0  2  0  0  0  0  0  0  0  0  0
   11.5869  -13.6336    5.6723 O   0  0  0  0  0  0  0  0  0  0  0  0
   12.3265  -12.7347    7.8750 C   0  0  2  0  0  0  0  0  0  0  0  0
   12.2964  -11.5095    8.7242 O   0  0  0  0  0  0  0  0  0  0  0  0
   13.7882  -13.1241    7.6816 C   0  0  0  0  0  0  0  0  0  0  0  0
   14.4382  -13.5236    8.9699 N   0  0  0  0  0  0  0  0  0  0  0  0
    6.2844  -10.2343   10.7146 C   0  0  2  0  0  0  0  0  0  0  0  0
    5.0750   -9.8543   11.4348 N   0  0  0  0  0  0  0  0  0  0  0  0
    6.4507  -11.8117   10.7155 C   0  0  0  0  0  0  0  0  0  0  0  0
    7.7561  -12.2282    9.9300 C   0  0  2  0  0  0  0  0  0  0  0  0
    7.8944  -13.7097    9.9286 N   0  0  0  0  0  0  0  0  0  0  0  0
    9.0129  -11.5334   10.5900 C   0  0  2  0  0  0  0  0  0  0  0  0
    8.8090   -9.9666   10.5748 C   0  0  2  0  0  0  0  0  0  0  0  0
    9.9452   -9.3400   11.1785 O   0  0  0  0  0  0  0  0  0  0  0  0
    7.5104   -9.5719   11.3766 C   0  0  1  0  0  0  0  0  0  0  0  0
    7.3183   -8.1294   11.3505 O   0  0  0  0  0  0  0  0  0  0  0  0
    7.8698   -7.2417   12.2918 C   0  0  2  0  0  0  0  0  0  0  0  0
    6.7713   -6.9614   13.3725 C   0  0  2  0  0  0  0  0  0  0  0  0
    6.4061   -8.1564   13.9850 O   0  0  0  0  0  0  0  0  0  0  0  0
    5.5181   -6.2473   12.7384 C   0  0  1  0  0  0  0  0  0  0  0  0
    4.4618   -5.9704   13.7669 N   0  0  0  0  0  0  0  0  0  0  0  0
    6.0028   -4.9060   12.0577 C   0  0  2  0  0  0  0  0  0  0  0  0
    4.9041   -4.2072   11.4688 O   0  0  0  0  0  0  0  0  0  0  0  0
    7.0946   -5.2541   10.9902 C   0  0  2  0  0  0  0  0  0  0  0  0
    8.2476   -5.9866   11.6179 O   0  0  0  0  0  0  0  0  0  0  0  0
    7.6290   -4.0223   10.3190 C   0  0  0  0  0  0  0  0  0  0  0  0
    8.1280   -3.0787   11.2811 O   0  0  0  0  0  0  0  0  0  0  0  0
    8.7933  -10.3296    8.0427 O   0  0  0  0  0  0  0  0  0  0  0  0
    9.4259  -11.8002    5.6606 O   0  0  0  0  0  0  0  0  0  0  0  0
    2.3651  -12.9394   11.6256 N   0  0  0  0  0  0  0  0  0  0  0  0
    3.7986  -10.3259   11.1617 C   0  0  0  0  0  0  0  0  0  0  0  0
    3.5411  -11.1216   10.2650 O   0  0  0  0  0  0  0  0  0  0  0  0
    2.7321   -9.7223   12.1043 C   0  0  1  0  0  0  0  0  0  0  0  0
    2.0500  -10.8419   12.9163 C   0  0  0  0  0  0  0  0  0  0  0  0
    1.3911  -11.9558   12.0944 C   0  0  0  0  0  0  0  0  0  0  0  0
    3.3639   -8.7612   12.9798 O   0  0  0  0  0  0  0  0  0  0  0  0
  1  2  1  1  0  0  0
  1  3  1  0  0  0  0
  1  8  1  0  0  0  0
  3  4  1  0  0  0  0
  3 32  1  1  0  0  0
  4  5  1  0  0  0  0
  4 33  1  6  0  0  0
  5  6  1  6  0  0  0
  5  7  1  0  0  0  0
  7  8  1  0  0  0  0
  7  9  1  6  0  0  0
  9 10  1  0  0  0  0
 11 12  1  1  0  0  0
 11 13  1  0  0  0  0
 11 19  1  0  0  0  0
 12 35  1  0  0  0  0
 13 14  1  0  0  0  0
 14 15  1  1  0  0  0
 14 16  1  0  0  0  0
 16  2  1  6  0  0  0
 16 17  1  0  0  0  0
 17 18  1  1  0  0  0
 17 19  1  0  0  0  0
 19 20  1  6  0  0  0
 21 20  1  6  0  0  0
 21 22  1  0  0  0  0
 21 29  1  0  0  0  0
 22 23  1  6  0  0  0
 22 24  1  0  0  0  0
 24 25  1  1  0  0  0
 24 26  1  0  0  0  0
 26 27  1  6  0  0  0
 26 28  1  0  0  0  0
 28 29  1  0  0  0  0
 28 30  1  1  0  0  0
 30 31  1  0  0  0  0
 34 39  1  0  0  0  0
 35 36  2  0  0  0  0
 37 35  1  6  0  0  0
 37 38  1  0  0  0  0
 37 40  1  0  0  0  0
 38 39  1  0  0  0  0
M  END
>  <CHROM.1>
-77.02871313,-173.63627060,-54.86309165,110.97777588,152.03205223,-96.48951560
55.13597958,-118.85568076,-56.78833831,80.47758362,7.61589881,-9.69763585
10.42295539,-0.70202050,0.39705897,0.30119009

>  <Name>
2g5q_lig

>  <RI>
0

>  <Rbt.Current_Directory>
/home/itssahil/PROJECTS/Mol_Feturizer/New_Systems/rnas/2g5q

>  <Rbt.Executable>
rbdock ($Id: //depot/dev/client3/rdock/2013.1/src/exe/rbdock.cxx#4 $)

>  <Rbt.Library>
libRbt.so (2013.1, Build901 2013/11/27)

>  <Rbt.Parameter_File>
/export/apps/rDock/src/rDock_2013.1_src/data/scripts/dock_solv.prm

>  <Rbt.Receptor>
prm/blind_docking_20.prm

>  <SCORE>
20.5082

>  <SCORE.INTER>
-4.90703

>  <SCORE.INTER.CONST>
1

>  <SCORE.INTER.POLAR>
-1.65291

>  <SCORE.INTER.ROT>
10

>  <SCORE.INTER.SOLV>
21.5114

>  <SCORE.INTER.VDW>
-15.1988

>  <SCORE.INTER.norm>
-0.122676

>  <SCORE.INTRA>
5.01954

>  <SCORE.INTRA.DIHEDRAL>
-2.22823

>  <SCORE.INTRA.DIHEDRAL.0>
22.5778

>  <SCORE.INTRA.POLAR>
0

>  <SCORE.INTRA.POLAR.0>
0

>  <SCORE.INTRA.REPUL>
0

>  <SCORE.INTRA.REPUL.0>
0

>  <SCORE.INTRA.SOLV>
5.49571

>  <SCORE.INTRA.SOLV.lig_0>
-102.332

>  <SCORE.INTRA.VDW>
3.38579

>  <SCORE.INTRA.VDW.0>
-5.08747

>  <SCORE.INTRA.norm>
0.125488

>  <SCORE.RESTR>
20.3957

>  <SCORE.RESTR.CAVITY>
20.3957

>  <SCORE.RESTR.norm>
0.509893

>  <SCORE.SYSTEM>
0

>  <SCORE.SYSTEM.CONST>
0

>  <SCORE.SYSTEM.DIHEDRAL>
0

>  <SCORE.SYSTEM.SOLV>
0

>  <SCORE.SYSTEM.norm>
0

>  <SCORE.heavy>
40

>  <SCORE.norm>
0.512706

>  <RMSD>
12.303

$$$$
2g5q_lig
 OpenBabel11021811433D
libRbt.so/2013.1/901 2013/11/27
 40 42  0  0  0  0  0  0  0  0999 V2000
   10.9832  -11.4343    9.2406 C   0  0  2  0  0  0  0  0  0  0  0  0
   10.6386  -10.3449    8.4135 O   0  0  0  0  0  0  0  0  0  0  0  0
   11.5331  -12.5868    8.3495 C   0  0  1  0  0  0  0  0  0  0  0  0
   10.4296  -13.1815    7.4209 C   0  0  2  0  0  0  0  0  0  0  0  0
    9.2887  -13.7182    8.3239 C   0  0  2  0  0  0  0  0  0  0  0  0
    8.2601  -14.2967    7.5043 O   0  0  0  0  0  0  0  0  0  0  0  0
    8.7250  -12.5128    9.1802 C   0  0  2  0  0  0  0  0  0  0  0  0
    9.8129  -11.9264   10.0142 O   0  0  0  0  0  0  0  0  0  0  0  0
    7.6002  -12.9322   10.1207 C   0  0  0  0  0  0  0  0  0  0  0  0
    8.0464  -13.9713   11.1019 N   0  0  0  0  0  0  0  0  0  0  0  0
    8.3555   -7.8045   11.1358 C   0  0  2  0  0  0  0  0  0  0  0  0
    7.5758   -6.6866   11.6538 N   0  0  0  0  0  0  0  0  0  0  0  0
    9.7707   -7.2981   10.6291 C   0  0  0  0  0  0  0  0  0  0  0  0
   10.6216   -8.5072   10.0737 C   0  0  2  0  0  0  0  0  0  0  0  0
   11.9500   -8.0209    9.6123 N   0  0  0  0  0  0  0  0  0  0  0  0
    9.8299   -9.2158    8.9037 C   0  0  2  0  0  0  0  0  0  0  0  0
    8.4269   -9.7016    9.4445 C   0  0  2  0  0  0  0  0  0  0  0  0
    7.7093  -10.3371    8.3819 O   0  0  0  0  0  0  0  0  0  0  0  0
    7.5886   -8.4783    9.9792 C   0  0  1  0  0  0  0  0  0  0  0  0
    6.3020   -8.9301   10.4880 O   0  0  0  0  0  0  0  0  0  0  0  0
    6.1469   -9.8972   11.4974 C   0  0  2  0  0  0  0  0  0  0  0  0
    4.6121  -10.0492   11.7700 C   0  0  2  0  0  0  0  0  0  0  0  0
    3.9706  -10.4546   10.6036 O   0  0  0  0  0  0  0  0  0  0  0  0
    3.9949   -8.7055   12.3145 C   0  0  1  0  0  0  0  0  0  0  0  0
    2.5254   -8.8423   12.5831 N   0  0  0  0  0  0  0  0  0  0  0  0
    4.7700   -8.3009   13.6309 C   0  0  2  0  0  0  0  0  0  0  0  0
    4.2478   -7.0883   14.1777 O   0  0  0  0  0  0  0  0  0  0  0  0
    6.2926   -8.1636   13.2915 C   0  0  2  0  0  0  0  0  0  0  0  0
    6.8348   -9.4437   12.7194 O   0  0  0  0  0  0  0  0  0  0  0  0
    7.1032   -7.8098   14.5045 C   0  0  0  0  0  0  0  0  0  0  0  0
    6.7713   -8.6547   15.6184 O   0  0  0  0  0  0  0  0  0  0  0  0
   12.6601  -12.0660    7.5642 O   0  0  0  0  0  0  0  0  0  0  0  0
   10.9660  -14.2023    6.6675 O   0  0  0  0  0  0  0  0  0  0  0  0
    3.3482   -2.4578   10.3265 N   0  0  0  0  0  0  0  0  0  0  0  0
    6.9736   -5.7039   10.8806 C   0  0  0  0  0  0  0  0  0  0  0  0
    7.0378   -5.6617    9.6569 O   0  0  0  0  0  0  0  0  0  0  0  0
    6.2254   -4.6558   11.7363 C   0  0  1  0  0  0  0  0  0  0  0  0
    4.9081   -4.2513   11.0440 C   0  0  0  0  0  0  0  0  0  0  0  0
    4.6341   -2.7453   10.9587 C   0  0  0  0  0  0  0  0  0  0  0  0
    5.9709   -5.2095   13.0470 O   0  0  0  0  0  0  0  0  0  0  0  0
  1  2  1  6  0  0  0
  1  3  1  0  0  0  0
  1  8  1  0  0  0  0
  3  4  1  0  0  0  0
  3 32  1  6  0  0  0
  4  5  1  0  0  0  0
  4 33  1  1  0  0  0
  5  6  1  6  0  0  0
  5  7  1  0  0  0  0
  7  8  1  0  0  0  0
  7  9  1  1  0  0  0
  9 10  1  0  0  0  0
 11 12  1  6  0  0  0
 11 13  1  0  0  0  0
 11 19  1  0  0  0  0
 12 35  1  0  0  0  0
 13 14  1  0  0  0  0
 14 15  1  6  0  0  0
 14 16  1  0  0  0  0
 16  2  1  1  0  0  0
 16 17  1  0  0  0  0
 17 18  1  6  0  0  0
 17 19  1  0  0  0  0
 19 20  1  1  0  0  0
 21 20  1  6  0  0  0
 21 22  1  0  0  0  0
 21 29  1  0  0  0  0
 22 23  1  6  0  0  0
 22 24  1  0  0  0  0
 24 25  1  1  0  0  0
 24 26  1  0  0  0  0
 26 27  1  6  0  0  0
 26 28  1  0  0  0  0
 28 29  1  0  0  0  0
 28 30  1  1  0  0  0
 30 31  1  0  0  0  0
 34 39  1  0  0  0  0
 35 36  2  0  0  0  0
 37 35  1  6  0  0  0
 37 38  1  0  0  0  0
 37 40  1  0  0  0  0
 38 39  1  0  0  0  0
M  END
>  <CHROM.1>
166.69911562,60.15392766,73.58728721,62.00820635,-62.83524868,178.20022227
48.03426533,-141.08560544,-132.59675681,-178.21038315,7.58584211,-9.18346120
10.60849683,-0.82526988,0.61098135,0.04781689

>  <Name>
2g5q_lig

>  <RI>
0

>  <Rbt.Current_Directory>
/home/itssahil/PROJECTS/Mol_Feturizer/New_Systems/rnas/2g5q

>  <Rbt.Executable>
rbdock ($Id: //depot/dev/client3/rdock/2013.1/src/exe/rbdock.cxx#4 $)

>  <Rbt.Library>
libRbt.so (2013.1, Build901 2013/11/27)

>  <Rbt.Parameter_File>
/export/apps/rDock/src/rDock_2013.1_src/data/scripts/dock_solv.prm

>  <Rbt.Receptor>
prm/blind_docking_20.prm

>  <SCORE>
27.9629

>  <SCORE.INTER>
6.84716

>  <SCORE.INTER.CONST>
1

>  <SCORE.INTER.POLAR>
-0.757236

>  <SCORE.INTER.ROT>
10

>  <SCORE.INTER.SOLV>
17.719

>  <SCORE.INTER.VDW>
-9.0841

>  <SCORE.INTER.norm>
0.171179

>  <SCORE.INTRA>
-0.875527

>  <SCORE.INTRA.DIHEDRAL>
-14.3932

>  <SCORE.INTRA.DIHEDRAL.0>
22.5778

>  <SCORE.INTRA.POLAR>
0

>  <SCORE.INTRA.POLAR.0>
0

>  <SCORE.INTRA.REPUL>
0

>  <SCORE.INTRA.REPUL.0>
0

>  <SCORE.INTRA.SOLV>
3.76903

>  <SCORE.INTRA.SOLV.lig_0>
-102.332

>  <SCORE.INTRA.VDW>
4.43657

>  <SCORE.INTRA.VDW.0>
-5.08747

>  <SCORE.INTRA.norm>
-0.0218882

>  <SCORE.RESTR>
21.9913

>  <SCORE.RESTR.CAVITY>
21.9913

>  <SCORE.RESTR.norm>
0.549782

>  <SCORE.SYSTEM>
0

>  <SCORE.SYSTEM.CONST>
0

>  <SCORE.SYSTEM.DIHEDRAL>
0

>  <SCORE.SYSTEM.SOLV>
0

>  <SCORE.SYSTEM.norm>
0

>  <SCORE.heavy>
40

>  <SCORE.norm>
0.699073

>  <RMSD>
12.318

$$$$
2g5q_lig
 OpenBabel11021811433D
libRbt.so/2013.1/901 2013/11/27
 40 42  0  0  0  0  0  0  0  0999 V2000
    9.4565  -13.0763    8.7089 C   0  0  2  0  0  0  0  0  0  0  0  0
    9.5824  -12.0335    9.6503 O   0  0  0  0  0  0  0  0  0  0  0  0
   10.5388  -14.1553    9.0072 C   0  0  1  0  0  0  0  0  0  0  0  0
   11.9812  -13.6188    8.7515 C   0  0  2  0  0  0  0  0  0  0  0  0
   12.0698  -13.1871    7.2646 C   0  0  2  0  0  0  0  0  0  0  0  0
   13.3944  -12.7070    6.9827 O   0  0  0  0  0  0  0  0  0  0  0  0
   10.9885  -12.0602    7.0100 C   0  0  2  0  0  0  0  0  0  0  0  0
    9.6259  -12.5814    7.3173 O   0  0  0  0  0  0  0  0  0  0  0  0
   10.9776  -11.5682    5.5666 C   0  0  0  0  0  0  0  0  0  0  0  0
   10.4817  -12.6164    4.6195 N   0  0  0  0  0  0  0  0  0  0  0  0
    7.2841   -8.5810   11.0197 C   0  0  2  0  0  0  0  0  0  0  0  0
    6.4581   -7.3796   11.0078 N   0  0  0  0  0  0  0  0  0  0  0  0
    8.6289   -8.3301   10.2169 C   0  0  0  0  0  0  0  0  0  0  0  0
    9.5301   -9.6271   10.2334 C   0  0  2  0  0  0  0  0  0  0  0  0
   10.7924   -9.3752    9.4870 N   0  0  0  0  0  0  0  0  0  0  0  0
    8.7251  -10.8365    9.6112 C   0  0  2  0  0  0  0  0  0  0  0  0
    7.3929  -11.0526   10.4331 C   0  0  2  0  0  0  0  0  0  0  0  0
    6.6628  -12.1439    9.8640 O   0  0  0  0  0  0  0  0  0  0  0  0
    6.5021   -9.7527   10.3907 C   0  0  1  0  0  0  0  0  0  0  0  0
    5.2817   -9.9502   11.1586 O   0  0  0  0  0  0  0  0  0  0  0  0
    4.0252   -9.4357   10.7916 C   0  0  2  0  0  0  0  0  0  0  0  0
    3.3558   -8.8630   12.0866 C   0  0  2  0  0  0  0  0  0  0  0  0
    4.1577   -7.8579   12.6188 O   0  0  0  0  0  0  0  0  0  0  0  0
    3.1010  -10.0009   13.1463 C   0  0  1  0  0  0  0  0  0  0  0  0
    2.4556   -9.4629   14.3891 N   0  0  0  0  0  0  0  0  0  0  0  0
    2.1927  -11.1077   12.4775 C   0  0  2  0  0  0  0  0  0  0  0  0
    1.9200  -12.1673   13.3967 O   0  0  0  0  0  0  0  0  0  0  0  0
    2.9164  -11.6389   11.1943 C   0  0  2  0  0  0  0  0  0  0  0  0
    3.1975  -10.5190   10.2316 O   0  0  0  0  0  0  0  0  0  0  0  0
    2.0973  -12.6765   10.4829 C   0  0  0  0  0  0  0  0  0  0  0  0
    1.2645  -12.0821    9.4739 O   0  0  0  0  0  0  0  0  0  0  0  0
   10.3787  -14.5978   10.3989 O   0  0  0  0  0  0  0  0  0  0  0  0
   12.8944  -14.6152    9.0174 O   0  0  0  0  0  0  0  0  0  0  0  0
    4.4602   -2.7385   10.4278 N   0  0  0  0  0  0  0  0  0  0  0  0
    6.2628   -6.5312   12.0887 C   0  0  0  0  0  0  0  0  0  0  0  0
    6.7654   -6.7046   13.1935 O   0  0  0  0  0  0  0  0  0  0  0  0
    5.3253   -5.3495   11.7496 C   0  0  1  0  0  0  0  0  0  0  0  0
    6.1195   -4.0276   11.7506 C   0  0  0  0  0  0  0  0  0  0  0  0
    5.2843   -2.7472   11.6347 C   0  0  0  0  0  0  0  0  0  0  0  0
    4.7154   -5.5843   10.4603 O   0  0  0  0  0  0  0  0  0  0  0  0
  1  2  1  1  0  0  0
  1  3  1  0  0  0  0
  1  8  1  0  0  0  0
  3  4  1  0  0  0  0
  3 32  1  1  0  0  0
  4  5  1  0  0  0  0
  4 33  1  6  0  0  0
  5  6  1  1  0  0  0
  5  7  1  0  0  0  0
  7  8  1  0  0  0  0
  7  9  1  6  0  0  0
  9 10  1  0  0  0  0
 11 12  1  6  0  0  0
 11 13  1  0  0  0  0
 11 19  1  0  0  0  0
 12 35  1  0  0  0  0
 13 14  1  0  0  0  0
 14 15  1  6  0  0  0
 14 16  1  0  0  0  0
 16  2  1  1  0  0  0
 16 17  1  0  0  0  0
 17 18  1  6  0  0  0
 17 19  1  0  0  0  0
 19 20  1  1  0  0  0
 21 20  1  1  0  0  0
 21 22  1  0  0  0  0
 21 29  1  0  0  0  0
 22 23  1  1  0  0  0
 22 24  1  0  0  0  0
 24 25  1  1  0  0  0
 24 26  1  0  0  0  0
 26 27  1  1  0  0  0
 26 28  1  0  0  0  0
 28 29  1  0  0  0  0
 28 30  1  6  0  0  0
 30 31  1  0  0  0  0
 34 39  1  0  0  0  0
 35 36  2  0  0  0  0
 37 35  1  6  0  0  0
 37 38  1  0  0  0  0
 37 40  1  0  0  0  0
 38 39  1  0  0  0  0
M  END
>  <CHROM.1>
178.08510940,68.33077403,-106.46387674,-151.49393485,97.72416717,-136.94021694
92.16561967,-111.71647758,-171.31701309,-57.46702413,6.97395447,-10.12014617
10.22854478,0.63029103,-0.40786211,-2.98741631

>  <Name>
2g5q_lig

>  <RI>
0

>  <Rbt.Current_Directory>
/home/itssahil/PROJECTS/Mol_Feturizer/New_Systems/rnas/2g5q

>  <Rbt.Executable>
rbdock ($Id: //depot/dev/client3/rdock/2013.1/src/exe/rbdock.cxx#4 $)

>  <Rbt.Library>
libRbt.so (2013.1, Build901 2013/11/27)

>  <Rbt.Parameter_File>
/export/apps/rDock/src/rDock_2013.1_src/data/scripts/dock_solv.prm

>  <Rbt.Receptor>
prm/blind_docking_20.prm

>  <SCORE>
23.7933

>  <SCORE.INTER>
1.3964

>  <SCORE.INTER.CONST>
1

>  <SCORE.INTER.POLAR>
-0.29532

>  <SCORE.INTER.ROT>
10

>  <SCORE.INTER.SOLV>
16.3684

>  <SCORE.INTER.VDW>
-13.8075

>  <SCORE.INTER.norm>
0.0349099

>  <SCORE.INTRA>
1.81112

>  <SCORE.INTRA.DIHEDRAL>
-1.44368

>  <SCORE.INTRA.DIHEDRAL.0>
22.5778

>  <SCORE.INTRA.POLAR>
0

>  <SCORE.INTRA.POLAR.0>
0

>  <SCORE.INTRA.REPUL>
0

>  <SCORE.INTRA.REPUL.0>
0

>  <SCORE.INTRA.SOLV>
4.00062

>  <SCORE.INTRA.SOLV.lig_0>
-102.332

>  <SCORE.INTRA.VDW>
0.532647

>  <SCORE.INTRA.VDW.0>
-5.08747

>  <SCORE.INTRA.norm>
0.0452779

>  <SCORE.RESTR>
20.5858

>  <SCORE.RESTR.CAVITY>
20.5858

>  <SCORE.RESTR.norm>
0.514644

>  <SCORE.SYSTEM>
0

>  <SCORE.SYSTEM.CONST>
0

>  <SCORE.SYSTEM.DIHEDRAL>
0

>  <SCORE.SYSTEM.SOLV>
0

>  <SCORE.SYSTEM.norm>
0

>  <SCORE.heavy>
40

>  <SCORE.norm>
0.594832

>  <RMSD>
12.333

$$$$
2g5q_lig
 OpenBabel11021811433D
libRbt.so/2013.1/901 2013/11/27
 40 42  0  0  0  0  0  0  0  0999 V2000
   10.2820  -11.6387    6.8793 C   0  0  2  0  0  0  0  0  0  0  0  0
    9.9760  -10.5408    7.7102 O   0  0  0  0  0  0  0  0  0  0  0  0
    9.3693  -12.8370    7.2741 C   0  0  1  0  0  0  0  0  0  0  0  0
    9.6963  -13.3714    8.7028 C   0  0  2  0  0  0  0  0  0  0  0  0
   11.1808  -13.8199    8.7130 C   0  0  2  0  0  0  0  0  0  0  0  0
   11.5154  -14.3416   10.0092 O   0  0  0  0  0  0  0  0  0  0  0  0
   12.0796  -12.5685    8.3524 C   0  0  2  0  0  0  0  0  0  0  0  0
   11.7069  -12.0427    7.0079 O   0  0  0  0  0  0  0  0  0  0  0  0
   13.5677  -12.9005    8.3197 C   0  0  0  0  0  0  0  0  0  0  0  0
   13.9370  -13.7066    7.1132 N   0  0  0  0  0  0  0  0  0  0  0  0
    6.7598   -9.0391   10.2555 C   0  0  2  0  0  0  0  0  0  0  0  0
    5.5811   -9.0012   11.1128 N   0  0  0  0  0  0  0  0  0  0  0  0
    6.3881   -9.6463    8.8381 C   0  0  0  0  0  0  0  0  0  0  0  0
    7.6609   -9.6826    7.9037 C   0  0  2  0  0  0  0  0  0  0  0  0
    7.2966  -10.2435    6.5745 N   0  0  0  0  0  0  0  0  0  0  0  0
    8.7988  -10.5339    8.5953 C   0  0  2  0  0  0  0  0  0  0  0  0
    9.1381   -9.9022   10.0034 C   0  0  2  0  0  0  0  0  0  0  0  0
   10.1641  -10.6783   10.6304 O   0  0  0  0  0  0  0  0  0  0  0  0
    7.8591   -9.8899   10.9247 C   0  0  1  0  0  0  0  0  0  0  0  0
    8.1713   -9.2964   12.2164 O   0  0  0  0  0  0  0  0  0  0  0  0
    8.6516   -7.9857   12.3884 C   0  0  2  0  0  0  0  0  0  0  0  0
    8.9935   -7.8064   13.9063 C   0  0  2  0  0  0  0  0  0  0  0  0
    9.9629   -8.7334   14.2771 O   0  0  0  0  0  0  0  0  0  0  0  0
    7.7046   -7.9506   14.8010 C   0  0  1  0  0  0  0  0  0  0  0  0
    8.0212   -7.7759   16.2568 N   0  0  0  0  0  0  0  0  0  0  0  0
    6.6472   -6.8771   14.3247 C   0  0  2  0  0  0  0  0  0  0  0  0
    5.4541   -6.9545   15.1074 O   0  0  0  0  0  0  0  0  0  0  0  0
    6.3480   -7.1110   12.8054 C   0  0  2  0  0  0  0  0  0  0  0  0
    7.6073   -7.0256   11.9888 O   0  0  0  0  0  0  0  0  0  0  0  0
    5.3706   -6.1054   12.2696 C   0  0  0  0  0  0  0  0  0  0  0  0
    5.9704   -4.8047   12.1548 O   0  0  0  0  0  0  0  0  0  0  0  0
    7.9693  -12.4017    7.1804 O   0  0  0  0  0  0  0  0  0  0  0  0
    8.8712  -14.4353    8.9939 O   0  0  0  0  0  0  0  0  0  0  0  0
    1.9702  -13.1201   11.6568 N   0  0  0  0  0  0  0  0  0  0  0  0
    4.5573   -9.9382   11.1086 C   0  0  0  0  0  0  0  0  0  0  0  0
    4.5263  -10.9136   10.3664 O   0  0  0  0  0  0  0  0  0  0  0  0
    3.4489   -9.6058   12.1340 C   0  0  1  0  0  0  0  0  0  0  0  0
    2.3824  -10.7197   12.1391 C   0  0  0  0  0  0  0  0  0  0  0  0
    2.9167  -12.1548   12.2119 C   0  0  0  0  0  0  0  0  0  0  0  0
    4.0445   -9.4554   13.4425 O   0  0  0  0  0  0  0  0  0  0  0  0
  1  2  1  1  0  0  0
  1  3  1  0  0  0  0
  1  8  1  0  0  0  0
  3  4  1  0  0  0  0
  3 32  1  1  0  0  0
  4  5  1  0  0  0  0
  4 33  1  6  0  0  0
  5  6  1  1  0  0  0
  5  7  1  0  0  0  0
  7  8  1  0  0  0  0
  7  9  1  6  0  0  0
  9 10  1  0  0  0  0
 11 12  1  1  0  0  0
 11 13  1  0  0  0  0
 11 19  1  0  0  0  0
 12 35  1  0  0  0  0
 13 14  1  0  0  0  0
 14 15  1  6  0  0  0
 14 16  1  0  0  0  0
 16  2  1  6  0  0  0
 16 17  1  0  0  0  0
 17 18  1  1  0  0  0
 17 19  1  0  0  0  0
 19 20  1  1  0  0  0
 21 20  1  1  0  0  0
 21 22  1  0  0  0  0
 21 29  1  0  0  0  0
 22 23  1  1  0  0  0
 22 24  1  0  0  0  0
 24 25  1  1  0  0  0
 24 26  1  0  0  0  0
 26 27  1  1  0  0  0
 26 28  1  0  0  0  0
 28 29  1  0  0  0  0
 28 30  1  6  0  0  0
 30 31  1  0  0  0  0
 34 39  1  0  0  0  0
 35 36  2  0  0  0  0
 37 35  1  6  0  0  0
 37 38  1  0  0  0  0
 37 40  1  0  0  0  0
 38 39  1  0  0  0  0
M  END
>  <CHROM.1>
-10.55127488,73.19242819,34.22222267,-100.78005398,-59.94928383,-174.24217002
71.68097425,-176.84514190,47.74488782,-155.68052124,7.82342365,-10.19106927
10.67790415,0.89843560,-0.09630816,-2.36331195

>  <Name>
2g5q_lig

>  <RI>
0

>  <Rbt.Current_Directory>
/home/itssahil/PROJECTS/Mol_Feturizer/New_Systems/rnas/2g5q

>  <Rbt.Executable>
rbdock ($Id: //depot/dev/client3/rdock/2013.1/src/exe/rbdock.cxx#4 $)

>  <Rbt.Library>
libRbt.so (2013.1, Build901 2013/11/27)

>  <Rbt.Parameter_File>
/export/apps/rDock/src/rDock_2013.1_src/data/scripts/dock_solv.prm

>  <Rbt.Receptor>
prm/blind_docking_20.prm

>  <SCORE>
32.1476

>  <SCORE.INTER>
5.57538

>  <SCORE.INTER.CONST>
1

>  <SCORE.INTER.POLAR>
-0.215297

>  <SCORE.INTER.ROT>
10

>  <SCORE.INTER.SOLV>
22.5419

>  <SCORE.INTER.VDW>
-13.346

>  <SCORE.INTER.norm>
0.139385

>  <SCORE.INTRA>
9.25687

>  <SCORE.INTRA.DIHEDRAL>
-5.37587

>  <SCORE.INTRA.DIHEDRAL.0>
22.5778

>  <SCORE.INTRA.POLAR>
0

>  <SCORE.INTRA.POLAR.0>
0

>  <SCORE.INTRA.REPUL>
0

>  <SCORE.INTRA.REPUL.0>
0

>  <SCORE.INTRA.SOLV>
6.15694

>  <SCORE.INTRA.SOLV.lig_0>
-102.332

>  <SCORE.INTRA.VDW>
8.86633

>  <SCORE.INTRA.VDW.0>
-5.08747

>  <SCORE.INTRA.norm>
0.231422

>  <SCORE.RESTR>
17.3154

>  <SCORE.RESTR.CAVITY>
17.3154

>  <SCORE.RESTR.norm>
0.432884

>  <SCORE.SYSTEM>
0

>  <SCORE.SYSTEM.CONST>
0

>  <SCORE.SYSTEM.DIHEDRAL>
0

>  <SCORE.SYSTEM.SOLV>
0

>  <SCORE.SYSTEM.norm>
0

>  <SCORE.heavy>
40

>  <SCORE.norm>
0.80369

>  <RMSD>
12.340

$$$$
2g5q_lig
 OpenBabel11021811433D
libRbt.so/2013.1/901 2013/11/27
 40 42  0  0  0  0  0  0  0  0999 V2000
   10.0707  -13.0552    8.4930 C   0  0  2  0  0  0  0  0  0  0  0  0
   10.1011  -11.9834    9.4094 O   0  0  0  0  0  0  0  0  0  0  0  0
   11.5327  -13.4278    8.1076 C   0  0  1  0  0  0  0  0  0  0  0  0
   12.2293  -12.2897    7.2994 C   0  0  2  0  0  0  0  0  0  0  0  0
   11.3970  -12.0429    6.0143 C   0  0  2  0  0  0  0  0  0  0  0  0
   12.0209  -11.0141    5.2290 O   0  0  0  0  0  0  0  0  0  0  0  0
    9.9331  -11.6234    6.4444 C   0  0  2  0  0  0  0  0  0  0  0  0
    9.3125  -12.7035    7.2636 O   0  0  0  0  0  0  0  0  0  0  0  0
    9.0180  -11.3679    5.2515 C   0  0  0  0  0  0  0  0  0  0  0  0
    8.7599  -12.6151    4.4642 N   0  0  0  0  0  0  0  0  0  0  0  0
    6.1500  -10.5668   10.6176 C   0  0  2  0  0  0  0  0  0  0  0  0
    4.9869  -10.2554   11.4398 N   0  0  0  0  0  0  0  0  0  0  0  0
    6.4416  -12.1257   10.6476 C   0  0  0  0  0  0  0  0  0  0  0  0
    7.6967  -12.4684    9.7522 C   0  0  2  0  0  0  0  0  0  0  0  0
    7.9527  -13.9339    9.7799 N   0  0  0  0  0  0  0  0  0  0  0  0
    8.9502  -11.6554   10.2679 C   0  0  2  0  0  0  0  0  0  0  0  0
    8.6207  -10.1105   10.2275 C   0  0  2  0  0  0  0  0  0  0  0  0
    9.7546   -9.3768   10.7008 O   0  0  0  0  0  0  0  0  0  0  0  0
    7.3756   -9.7884   11.1391 C   0  0  1  0  0  0  0  0  0  0  0  0
    7.0668   -8.3669   11.0903 O   0  0  0  0  0  0  0  0  0  0  0  0
    5.9805   -7.7710   11.7560 C   0  0  2  0  0  0  0  0  0  0  0  0
    6.1796   -6.2192   11.6834 C   0  0  2  0  0  0  0  0  0  0  0  0
    6.2155   -5.8169   10.3518 O   0  0  0  0  0  0  0  0  0  0  0  0
    7.4885   -5.7772   12.4411 C   0  0  1  0  0  0  0  0  0  0  0  0
    7.6856   -4.2913   12.3812 N   0  0  0  0  0  0  0  0  0  0  0  0
    7.3846   -6.2687   13.9394 C   0  0  2  0  0  0  0  0  0  0  0  0
    8.5450   -5.8890   14.6821 O   0  0  0  0  0  0  0  0  0  0  0  0
    7.1893   -7.8225   13.9427 C   0  0  2  0  0  0  0  0  0  0  0  0
    5.9657   -8.2134   13.1618 O   0  0  0  0  0  0  0  0  0  0  0  0
    7.0506   -8.3628   15.3364 C   0  0  0  0  0  0  0  0  0  0  0  0
    5.8021   -7.9669   15.9276 O   0  0  0  0  0  0  0  0  0  0  0  0
   12.2727  -13.7296    9.3402 O   0  0  0  0  0  0  0  0  0  0  0  0
   13.5107  -12.6769    6.9745 O   0  0  0  0  0  0  0  0  0  0  0  0
    1.9999  -13.1741   12.1526 N   0  0  0  0  0  0  0  0  0  0  0  0
    3.8672   -9.5564   11.0112 C   0  0  0  0  0  0  0  0  0  0  0  0
    3.7328   -9.1094    9.8774 O   0  0  0  0  0  0  0  0  0  0  0  0
    2.8127   -9.3883   12.1294 C   0  0  1  0  0  0  0  0  0  0  0  0
    2.3716  -10.7705   12.6520 C   0  0  0  0  0  0  0  0  0  0  0  0
    2.0977  -11.8326   11.5809 C   0  0  0  0  0  0  0  0  0  0  0  0
    3.3755   -8.5893   13.1943 O   0  0  0  0  0  0  0  0  0  0  0  0
  1  2  1  1  0  0  0
  1  3  1  0  0  0  0
  1  8  1  0  0  0  0
  3  4  1  0  0  0  0
  3 32  1  1  0  0  0
  4  5  1  0  0  0  0
  4 33  1  6  0  0  0
  5  6  1  1  0  0  0
  5  7  1  0  0  0  0
  7  8  1  0  0  0  0
  7  9  1  6  0  0  0
  9 10  1  0  0  0  0
 11 12  1  1  0  0  0
 11 13  1  0  0  0  0
 11 19  1  0  0  0  0
 12 35  1  0  0  0  0
 13 14  1  0  0  0  0
 14 15  1  1  0  0  0
 14 16  1  0  0  0  0
 16  2  1  6  0  0  0
 16 17  1  0  0  0  0
 17 18  1  1  0  0  0
 17 19  1  0  0  0  0
 19 20  1  6  0  0  0
 21 20  1  6  0  0  0
 21 22  1  0  0  0  0
 21 29  1  0  0  0  0
 22 23  1  6  0  0  0
 22 24  1  0  0  0  0
 24 25  1  1  0  0  0
 24 26  1  0  0  0  0
 26 27  1  1  0  0  0
 26 28  1  0  0  0  0
 28 29  1  0  0  0  0
 28 30  1  1  0  0  0
 30 31  1  0  0  0  0
 34 39  1  0  0  0  0
 35 36  2  0  0  0  0
 37 35  1  6  0  0  0
 37 38  1  0  0  0  0
 37 40  1  0  0  0  0
 38 39  1  0  0  0  0
M  END
>  <CHROM.1>
-161.36448074,65.87107682,-125.92242124,-11.78061859,58.06568732,168.68344803
69.80683742,-58.30967060,-44.04630605,166.40657046,7.55110366,-10.08372651
10.46182066,0.86601984,-0.34965430,-2.48788075

>  <Name>
2g5q_lig

>  <RI>
0

>  <Rbt.Current_Directory>
/home/itssahil/PROJECTS/Mol_Feturizer/New_Systems/rnas/2g5q

>  <Rbt.Executable>
rbdock ($Id: //depot/dev/client3/rdock/2013.1/src/exe/rbdock.cxx#4 $)

>  <Rbt.Library>
libRbt.so (2013.1, Build901 2013/11/27)

>  <Rbt.Parameter_File>
/export/apps/rDock/src/rDock_2013.1_src/data/scripts/dock_solv.prm

>  <Rbt.Receptor>
prm/blind_docking_20.prm

>  <SCORE>
24.7104

>  <SCORE.INTER>
5.05104

>  <SCORE.INTER.CONST>
1

>  <SCORE.INTER.POLAR>
-0.57557

>  <SCORE.INTER.ROT>
10

>  <SCORE.INTER.SOLV>
17.1325

>  <SCORE.INTER.VDW>
-10.6916

>  <SCORE.INTER.norm>
0.126276

>  <SCORE.INTRA>
0.375416

>  <SCORE.INTRA.DIHEDRAL>
-9.84557

>  <SCORE.INTRA.DIHEDRAL.0>
22.5778

>  <SCORE.INTRA.POLAR>
0

>  <SCORE.INTRA.POLAR.0>
0

>  <SCORE.INTRA.REPUL>
0

>  <SCORE.INTRA.REPUL.0>
0

>  <SCORE.INTRA.SOLV>
3.74909

>  <SCORE.INTRA.SOLV.lig_0>
-102.332

>  <SCORE.INTRA.VDW>
3.42366

>  <SCORE.INTRA.VDW.0>
-5.08747

>  <SCORE.INTRA.norm>
0.00938541

>  <SCORE.RESTR>
19.284

>  <SCORE.RESTR.CAVITY>
19.284

>  <SCORE.RESTR.norm>
0.482099

>  <SCORE.SYSTEM>
0

>  <SCORE.SYSTEM.CONST>
0

>  <SCORE.SYSTEM.DIHEDRAL>
0

>  <SCORE.SYSTEM.SOLV>
0

>  <SCORE.SYSTEM.norm>
0

>  <SCORE.heavy>
40

>  <SCORE.norm>
0.61776

>  <RMSD>
12.360

$$$$
2g5q_lig
 OpenBabel11021811433D
libRbt.so/2013.1/901 2013/11/27
 40 42  0  0  0  0  0  0  0  0999 V2000
   10.8493  -10.4716    8.9510 C   0  0  2  0  0  0  0  0  0  0  0  0
   10.3778  -11.2498   10.0287 O   0  0  0  0  0  0  0  0  0  0  0  0
   10.1066  -10.9080    7.6538 C   0  0  1  0  0  0  0  0  0  0  0  0
   10.4798  -12.3624    7.2310 C   0  0  2  0  0  0  0  0  0  0  0  0
   12.0120  -12.4097    6.9966 C   0  0  2  0  0  0  0  0  0  0  0  0
   12.3934  -13.7314    6.5819 O   0  0  0  0  0  0  0  0  0  0  0  0
   12.7330  -12.0050    8.3459 C   0  0  2  0  0  0  0  0  0  0  0  0
   12.3142  -10.6345    8.7572 O   0  0  0  0  0  0  0  0  0  0  0  0
   14.2532  -12.0043    8.2254 C   0  0  0  0  0  0  0  0  0  0  0  0
   14.7429  -10.9346    7.2994 N   0  0  0  0  0  0  0  0  0  0  0  0
    6.1598  -10.2356   10.5362 C   0  0  2  0  0  0  0  0  0  0  0  0
    4.8656   -9.9842   11.1587 N   0  0  0  0  0  0  0  0  0  0  0  0
    6.6231  -11.7264   10.8165 C   0  0  0  0  0  0  0  0  0  0  0  0
    8.0217  -12.0052   10.1377 C   0  0  2  0  0  0  0  0  0  0  0  0
    8.4394  -13.4093   10.3984 N   0  0  0  0  0  0  0  0  0  0  0  0
    9.0886  -10.9761   10.6861 C   0  0  2  0  0  0  0  0  0  0  0  0
    8.5911   -9.5052   10.3929 C   0  0  2  0  0  0  0  0  0  0  0  0
    9.5555   -8.5752   10.8959 O   0  0  0  0  0  0  0  0  0  0  0  0
    7.2025   -9.2434   11.0917 C   0  0  1  0  0  0  0  0  0  0  0  0
    6.7408   -7.8922   10.8099 O   0  0  0  0  0  0  0  0  0  0  0  0
    5.9102   -7.1465   11.6655 C   0  0  2  0  0  0  0  0  0  0  0  0
    6.0779   -5.6366   11.2841 C   0  0  2  0  0  0  0  0  0  0  0  0
    5.7053   -5.4483    9.9567 O   0  0  0  0  0  0  0  0  0  0  0  0
    7.5559   -5.1486   11.5290 C   0  0  1  0  0  0  0  0  0  0  0  0
    7.7257   -3.7018   11.1708 N   0  0  0  0  0  0  0  0  0  0  0  0
    7.9149   -5.3956   13.0481 C   0  0  2  0  0  0  0  0  0  0  0  0
    9.2468   -4.9640   13.3340 O   0  0  0  0  0  0  0  0  0  0  0  0
    7.7295   -6.9183   13.3636 C   0  0  2  0  0  0  0  0  0  0  0  0
    6.3256   -7.3639   13.0627 O   0  0  0  0  0  0  0  0  0  0  0  0
    8.0232   -7.2280   14.8029 C   0  0  0  0  0  0  0  0  0  0  0  0
    8.1582   -6.0257   15.5782 O   0  0  0  0  0  0  0  0  0  0  0  0
    8.6613  -10.7789    7.8835 O   0  0  0  0  0  0  0  0  0  0  0  0
    9.8069  -12.6903    6.0747 O   0  0  0  0  0  0  0  0  0  0  0  0
    3.9502   -8.1868   13.8735 N   0  0  0  0  0  0  0  0  0  0  0  0
    3.9750  -10.9626   11.5778 C   0  0  0  0  0  0  0  0  0  0  0  0
    4.1776  -12.1663   11.4624 O   0  0  0  0  0  0  0  0  0  0  0  0
    2.6881  -10.3652   12.1922 C   0  0  1  0  0  0  0  0  0  0  0  0
    2.7838  -10.3740   13.7313 C   0  0  0  0  0  0  0  0  0  0  0  0
    3.9456   -9.5744   14.3323 C   0  0  0  0  0  0  0  0  0  0  0  0
    2.5060   -9.0206   11.6940 O   0  0  0  0  0  0  0  0  0  0  0  0
  1  2  1  1  0  0  0
  1  3  1  0  0  0  0
  1  8  1  0  0  0  0
  3  4  1  0  0  0  0
  3 32  1  1  0  0  0
  4  5  1  0  0  0  0
  4 33  1  6  0  0  0
  5  6  1  1  0  0  0
  5  7  1  0  0  0  0
  7  8  1  0  0  0  0
  7  9  1  6  0  0  0
  9 10  1  0  0  0  0
 11 12  1  1  0  0  0
 11 13  1  0  0  0  0
 11 19  1  0  0  0  0
 12 35  1  0  0  0  0
 13 14  1  0  0  0  0
 14 15  1  1  0  0  0
 14 16  1  0  0  0  0
 16  2  1  6  0  0  0
 16 17  1  0  0  0  0
 17 18  1  1  0  0  0
 17 19  1  0  0  0  0
 19 20  1  6  0  0  0
 21 20  1  6  0  0  0
 21 22  1  0  0  0  0
 21 29  1  0  0  0  0
 22 23  1  6  0  0  0
 22 24  1  0  0  0  0
 24 25  1  1  0  0  0
 24 26  1  0  0  0  0
 26 27  1  6  0  0  0
 26 28  1  0  0  0  0
 28 29  1  0  0  0  0
 28 30  1  1  0  0  0
 30 31  1  0  0  0  0
 34 39  1  0  0  0  0
 35 36  2  0  0  0  0
 37 35  1  6  0  0  0
 37 38  1  0  0  0  0
 37 40  1  0  0  0  0
 38 39  1  0  0  0  0
M  END
>  <CHROM.1>
-78.13832176,66.50012890,-18.15845639,100.93451208,88.91197561,159.59364188
10.66073033,-98.93045538,60.02122419,54.76615928,7.97300840,-9.47106641,10.71244401
-0.73797376,0.36434566,0.48261306

>  <Name>
2g5q_lig

>  <RI>
0

>  <Rbt.Current_Directory>
/home/itssahil/PROJECTS/Mol_Feturizer/New_Systems/rnas/2g5q

>  <Rbt.Executable>
rbdock ($Id: //depot/dev/client3/rdock/2013.1/src/exe/rbdock.cxx#4 $)

>  <Rbt.Library>
libRbt.so (2013.1, Build901 2013/11/27)

>  <Rbt.Parameter_File>
/export/apps/rDock/src/rDock_2013.1_src/data/scripts/dock_solv.prm

>  <Rbt.Receptor>
prm/blind_docking_20.prm

>  <SCORE>
32.6517

>  <SCORE.INTER>
5.60466

>  <SCORE.INTER.CONST>
1

>  <SCORE.INTER.POLAR>
-1.02782

>  <SCORE.INTER.ROT>
10

>  <SCORE.INTER.SOLV>
15.5567

>  <SCORE.INTER.VDW>
-8.2897

>  <SCORE.INTER.norm>
0.140116

>  <SCORE.INTRA>
8.77666

>  <SCORE.INTRA.DIHEDRAL>
-2.22188

>  <SCORE.INTRA.DIHEDRAL.0>
22.5778

>  <SCORE.INTRA.POLAR>
0

>  <SCORE.INTRA.POLAR.0>
0

>  <SCORE.INTRA.REPUL>
0

>  <SCORE.INTRA.REPUL.0>
0

>  <SCORE.INTRA.SOLV>
9.25212

>  <SCORE.INTRA.SOLV.lig_0>
-102.332

>  <SCORE.INTRA.VDW>
5.26154

>  <SCORE.INTRA.VDW.0>
-5.08747

>  <SCORE.INTRA.norm>
0.219416

>  <SCORE.RESTR>
18.2704

>  <SCORE.RESTR.CAVITY>
18.2704

>  <SCORE.RESTR.norm>
0.45676

>  <SCORE.SYSTEM>
0

>  <SCORE.SYSTEM.CONST>
0

>  <SCORE.SYSTEM.DIHEDRAL>
0

>  <SCORE.SYSTEM.SOLV>
0

>  <SCORE.SYSTEM.norm>
0

>  <SCORE.heavy>
40

>  <SCORE.norm>
0.816293

>  <RMSD>
12.366

$$$$
2g5q_lig
 OpenBabel11021811433D
libRbt.so/2013.1/901 2013/11/27
 40 42  0  0  0  0  0  0  0  0999 V2000
    9.4764  -12.2733    8.4919 C   0  0  2  0  0  0  0  0  0  0  0  0
    9.1908  -11.0951    7.7710 O   0  0  0  0  0  0  0  0  0  0  0  0
   10.8901  -12.1404    9.1312 C   0  0  1  0  0  0  0  0  0  0  0  0
   12.0156  -12.1035    8.0517 C   0  0  2  0  0  0  0  0  0  0  0  0
   11.9331  -13.4194    7.2354 C   0  0  2  0  0  0  0  0  0  0  0  0
   12.9716  -13.4340    6.2425 O   0  0  0  0  0  0  0  0  0  0  0  0
   10.5019  -13.4983    6.5648 C   0  0  2  0  0  0  0  0  0  0  0  0
    9.4441  -13.4735    7.6152 O   0  0  0  0  0  0  0  0  0  0  0  0
   10.3043  -14.7679    5.7434 C   0  0  0  0  0  0  0  0  0  0  0  0
    8.8755  -14.9580    5.3382 N   0  0  0  0  0  0  0  0  0  0  0  0
    7.6004   -8.3948   10.8134 C   0  0  2  0  0  0  0  0  0  0  0  0
    6.9183   -7.2682   11.4389 N   0  0  0  0  0  0  0  0  0  0  0  0
    8.7637   -7.8758    9.8684 C   0  0  0  0  0  0  0  0  0  0  0  0
    9.5101   -9.0936    9.1942 C   0  0  2  0  0  0  0  0  0  0  0  0
   10.6054   -8.5940    8.3197 N   0  0  0  0  0  0  0  0  0  0  0  0
    8.4721   -9.9617    8.3776 C   0  0  2  0  0  0  0  0  0  0  0  0
    7.3286  -10.4560    9.3496 C   0  0  2  0  0  0  0  0  0  0  0  0
    6.3866  -11.2364    8.6068 O   0  0  0  0  0  0  0  0  0  0  0  0
    6.5872   -9.2258    9.9991 C   0  0  1  0  0  0  0  0  0  0  0  0
    5.5428   -9.6839   10.9033 O   0  0  0  0  0  0  0  0  0  0  0  0
    4.2789   -9.0784   11.0221 C   0  0  2  0  0  0  0  0  0  0  0  0
    3.9532   -8.9677   12.5502 C   0  0  2  0  0  0  0  0  0  0  0  0
    4.9251   -8.1946   13.1778 O   0  0  0  0  0  0  0  0  0  0  0  0
    3.8506  -10.3926   13.2149 C   0  0  1  0  0  0  0  0  0  0  0  0
    3.5343  -10.2972   14.6782 N   0  0  0  0  0  0  0  0  0  0  0  0
    2.7376  -11.2165   12.4536 C   0  0  2  0  0  0  0  0  0  0  0  0
    2.5929  -12.5211   13.0187 O   0  0  0  0  0  0  0  0  0  0  0  0
    3.1219  -11.2920   10.9373 C   0  0  2  0  0  0  0  0  0  0  0  0
    3.2698   -9.9161   10.3498 O   0  0  0  0  0  0  0  0  0  0  0  0
    2.0916  -12.0364   10.1386 C   0  0  0  0  0  0  0  0  0  0  0  0
    1.9917  -13.4056   10.5631 O   0  0  0  0  0  0  0  0  0  0  0  0
   10.9108  -10.9263    9.9579 O   0  0  0  0  0  0  0  0  0  0  0  0
   13.2414  -11.9990    8.6714 O   0  0  0  0  0  0  0  0  0  0  0  0
    6.0996   -5.0868   10.0254 N   0  0  0  0  0  0  0  0  0  0  0  0
    7.3083   -6.6508   12.6190 C   0  0  0  0  0  0  0  0  0  0  0  0
    8.2812   -6.9946   13.2814 O   0  0  0  0  0  0  0  0  0  0  0  0
    6.3680   -5.4896   13.0163 C   0  0  1  0  0  0  0  0  0  0  0  0
    5.0501   -5.5809   12.2207 C   0  0  0  0  0  0  0  0  0  0  0  0
    4.9946   -4.7627   10.9254 C   0  0  0  0  0  0  0  0  0  0  0  0
    6.1175   -5.5491   14.4387 O   0  0  0  0  0  0  0  0  0  0  0  0
  1  2  1  6  0  0  0
  1  3  1  0  0  0  0
  1  8  1  0  0  0  0
  3  4  1  0  0  0  0
  3 32  1  6  0  0  0
  4  5  1  0  0  0  0
  4 33  1  1  0  0  0
  5  6  1  6  0  0  0
  5  7  1  0  0  0  0
  7  8  1  0  0  0  0
  7  9  1  1  0  0  0
  9 10  1  0  0  0  0
 11 12  1  6  0  0  0
 11 13  1  0  0  0  0
 11 19  1  0  0  0  0
 12 35  1  0  0  0  0
 13 14  1  0  0  0  0
 14 15  1  6  0  0  0
 14 16  1  0  0  0  0
 16  2  1  1  0  0  0
 16 17  1  0  0  0  0
 17 18  1  6  0  0  0
 17 19  1  0  0  0  0
 19 20  1  1  0  0  0
 21 20  1  1  0  0  0
 21 22  1  0  0  0  0
 21 29  1  0  0  0  0
 22 23  1  1  0  0  0
 22 24  1  0  0  0  0
 24 25  1  1  0  0  0
 24 26  1  0  0  0  0
 26 27  1  1  0  0  0
 26 28  1  0  0  0  0
 28 29  1  0  0  0  0
 28 30  1  6  0  0  0
 30 31  1  0  0  0  0
 34 39  1  0  0  0  0
 35 36  2  0  0  0  0
 37 35  1  6  0  0  0
 37 38  1  0  0  0  0
 37 40  1  0  0  0  0
 38 39  1  0  0  0  0
M  END
>  <CHROM.1>
-92.64705240,168.94873237,-86.66014526,82.45521207,100.10880861,-135.68021737
-63.08658022,15.66445192,-93.83474455,55.04279776,7.19886214,-10.11055285
10.16181859,0.73316326,-0.37519562,-2.67649029

>  <Name>
2g5q_lig

>  <RI>
0

>  <Rbt.Current_Directory>
/home/itssahil/PROJECTS/Mol_Feturizer/New_Systems/rnas/2g5q

>  <Rbt.Executable>
rbdock ($Id: //depot/dev/client3/rdock/2013.1/src/exe/rbdock.cxx#4 $)

>  <Rbt.Library>
libRbt.so (2013.1, Build901 2013/11/27)

>  <Rbt.Parameter_File>
/export/apps/rDock/src/rDock_2013.1_src/data/scripts/dock_solv.prm

>  <Rbt.Receptor>
prm/blind_docking_20.prm

>  <SCORE>
24.7239

>  <SCORE.INTER>
-3.57926

>  <SCORE.INTER.CONST>
1

>  <SCORE.INTER.POLAR>
-0.657842

>  <SCORE.INTER.ROT>
10

>  <SCORE.INTER.SOLV>
19.9646

>  <SCORE.INTER.VDW>
-17.1149

>  <SCORE.INTER.norm>
-0.0894814

>  <SCORE.INTRA>
8.61533

>  <SCORE.INTRA.DIHEDRAL>
1.50277

>  <SCORE.INTRA.DIHEDRAL.0>
22.5778

>  <SCORE.INTRA.POLAR>
0

>  <SCORE.INTRA.POLAR.0>
0

>  <SCORE.INTRA.REPUL>
0

>  <SCORE.INTRA.REPUL.0>
0

>  <SCORE.INTRA.SOLV>
7.29601

>  <SCORE.INTRA.SOLV.lig_0>
-102.332

>  <SCORE.INTRA.VDW>
4.21594

>  <SCORE.INTRA.VDW.0>
-5.08747

>  <SCORE.INTRA.norm>
0.215383

>  <SCORE.RESTR>
19.6879

>  <SCORE.RESTR.CAVITY>
19.6879

>  <SCORE.RESTR.norm>
0.492196

>  <SCORE.SYSTEM>
0

>  <SCORE.SYSTEM.CONST>
0

>  <SCORE.SYSTEM.DIHEDRAL>
0

>  <SCORE.SYSTEM.SOLV>
0

>  <SCORE.SYSTEM.norm>
0

>  <SCORE.heavy>
40

>  <SCORE.norm>
0.618098

>  <RMSD>
12.527

$$$$
2g5q_lig
 OpenBabel11021811433D
libRbt.so/2013.1/901 2013/11/27
 40 42  0  0  0  0  0  0  0  0999 V2000
   22.6106    3.1495   17.1363 C   0  0  2  0  0  0  0  0  0  0  0  0
   22.5367    3.6451   15.8178 O   0  0  0  0  0  0  0  0  0  0  0  0
   23.9825    2.4384   17.3291 C   0  0  1  0  0  0  0  0  0  0  0  0
   24.0968    1.1489   16.4585 C   0  0  2  0  0  0  0  0  0  0  0  0
   22.9494    0.1923   16.8749 C   0  0  2  0  0  0  0  0  0  0  0  0
   23.0344   -1.0205   16.1094 O   0  0  0  0  0  0  0  0  0  0  0  0
   21.5724    0.9303   16.6234 C   0  0  2  0  0  0  0  0  0  0  0  0
   21.5137    2.1877   17.4223 O   0  0  0  0  0  0  0  0  0  0  0  0
   20.3677    0.0808   17.0141 C   0  0  0  0  0  0  0  0  0  0  0  0
   19.1173    0.8968   17.1252 N   0  0  0  0  0  0  0  0  0  0  0  0
   18.6230    5.3122   14.8274 C   0  0  2  0  0  0  0  0  0  0  0  0
   17.5824    6.2590   14.4447 N   0  0  0  0  0  0  0  0  0  0  0  0
   19.3410    5.7938   16.1572 C   0  0  0  0  0  0  0  0  0  0  0  0
   20.4643    4.7670   16.5794 C   0  0  2  0  0  0  0  0  0  0  0  0
   21.1220    5.2243   17.8333 N   0  0  0  0  0  0  0  0  0  0  0  0
   21.5094    4.6157   15.4034 C   0  0  2  0  0  0  0  0  0  0  0  0
   20.7578    4.1397   14.0975 C   0  0  2  0  0  0  0  0  0  0  0  0
   21.7049    4.0095   13.0326 O   0  0  0  0  0  0  0  0  0  0  0  0
   19.6525    5.1855   13.6854 C   0  0  1  0  0  0  0  0  0  0  0  0
   18.9536    4.7386   12.4896 O   0  0  0  0  0  0  0  0  0  0  0  0
   19.4108    4.9599   11.1780 C   0  0  2  0  0  0  0  0  0  0  0  0
   19.3958    6.5064   10.9304 C   0  0  2  0  0  0  0  0  0  0  0  0
   20.2315    7.1326   11.8502 O   0  0  0  0  0  0  0  0  0  0  0  0
   17.9318    7.0823   11.0160 C   0  0  1  0  0  0  0  0  0  0  0  0
   17.9064    8.5628   10.7755 N   0  0  0  0  0  0  0  0  0  0  0  0
   17.0383    6.3268    9.9538 C   0  0  2  0  0  0  0  0  0  0  0  0
   15.6948    6.8133    9.9793 O   0  0  0  0  0  0  0  0  0  0  0  0
   17.0939    4.7913   10.2567 C   0  0  2  0  0  0  0  0  0  0  0  0
   18.5097    4.2869   10.2256 O   0  0  0  0  0  0  0  0  0  0  0  0
   16.2904    3.9994    9.2662 C   0  0  0  0  0  0  0  0  0  0  0  0
   14.9043    4.3769    9.2981 O   0  0  0  0  0  0  0  0  0  0  0  0
   25.0485    3.3942   17.0002 O   0  0  0  0  0  0  0  0  0  0  0  0
   25.3203    0.5552   16.6777 O   0  0  0  0  0  0  0  0  0  0  0  0
   13.7049    5.3178   14.7840 N   0  0  0  0  0  0  0  0  0  0  0  0
   16.5666    6.0075   13.5331 C   0  0  0  0  0  0  0  0  0  0  0  0
   16.4337    4.9466   12.9330 O   0  0  0  0  0  0  0  0  0  0  0  0
   15.6288    7.2222   13.3445 C   0  0  1  0  0  0  0  0  0  0  0  0
   14.8655    7.5088   14.6535 C   0  0  0  0  0  0  0  0  0  0  0  0
   13.5340    6.7686   14.8253 C   0  0  0  0  0  0  0  0  0  0  0  0
   16.4133    8.3678   12.9429 O   0  0  0  0  0  0  0  0  0  0  0  0
  1  2  1  6  0  0  0
  1  3  1  0  0  0  0
  1  8  1  0  0  0  0
  3  4  1  0  0  0  0
  3 32  1  6  0  0  0
  4  5  1  0  0  0  0
  4 33  1  1  0  0  0
  5  6  1  6  0  0  0
  5  7  1  0  0  0  0
  7  8  1  0  0  0  0
  7  9  1  1  0  0  0
  9 10  1  0  0  0  0
 11 12  1  6  0  0  0
 11 13  1  0  0  0  0
 11 19  1  0  0  0  0
 12 35  1  0  0  0  0
 13 14  1  0  0  0  0
 14 15  1  1  0  0  0
 14 16  1  0  0  0  0
 16  2  1  1  0  0  0
 16 17  1  0  0  0  0
 17 18  1  6  0  0  0
 17 19  1  0  0  0  0
 19 20  1  6  0  0  0
 21 20  1  1  0  0  0
 21 22  1  0  0  0  0
 21 29  1  0  0  0  0
 22 23  1  1  0  0  0
 22 24  1  0  0  0  0
 24 25  1  6  0  0  0
 24 26  1  0  0  0  0
 26 27  1  1  0  0  0
 26 28  1  0  0  0  0
 28 29  1  0  0  0  0
 28 30  1  6  0  0  0
 30 31  1  0  0  0  0
 34 39  1  0  0  0  0
 35 36  2  0  0  0  0
 37 35  1  1  0  0  0
 37 38  1  0  0  0  0
 37 40  1  0  0  0  0
 38 39  1  0  0  0  0
M  END
>  <CHROM.1>
-166.25193653,164.56960528,-164.22507260,-8.88910331,156.11464886,-64.71887259
-60.80916876,-65.52359332,-88.96267285,59.04286684,19.35282508,4.44866521
14.02340328,0.64558170,-0.51624086,1.72417656

>  <Name>
2g5q_lig

>  <RI>
0

>  <Rbt.Current_Directory>
/home/itssahil/PROJECTS/Mol_Feturizer/New_Systems/rnas/2g5q

>  <Rbt.Executable>
rbdock ($Id: //depot/dev/client3/rdock/2013.1/src/exe/rbdock.cxx#4 $)

>  <Rbt.Library>
libRbt.so (2013.1, Build901 2013/11/27)

>  <Rbt.Parameter_File>
/export/apps/rDock/src/rDock_2013.1_src/data/scripts/dock_solv.prm

>  <Rbt.Receptor>
prm/blind_docking_80.prm

>  <SCORE>
24.2998

>  <SCORE.INTER>
4.91545

>  <SCORE.INTER.CONST>
1

>  <SCORE.INTER.POLAR>
-1.03923

>  <SCORE.INTER.ROT>
10

>  <SCORE.INTER.SOLV>
20.783

>  <SCORE.INTER.VDW>
-10.4533

>  <SCORE.INTER.norm>
0.122886

>  <SCORE.INTRA>
2.38377

>  <SCORE.INTRA.DIHEDRAL>
-8.02093

>  <SCORE.INTRA.DIHEDRAL.0>
22.5778

>  <SCORE.INTRA.POLAR>
0

>  <SCORE.INTRA.POLAR.0>
0

>  <SCORE.INTRA.REPUL>
0

>  <SCORE.INTRA.REPUL.0>
0

>  <SCORE.INTRA.SOLV>
9.18632

>  <SCORE.INTRA.SOLV.lig_0>
-102.332

>  <SCORE.INTRA.VDW>
1.80108

>  <SCORE.INTRA.VDW.0>
-5.08747

>  <SCORE.INTRA.norm>
0.0595943

>  <SCORE.RESTR>
17.0006

>  <SCORE.RESTR.CAVITY>
17.0006

>  <SCORE.RESTR.norm>
0.425014

>  <SCORE.SYSTEM>
0

>  <SCORE.SYSTEM.CONST>
0

>  <SCORE.SYSTEM.DIHEDRAL>
0

>  <SCORE.SYSTEM.SOLV>
0

>  <SCORE.SYSTEM.norm>
0

>  <SCORE.heavy>
40

>  <SCORE.norm>
0.607495

>  <RMSD>
23.978

$$$$
2g5q_lig
 OpenBabel11021811433D
libRbt.so/2013.1/901 2013/11/27
 40 42  0  0  0  0  0  0  0  0999 V2000
   21.5258    2.9511   17.6493 C   0  0  2  0  0  0  0  0  0  0  0  0
   22.0872    4.0125   16.9093 O   0  0  0  0  0  0  0  0  0  0  0  0
   22.6273    2.3393   18.5643 C   0  0  1  0  0  0  0  0  0  0  0  0
   23.7492    1.6398   17.7362 C   0  0  2  0  0  0  0  0  0  0  0  0
   23.0875    0.5184   16.8938 C   0  0  2  0  0  0  0  0  0  0  0  0
   24.0947   -0.1669   16.1319 O   0  0  0  0  0  0  0  0  0  0  0  0
   22.0079    1.1815   15.9458 C   0  0  2  0  0  0  0  0  0  0  0  0
   20.9806    1.8916   16.7603 O   0  0  0  0  0  0  0  0  0  0  0  0
   21.2804    0.1617   15.0761 C   0  0  0  0  0  0  0  0  0  0  0  0
   22.0819   -1.0887   14.8868 N   0  0  0  0  0  0  0  0  0  0  0  0
   18.6260    5.6290   14.7917 C   0  0  2  0  0  0  0  0  0  0  0  0
   17.7792    6.5220   14.0098 N   0  0  0  0  0  0  0  0  0  0  0  0
   19.1178    6.3562   16.1127 C   0  0  0  0  0  0  0  0  0  0  0  0
   20.0297    5.3898   16.9664 C   0  0  2  0  0  0  0  0  0  0  0  0
   20.4749    6.0796   18.2073 N   0  0  0  0  0  0  0  0  0  0  0  0
   21.2619    4.9207   16.0949 C   0  0  2  0  0  0  0  0  0  0  0  0
   20.7332    4.2062   14.7885 C   0  0  2  0  0  0  0  0  0  0  0  0
   21.8505    3.7880   13.9980 O   0  0  0  0  0  0  0  0  0  0  0  0
   19.8389    5.1924   13.9443 C   0  0  1  0  0  0  0  0  0  0  0  0
   19.3432    4.5279   12.7480 O   0  0  0  0  0  0  0  0  0  0  0  0
   19.8271    4.7727   11.4502 C   0  0  2  0  0  0  0  0  0  0  0  0
   19.8227    6.3237   11.2324 C   0  0  2  0  0  0  0  0  0  0  0  0
   20.6422    6.9286   12.1804 O   0  0  0  0  0  0  0  0  0  0  0  0
   18.3593    6.9038   11.3002 C   0  0  1  0  0  0  0  0  0  0  0  0
   18.3441    8.3888   11.0881 N   0  0  0  0  0  0  0  0  0  0  0  0
   17.4843    6.1725   10.2062 C   0  0  2  0  0  0  0  0  0  0  0  0
   16.1424    6.6639   10.2146 O   0  0  0  0  0  0  0  0  0  0  0  0
   17.5283    4.6312   10.4803 C   0  0  2  0  0  0  0  0  0  0  0  0
   18.9425    4.1218   10.4673 O   0  0  0  0  0  0  0  0  0  0  0  0
   16.7416    3.8619    9.4590 C   0  0  0  0  0  0  0  0  0  0  0  0
   15.3598    4.2561    9.4595 O   0  0  0  0  0  0  0  0  0  0  0  0
   23.1799    3.4119   19.4023 O   0  0  0  0  0  0  0  0  0  0  0  0
   24.6866    1.1069   18.5933 O   0  0  0  0  0  0  0  0  0  0  0  0
   12.2170    6.8370   12.5051 N   0  0  0  0  0  0  0  0  0  0  0  0
   16.5036    6.9343   14.3687 C   0  0  0  0  0  0  0  0  0  0  0  0
   15.9348    6.5816   15.3961 O   0  0  0  0  0  0  0  0  0  0  0  0
   15.8705    7.8761   13.3186 C   0  0  1  0  0  0  0  0  0  0  0  0
   14.6720    7.1819   12.6404 C   0  0  0  0  0  0  0  0  0  0  0  0
   13.2996    7.4584   13.2651 C   0  0  0  0  0  0  0  0  0  0  0  0
   15.4584    9.0999   13.9680 O   0  0  0  0  0  0  0  0  0  0  0  0
  1  2  1  6  0  0  0
  1  3  1  0  0  0  0
  1  8  1  0  0  0  0
  3  4  1  0  0  0  0
  3 32  1  6  0  0  0
  4  5  1  0  0  0  0
  4 33  1  1  0  0  0
  5  6  1  6  0  0  0
  5  7  1  0  0  0  0
  7  8  1  0  0  0  0
  7  9  1  1  0  0  0
  9 10  1  0  0  0  0
 11 12  1  6  0  0  0
 11 13  1  0  0  0  0
 11 19  1  0  0  0  0
 12 35  1  0  0  0  0
 13 14  1  0  0  0  0
 14 15  1  1  0  0  0
 14 16  1  0  0  0  0
 16  2  1  1  0  0  0
 16 17  1  0  0  0  0
 17 18  1  6  0  0  0
 17 19  1  0  0  0  0
 19 20  1  6  0  0  0
 21 20  1  1  0  0  0
 21 22  1  0  0  0  0
 21 29  1  0  0  0  0
 22 23  1  1  0  0  0
 22 24  1  0  0  0  0
 24 25  1  6  0  0  0
 24 26  1  0  0  0  0
 26 27  1  1  0  0  0
 26 28  1  0  0  0  0
 28 29  1  0  0  0  0
 28 30  1  6  0  0  0
 30 31  1  0  0  0  0
 34 39  1  0  0  0  0
 35 36  2  0  0  0  0
 37 35  1  1  0  0  0
 37 38  1  0  0  0  0
 37 40  1  0  0  0  0
 38 39  1  0  0  0  0
M  END
>  <CHROM.1>
-171.06684682,-23.36942225,-69.67636488,47.46726860,134.65707304,-50.20142967
-60.09400302,112.76944119,93.42279420,176.04733845,19.35246312,4.62303348
14.22757070,0.30112801,-0.77298989,1.16025066

>  <Name>
2g5q_lig

>  <RI>
0

>  <Rbt.Current_Directory>
/home/itssahil/PROJECTS/Mol_Feturizer/New_Systems/rnas/2g5q

>  <Rbt.Executable>
rbdock ($Id: //depot/dev/client3/rdock/2013.1/src/exe/rbdock.cxx#4 $)

>  <Rbt.Library>
libRbt.so (2013.1, Build901 2013/11/27)

>  <Rbt.Parameter_File>
/export/apps/rDock/src/rDock_2013.1_src/data/scripts/dock_solv.prm

>  <Rbt.Receptor>
prm/blind_docking_80.prm

>  <SCORE>
21.9276

>  <SCORE.INTER>
4.58166

>  <SCORE.INTER.CONST>
1

>  <SCORE.INTER.POLAR>
-1.02806

>  <SCORE.INTER.ROT>
10

>  <SCORE.INTER.SOLV>
23.5941

>  <SCORE.INTER.VDW>
-11.6501

>  <SCORE.INTER.norm>
0.114541

>  <SCORE.INTRA>
1.84015

>  <SCORE.INTRA.DIHEDRAL>
-5.67552

>  <SCORE.INTRA.DIHEDRAL.0>
22.5778

>  <SCORE.INTRA.POLAR>
0

>  <SCORE.INTRA.POLAR.0>
0

>  <SCORE.INTRA.REPUL>
0

>  <SCORE.INTRA.REPUL.0>
0

>  <SCORE.INTRA.SOLV>
5.40981

>  <SCORE.INTRA.SOLV.lig_0>
-102.332

>  <SCORE.INTRA.VDW>
1.97301

>  <SCORE.INTRA.VDW.0>
-5.08747

>  <SCORE.INTRA.norm>
0.0460038

>  <SCORE.RESTR>
15.5058

>  <SCORE.RESTR.CAVITY>
15.5058

>  <SCORE.RESTR.norm>
0.387645

>  <SCORE.SYSTEM>
0

>  <SCORE.SYSTEM.CONST>
0

>  <SCORE.SYSTEM.DIHEDRAL>
0

>  <SCORE.SYSTEM.SOLV>
0

>  <SCORE.SYSTEM.norm>
0

>  <SCORE.heavy>
40

>  <SCORE.norm>
0.54819

>  <RMSD>
24.052

$$$$
2g5q_lig
 OpenBabel11021811433D
libRbt.so/2013.1/901 2013/11/27
 40 42  0  0  0  0  0  0  0  0999 V2000
   21.8700    3.3570   17.6867 C   0  0  2  0  0  0  0  0  0  0  0  0
   22.2928    4.3206   16.7475 O   0  0  0  0  0  0  0  0  0  0  0  0
   23.0757    2.9807   18.5974 C   0  0  1  0  0  0  0  0  0  0  0  0
   24.1939    2.2362   17.8042 C   0  0  2  0  0  0  0  0  0  0  0  0
   23.5719    0.9492   17.2028 C   0  0  2  0  0  0  0  0  0  0  0  0
   24.5791    0.2214   16.4816 O   0  0  0  0  0  0  0  0  0  0  0  0
   22.3814    1.3721   16.2498 C   0  0  2  0  0  0  0  0  0  0  0  0
   21.3557    2.1315   17.0205 O   0  0  0  0  0  0  0  0  0  0  0  0
   21.6838    0.1761   15.6107 C   0  0  0  0  0  0  0  0  0  0  0  0
   22.6502   -0.7330   14.9168 N   0  0  0  0  0  0  0  0  0  0  0  0
   18.5837    5.5599   14.8022 C   0  0  2  0  0  0  0  0  0  0  0  0
   17.6097    6.3596   14.0690 N   0  0  0  0  0  0  0  0  0  0  0  0
   19.0504    6.3269   16.1098 C   0  0  0  0  0  0  0  0  0  0  0  0
   20.1004    5.4608   16.9110 C   0  0  2  0  0  0  0  0  0  0  0  0
   20.5214    6.1861   18.1401 N   0  0  0  0  0  0  0  0  0  0  0  0
   21.3370    5.1381   15.9811 C   0  0  2  0  0  0  0  0  0  0  0  0
   20.8329    4.3795   14.6899 C   0  0  2  0  0  0  0  0  0  0  0  0
   21.9533    4.0940   13.8465 O   0  0  0  0  0  0  0  0  0  0  0  0
   19.7986    5.2670   13.8977 C   0  0  1  0  0  0  0  0  0  0  0  0
   19.3267    4.5611   12.7156 O   0  0  0  0  0  0  0  0  0  0  0  0
   19.7822    4.8148   11.4093 C   0  0  2  0  0  0  0  0  0  0  0  0
   19.7491    6.3658   11.1937 C   0  0  2  0  0  0  0  0  0  0  0  0
   20.5767    6.9827   12.1270 O   0  0  0  0  0  0  0  0  0  0  0  0
   18.2783    6.9226   11.2898 C   0  0  1  0  0  0  0  0  0  0  0  0
   18.2356    8.4074   11.0799 N   0  0  0  0  0  0  0  0  0  0  0  0
   17.3945    6.1787   10.2114 C   0  0  2  0  0  0  0  0  0  0  0  0
   16.0454    6.6487   10.2457 O   0  0  0  0  0  0  0  0  0  0  0  0
   17.4680    4.6380   10.4825 C   0  0  2  0  0  0  0  0  0  0  0  0
   18.8897    4.1511   10.4424 O   0  0  0  0  0  0  0  0  0  0  0  0
   16.6746    3.8574    9.4752 C   0  0  0  0  0  0  0  0  0  0  0  0
   15.3115    4.3091    9.4213 O   0  0  0  0  0  0  0  0  0  0  0  0
   23.5930    4.2113   19.2107 O   0  0  0  0  0  0  0  0  0  0  0  0
   25.2262    1.9167   18.6584 O   0  0  0  0  0  0  0  0  0  0  0  0
   13.0762    6.3633   11.0578 N   0  0  0  0  0  0  0  0  0  0  0  0
   16.4836    6.9542   14.6209 C   0  0  0  0  0  0  0  0  0  0  0  0
   16.1738    6.8652   15.8038 O   0  0  0  0  0  0  0  0  0  0  0  0
   15.6516    7.7287   13.5728 C   0  0  1  0  0  0  0  0  0  0  0  0
   14.5326    6.8263   13.0146 C   0  0  0  0  0  0  0  0  0  0  0  0
   13.7270    7.4073   11.8468 C   0  0  0  0  0  0  0  0  0  0  0  0
   15.0998    8.9141   14.1889 O   0  0  0  0  0  0  0  0  0  0  0  0
  1  2  1  6  0  0  0
  1  3  1  0  0  0  0
  1  8  1  0  0  0  0
  3  4  1  0  0  0  0
  3 32  1  6  0  0  0
  4  5  1  0  0  0  0
  4 33  1  1  0  0  0
  5  6  1  6  0  0  0
  5  7  1  0  0  0  0
  7  8  1  0  0  0  0
  7  9  1  1  0  0  0
  9 10  1  0  0  0  0
 11 12  1  6  0  0  0
 11 13  1  0  0  0  0
 11 19  1  0  0  0  0
 12 35  1  0  0  0  0
 13 14  1  0  0  0  0
 14 15  1  1  0  0  0
 14 16  1  0  0  0  0
 16  2  1  1  0  0  0
 16 17  1  0  0  0  0
 17 18  1  6  0  0  0
 17 19  1  0  0  0  0
 19 20  1  6  0  0  0
 21 20  1  1  0  0  0
 21 22  1  0  0  0  0
 21 29  1  0  0  0  0
 22 23  1  1  0  0  0
 22 24  1  0  0  0  0
 24 25  1  6  0  0  0
 24 26  1  0  0  0  0
 26 27  1  1  0  0  0
 26 28  1  0  0  0  0
 28 29  1  0  0  0  0
 28 30  1  6  0  0  0
 30 31  1  0  0  0  0
 34 39  1  0  0  0  0
 35 36  2  0  0  0  0
 37 35  1  1  0  0  0
 37 38  1  0  0  0  0
 37 40  1  0  0  0  0
 38 39  1  0  0  0  0
M  END
>  <CHROM.1>
-163.67681354,-53.04184926,-49.68408781,35.57433623,138.61425993,-47.81134926
-55.13093674,94.18496895,-173.17898066,157.91360481,19.48238941,4.75831439
14.21867912,0.30526738,-0.73687245,1.08616355

>  <Name>
2g5q_lig

>  <RI>
0

>  <Rbt.Current_Directory>
/home/itssahil/PROJECTS/Mol_Feturizer/New_Systems/rnas/2g5q

>  <Rbt.Executable>
rbdock ($Id: //depot/dev/client3/rdock/2013.1/src/exe/rbdock.cxx#4 $)

>  <Rbt.Library>
libRbt.so (2013.1, Build901 2013/11/27)

>  <Rbt.Parameter_File>
/export/apps/rDock/src/rDock_2013.1_src/data/scripts/dock_solv.prm

>  <Rbt.Receptor>
prm/blind_docking_80.prm

>  <SCORE>
19.5244

>  <SCORE.INTER>
3.98422

>  <SCORE.INTER.CONST>
1

>  <SCORE.INTER.POLAR>
-1.03923

>  <SCORE.INTER.ROT>
10

>  <SCORE.INTER.SOLV>
21.5197

>  <SCORE.INTER.VDW>
-11.3196

>  <SCORE.INTER.norm>
0.0996055

>  <SCORE.INTRA>
0.486734

>  <SCORE.INTRA.DIHEDRAL>
-8.44608

>  <SCORE.INTRA.DIHEDRAL.0>
22.5778

>  <SCORE.INTRA.POLAR>
0

>  <SCORE.INTRA.POLAR.0>
0

>  <SCORE.INTRA.REPUL>
0

>  <SCORE.INTRA.REPUL.0>
0

>  <SCORE.INTRA.SOLV>
6.25653

>  <SCORE.INTRA.SOLV.lig_0>
-102.332

>  <SCORE.INTRA.VDW>
1.58151

>  <SCORE.INTRA.VDW.0>
-5.08747

>  <SCORE.INTRA.norm>
0.0121683

>  <SCORE.RESTR>
15.0535

>  <SCORE.RESTR.CAVITY>
15.0535

>  <SCORE.RESTR.norm>
0.376336

>  <SCORE.SYSTEM>
0

>  <SCORE.SYSTEM.CONST>
0

>  <SCORE.SYSTEM.DIHEDRAL>
0

>  <SCORE.SYSTEM.SOLV>
0

>  <SCORE.SYSTEM.norm>
0

>  <SCORE.heavy>
40

>  <SCORE.norm>
0.48811

>  <RMSD>
24.197

$$$$
2g5q_lig
 OpenBabel11021811433D
libRbt.so/2013.1/901 2013/11/27
 40 42  0  0  0  0  0  0  0  0999 V2000
   20.4757    2.1962   17.9001 C   0  0  2  0  0  0  0  0  0  0  0  0
   20.4444    3.5473   17.4961 O   0  0  0  0  0  0  0  0  0  0  0  0
   21.2636    2.0908   19.2391 C   0  0  1  0  0  0  0  0  0  0  0  0
   22.7726    2.4412   19.0554 C   0  0  2  0  0  0  0  0  0  0  0  0
   23.3667    1.4509   18.0203 C   0  0  2  0  0  0  0  0  0  0  0  0
   24.7652    1.7270   17.8402 O   0  0  0  0  0  0  0  0  0  0  0  0
   22.5728    1.6177   16.6617 C   0  0  2  0  0  0  0  0  0  0  0  0
   21.1253    1.3337   16.8782 O   0  0  0  0  0  0  0  0  0  0  0  0
   23.0677    0.6756   15.5695 C   0  0  0  0  0  0  0  0  0  0  0  0
   24.5092    0.9079   15.2379 N   0  0  0  0  0  0  0  0  0  0  0  0
   19.7994    4.0545   13.2061 C   0  0  2  0  0  0  0  0  0  0  0  0
   19.1930    4.4389   11.9371 N   0  0  0  0  0  0  0  0  0  0  0  0
   18.8219    3.1030   14.0154 C   0  0  0  0  0  0  0  0  0  0  0  0
   19.4780    2.6784   15.3878 C   0  0  2  0  0  0  0  0  0  0  0  0
   18.5564    1.7777   16.1317 N   0  0  0  0  0  0  0  0  0  0  0  0
   19.8236    3.9708   16.2294 C   0  0  2  0  0  0  0  0  0  0  0  0
   20.7936    4.8939   15.3906 C   0  0  2  0  0  0  0  0  0  0  0  0
   21.0999    6.0663   16.1519 O   0  0  0  0  0  0  0  0  0  0  0  0
   20.1137    5.3184   14.0332 C   0  0  1  0  0  0  0  0  0  0  0  0
   21.0139    6.1583   13.2571 O   0  0  0  0  0  0  0  0  0  0  0  0
   22.4153    6.0389   13.2715 C   0  0  2  0  0  0  0  0  0  0  0  0
   22.9611    6.7606   11.9931 C   0  0  2  0  0  0  0  0  0  0  0  0
   22.5856    8.1003   12.0195 O   0  0  0  0  0  0  0  0  0  0  0  0
   22.4479    6.0574   10.6798 C   0  0  1  0  0  0  0  0  0  0  0  0
   22.9693    6.7389    9.4493 N   0  0  0  0  0  0  0  0  0  0  0  0
   22.9019    4.5442   10.7172 C   0  0  2  0  0  0  0  0  0  0  0  0
   22.4699    3.8532    9.5433 O   0  0  0  0  0  0  0  0  0  0  0  0
   22.3243    3.8816   12.0133 C   0  0  2  0  0  0  0  0  0  0  0  0
   22.7852    4.6126   13.2434 O   0  0  0  0  0  0  0  0  0  0  0  0
   22.7404    2.4445   12.1363 C   0  0  0  0  0  0  0  0  0  0  0  0
   21.9979    1.6074   11.2348 O   0  0  0  0  0  0  0  0  0  0  0  0
   20.6297    2.9825   20.2195 O   0  0  0  0  0  0  0  0  0  0  0  0
   23.4217    2.3190   20.2642 O   0  0  0  0  0  0  0  0  0  0  0  0
   14.7924    5.5011    9.4141 N   0  0  0  0  0  0  0  0  0  0  0  0
   18.3124    5.4966   11.7582 C   0  0  0  0  0  0  0  0  0  0  0  0
   17.9347    6.2324   12.6633 O   0  0  0  0  0  0  0  0  0  0  0  0
   17.8456    5.6341   10.2906 C   0  0  1  0  0  0  0  0  0  0  0  0
   16.9762    4.4228    9.8969 C   0  0  0  0  0  0  0  0  0  0  0  0
   15.8800    4.6968    8.8607 C   0  0  0  0  0  0  0  0  0  0  0  0
   17.1086    6.8686   10.1421 O   0  0  0  0  0  0  0  0  0  0  0  0
  1  2  1  6  0  0  0
  1  3  1  0  0  0  0
  1  8  1  0  0  0  0
  3  4  1  0  0  0  0
  3 32  1  1  0  0  0
  4  5  1  0  0  0  0
  4 33  1  1  0  0  0
  5  6  1  6  0  0  0
  5  7  1  0  0  0  0
  7  8  1  0  0  0  0
  7  9  1  6  0  0  0
  9 10  1  0  0  0  0
 11 12  1  6  0  0  0
 11 13  1  0  0  0  0
 11 19  1  0  0  0  0
 12 35  1  0  0  0  0
 13 14  1  0  0  0  0
 14 15  1  1  0  0  0
 14 16  1  0  0  0  0
 16  2  1  1  0  0  0
 16 17  1  0  0  0  0
 17 18  1  1  0  0  0
 17 19  1  0  0  0  0
 19 20  1  6  0  0  0
 21 20  1  6  0  0  0
 21 22  1  0  0  0  0
 21 29  1  0  0  0  0
 22 23  1  6  0  0  0
 22 24  1  0  0  0  0
 24 25  1  6  0  0  0
 24 26  1  0  0  0  0
 26 27  1  6  0  0  0
 26 28  1  0  0  0  0
 28 29  1  0  0  0  0
 28 30  1  1  0  0  0
 30 31  1  0  0  0  0
 34 39  1  0  0  0  0
 35 36  2  0  0  0  0
 37 35  1  1  0  0  0
 37 38  1  0  0  0  0
 37 40  1  0  0  0  0
 38 39  1  0  0  0  0
M  END
>  <CHROM.1>
177.11923853,-60.43536099,84.93296794,-9.49191254,-87.31039283,161.47353921
-75.49941334,67.03817600,148.88262440,-70.95346460,20.88110254,3.98849926
14.00783425,1.19011105,-0.07526007,1.96293040

>  <Name>
2g5q_lig

>  <RI>
0

>  <Rbt.Current_Directory>
/home/itssahil/PROJECTS/Mol_Feturizer/New_Systems/rnas/2g5q

>  <Rbt.Executable>
rbdock ($Id: //depot/dev/client3/rdock/2013.1/src/exe/rbdock.cxx#4 $)

>  <Rbt.Library>
libRbt.so (2013.1, Build901 2013/11/27)

>  <Rbt.Parameter_File>
/export/apps/rDock/src/rDock_2013.1_src/data/scripts/dock_solv.prm

>  <Rbt.Receptor>
prm/blind_docking_80.prm

>  <SCORE>
23.4232

>  <SCORE.INTER>
-0.971444

>  <SCORE.INTER.CONST>
1

>  <SCORE.INTER.POLAR>
-0.949767

>  <SCORE.INTER.ROT>
10

>  <SCORE.INTER.SOLV>
20.1354

>  <SCORE.INTER.VDW>
-14.4602

>  <SCORE.INTER.norm>
-0.0242861

>  <SCORE.INTRA>
5.32084

>  <SCORE.INTRA.DIHEDRAL>
-5.83483

>  <SCORE.INTRA.DIHEDRAL.0>
22.5778

>  <SCORE.INTRA.POLAR>
0

>  <SCORE.INTRA.POLAR.0>
0

>  <SCORE.INTRA.REPUL>
0

>  <SCORE.INTRA.REPUL.0>
0

>  <SCORE.INTRA.SOLV>
6.17948

>  <SCORE.INTRA.SOLV.lig_0>
-102.332

>  <SCORE.INTRA.VDW>
5.14852

>  <SCORE.INTRA.VDW.0>
-5.08747

>  <SCORE.INTRA.norm>
0.133021

>  <SCORE.RESTR>
19.0738

>  <SCORE.RESTR.CAVITY>
19.0738

>  <SCORE.RESTR.norm>
0.476845

>  <SCORE.SYSTEM>
0

>  <SCORE.SYSTEM.CONST>
0

>  <SCORE.SYSTEM.DIHEDRAL>
0

>  <SCORE.SYSTEM.SOLV>
0

>  <SCORE.SYSTEM.norm>
0

>  <SCORE.heavy>
40

>  <SCORE.norm>
0.58558

>  <RMSD>
24.867

$$$$
2g5q_lig
 OpenBabel11021811433D
libRbt.so/2013.1/901 2013/11/27
 40 42  0  0  0  0  0  0  0  0999 V2000
   21.2799    2.5196   18.6572 C   0  0  2  0  0  0  0  0  0  0  0  0
   21.5832    3.8944   18.5700 O   0  0  0  0  0  0  0  0  0  0  0  0
   22.3846    1.8140   19.4977 C   0  0  1  0  0  0  0  0  0  0  0  0
   23.7654    1.8272   18.7718 C   0  0  2  0  0  0  0  0  0  0  0  0
   23.5947    1.0963   17.4148 C   0  0  2  0  0  0  0  0  0  0  0  0
   24.8542    1.0670   16.7239 O   0  0  0  0  0  0  0  0  0  0  0  0
   22.4993    1.8659   16.5711 C   0  0  2  0  0  0  0  0  0  0  0  0
   21.2063    1.8886   17.3131 O   0  0  0  0  0  0  0  0  0  0  0  0
   22.2391    1.2211   15.2138 C   0  0  0  0  0  0  0  0  0  0  0  0
   21.6582   -0.1524   15.3466 N   0  0  0  0  0  0  0  0  0  0  0  0
   19.3385    5.2099   15.0618 C   0  0  2  0  0  0  0  0  0  0  0  0
   18.6380    6.0665   14.1124 N   0  0  0  0  0  0  0  0  0  0  0  0
   18.6381    5.2788   16.4833 C   0  0  0  0  0  0  0  0  0  0  0  0
   19.3896    4.3465   17.5131 C   0  0  2  0  0  0  0  0  0  0  0  0
   18.7165    4.4115   18.8386 N   0  0  0  0  0  0  0  0  0  0  0  0
   20.9043    4.7862   17.6146 C   0  0  2  0  0  0  0  0  0  0  0  0
   21.5656    4.7089   16.1816 C   0  0  2  0  0  0  0  0  0  0  0  0
   22.9351    5.1135   16.2748 O   0  0  0  0  0  0  0  0  0  0  0  0
   20.8106    5.6576   15.1742 C   0  0  1  0  0  0  0  0  0  0  0  0
   21.4139    5.5752   13.8523 O   0  0  0  0  0  0  0  0  0  0  0  0
   22.7235    5.1241   13.6082 C   0  0  2  0  0  0  0  0  0  0  0  0
   23.3260    6.0225   12.4754 C   0  0  2  0  0  0  0  0  0  0  0  0
   23.3373    7.3503   12.8917 O   0  0  0  0  0  0  0  0  0  0  0  0
   22.5201    5.8602   11.1312 C   0  0  1  0  0  0  0  0  0  0  0  0
   23.0925    6.7137   10.0383 N   0  0  0  0  0  0  0  0  0  0  0  0
   22.5420    4.3344   10.7204 C   0  0  2  0  0  0  0  0  0  0  0  0
   21.8301    4.1249    9.4992 O   0  0  0  0  0  0  0  0  0  0  0  0
   21.9271    3.4937   11.8898 C   0  0  2  0  0  0  0  0  0  0  0  0
   22.6829    3.7176   13.1698 O   0  0  0  0  0  0  0  0  0  0  0  0
   21.9417    2.0237   11.5856 C   0  0  0  0  0  0  0  0  0  0  0  0
   21.1524    1.7236   10.4229 O   0  0  0  0  0  0  0  0  0  0  0  0
   22.4679    2.4811   20.8039 O   0  0  0  0  0  0  0  0  0  0  0  0
   24.6989    1.1806   19.5514 O   0  0  0  0  0  0  0  0  0  0  0  0
   16.2436    4.9452    8.9898 N   0  0  0  0  0  0  0  0  0  0  0  0
   18.4376    5.7778   12.7698 C   0  0  0  0  0  0  0  0  0  0  0  0
   18.8404    4.7573   12.2224 O   0  0  0  0  0  0  0  0  0  0  0  0
   17.6633    6.8962   12.0348 C   0  0  1  0  0  0  0  0  0  0  0  0
   16.6567    6.2783   11.0433 C   0  0  0  0  0  0  0  0  0  0  0  0
   17.2629    5.4348    9.9157 C   0  0  0  0  0  0  0  0  0  0  0  0
   16.9872    7.7225   13.0092 O   0  0  0  0  0  0  0  0  0  0  0  0
  1  2  1  6  0  0  0
  1  3  1  0  0  0  0
  1  8  1  0  0  0  0
  3  4  1  0  0  0  0
  3 32  1  1  0  0  0
  4  5  1  0  0  0  0
  4 33  1  1  0  0  0
  5  6  1  6  0  0  0
  5  7  1  0  0  0  0
  7  8  1  0  0  0  0
  7  9  1  6  0  0  0
  9 10  1  0  0  0  0
 11 12  1  6  0  0  0
 11 13  1  0  0  0  0
 11 19  1  0  0  0  0
 12 35  1  0  0  0  0
 13 14  1  0  0  0  0
 14 15  1  1  0  0  0
 14 16  1  0  0  0  0
 16  2  1  1  0  0  0
 16 17  1  0  0  0  0
 17 18  1  1  0  0  0
 17 19  1  0  0  0  0
 19 20  1  6  0  0  0
 21 20  1  6  0  0  0
 21 22  1  0  0  0  0
 21 29  1  0  0  0  0
 22 23  1  1  0  0  0
 22 24  1  0  0  0  0
 24 25  1  6  0  0  0
 24 26  1  0  0  0  0
 26 27  1  6  0  0  0
 26 28  1  0  0  0  0
 28 29  1  0  0  0  0
 28 30  1  6  0  0  0
 30 31  1  0  0  0  0
 34 39  1  0  0  0  0
 35 36  2  0  0  0  0
 37 35  1  1  0  0  0
 37 38  1  0  0  0  0
 37 40  1  0  0  0  0
 38 39  1  0  0  0  0
M  END
>  <CHROM.1>
166.63860824,64.34532787,-143.08007721,37.19617376,-140.57619546,-141.24305761
-61.65528998,-140.37601244,-62.11793283,-177.20331531,21.12181733,4.08859294
14.57763894,1.11692119,-0.54287584,1.75450203

>  <Name>
2g5q_lig

>  <RI>
0

>  <Rbt.Current_Directory>
/home/itssahil/PROJECTS/Mol_Feturizer/New_Systems/rnas/2g5q

>  <Rbt.Executable>
rbdock ($Id: //depot/dev/client3/rdock/2013.1/src/exe/rbdock.cxx#4 $)

>  <Rbt.Library>
libRbt.so (2013.1, Build901 2013/11/27)

>  <Rbt.Parameter_File>
/export/apps/rDock/src/rDock_2013.1_src/data/scripts/dock_solv.prm

>  <Rbt.Receptor>
prm/blind_docking_80.prm

>  <SCORE>
26.7071

>  <SCORE.INTER>
10.9359

>  <SCORE.INTER.CONST>
1

>  <SCORE.INTER.POLAR>
-1.38085

>  <SCORE.INTER.ROT>
10

>  <SCORE.INTER.SOLV>
26.1868

>  <SCORE.INTER.VDW>
-7.10214

>  <SCORE.INTER.norm>
0.273398

>  <SCORE.INTRA>
-0.164488

>  <SCORE.INTRA.DIHEDRAL>
-5.96963

>  <SCORE.INTRA.DIHEDRAL.0>
22.5778

>  <SCORE.INTRA.POLAR>
0

>  <SCORE.INTRA.POLAR.0>
0

>  <SCORE.INTRA.REPUL>
0

>  <SCORE.INTRA.REPUL.0>
0

>  <SCORE.INTRA.SOLV>
2.49683

>  <SCORE.INTRA.SOLV.lig_0>
-102.332

>  <SCORE.INTRA.VDW>
1.57191

>  <SCORE.INTRA.VDW.0>
-5.08747

>  <SCORE.INTRA.norm>
-0.00411221

>  <SCORE.RESTR>
15.9357

>  <SCORE.RESTR.CAVITY>
15.9357

>  <SCORE.RESTR.norm>
0.398392

>  <SCORE.SYSTEM>
0

>  <SCORE.SYSTEM.CONST>
0

>  <SCORE.SYSTEM.DIHEDRAL>
0

>  <SCORE.SYSTEM.SOLV>
0

>  <SCORE.SYSTEM.norm>
0

>  <SCORE.heavy>
40

>  <SCORE.norm>
0.667678

>  <RMSD>
25.027

$$$$
2g5q_lig
 OpenBabel11021811433D
libRbt.so/2013.1/901 2013/11/27
 40 42  0  0  0  0  0  0  0  0999 V2000
   22.7377    1.6919   19.0043 C   0  0  2  0  0  0  0  0  0  0  0  0
   22.7091    1.4515   17.6147 O   0  0  0  0  0  0  0  0  0  0  0  0
   21.3156    2.1241   19.4684 C   0  0  1  0  0  0  0  0  0  0  0  0
   20.9063    3.5085   18.8773 C   0  0  2  0  0  0  0  0  0  0  0  0
   21.9502    4.5533   19.3503 C   0  0  2  0  0  0  0  0  0  0  0  0
   21.5944    5.8501   18.8441 O   0  0  0  0  0  0  0  0  0  0  0  0
   23.3736    4.1062   18.8232 C   0  0  2  0  0  0  0  0  0  0  0  0
   23.7143    2.7561   19.3561 O   0  0  0  0  0  0  0  0  0  0  0  0
   24.4857    5.0608   19.2448 C   0  0  0  0  0  0  0  0  0  0  0  0
   25.8207    4.6364   18.7163 N   0  0  0  0  0  0  0  0  0  0  0  0
   20.3591    2.3194   14.0368 C   0  0  2  0  0  0  0  0  0  0  0  0
   19.2561    2.7271   13.1748 N   0  0  0  0  0  0  0  0  0  0  0  0
   19.9119    1.1153   14.9674 C   0  0  0  0  0  0  0  0  0  0  0  0
   21.1063    0.6657   15.8980 C   0  0  2  0  0  0  0  0  0  0  0  0
   20.6776   -0.4708   16.7574 N   0  0  0  0  0  0  0  0  0  0  0  0
   21.5890    1.8944   16.7672 C   0  0  2  0  0  0  0  0  0  0  0  0
   22.0212    3.0728   15.8073 C   0  0  2  0  0  0  0  0  0  0  0  0
   22.4518    4.1863   16.5964 O   0  0  0  0  0  0  0  0  0  0  0  0
   20.8113    3.5160   14.8992 C   0  0  1  0  0  0  0  0  0  0  0  0
   21.2155    4.5930   14.0076 O   0  0  0  0  0  0  0  0  0  0  0  0
   22.5171    5.1224   13.9473 C   0  0  2  0  0  0  0  0  0  0  0  0
   22.3860    6.6655   13.7132 C   0  0  2  0  0  0  0  0  0  0  0  0
   21.6756    7.2366   14.7647 O   0  0  0  0  0  0  0  0  0  0  0  0
   21.6937    6.9747   12.3319 C   0  0  1  0  0  0  0  0  0  0  0  0
   21.5676    8.4508   12.0963 N   0  0  0  0  0  0  0  0  0  0  0  0
   22.5450    6.2952   11.1870 C   0  0  2  0  0  0  0  0  0  0  0  0
   21.9681    6.5481    9.9043 O   0  0  0  0  0  0  0  0  0  0  0  0
   22.6365    4.7591   11.4777 C   0  0  2  0  0  0  0  0  0  0  0  0
   23.2466    4.5015   12.8273 O   0  0  0  0  0  0  0  0  0  0  0  0
   23.4601    4.0456   10.4451 C   0  0  0  0  0  0  0  0  0  0  0  0
   22.6681    3.6913    9.2997 O   0  0  0  0  0  0  0  0  0  0  0  0
   20.3628    1.0782   19.0727 O   0  0  0  0  0  0  0  0  0  0  0  0
   19.6499    3.8464   19.3296 O   0  0  0  0  0  0  0  0  0  0  0  0
   15.9503    5.1619    9.8259 N   0  0  0  0  0  0  0  0  0  0  0  0
   19.3759    3.1008   11.8436 C   0  0  0  0  0  0  0  0  0  0  0  0
   20.4408    3.1374   11.2369 O   0  0  0  0  0  0  0  0  0  0  0  0
   18.0169    3.4834   11.2134 C   0  0  1  0  0  0  0  0  0  0  0  0
   17.6123    4.9052   11.6526 C   0  0  0  0  0  0  0  0  0  0  0  0
   16.2007    5.3507   11.2533 C   0  0  0  0  0  0  0  0  0  0  0  0
   18.1217    3.3978    9.7743 O   0  0  0  0  0  0  0  0  0  0  0  0
  1  2  1  6  0  0  0
  1  3  1  0  0  0  0
  1  8  1  0  0  0  0
  3  4  1  0  0  0  0
  3 32  1  6  0  0  0
  4  5  1  0  0  0  0
  4 33  1  1  0  0  0
  5  6  1  6  0  0  0
  5  7  1  0  0  0  0
  7  8  1  0  0  0  0
  7  9  1  1  0  0  0
  9 10  1  0  0  0  0
 11 12  1  1  0  0  0
 11 13  1  0  0  0  0
 11 19  1  0  0  0  0
 12 35  1  0  0  0  0
 13 14  1  0  0  0  0
 14 15  1  1  0  0  0
 14 16  1  0  0  0  0
 16  2  1  6  0  0  0
 16 17  1  0  0  0  0
 17 18  1  1  0  0  0
 17 19  1  0  0  0  0
 19 20  1  6  0  0  0
 21 20  1  6  0  0  0
 21 22  1  0  0  0  0
 21 29  1  0  0  0  0
 22 23  1  1  0  0  0
 22 24  1  0  0  0  0
 24 25  1  6  0  0  0
 24 26  1  0  0  0  0
 26 27  1  6  0  0  0
 26 28  1  0  0  0  0
 28 29  1  0  0  0  0
 28 30  1  6  0  0  0
 30 31  1  0  0  0  0
 34 39  1  0  0  0  0
 35 36  2  0  0  0  0
 37 35  1  1  0  0  0
 37 38  1  0  0  0  0
 37 40  1  0  0  0  0
 38 39  1  0  0  0  0
M  END
>  <CHROM.1>
14.13491671,-178.93443262,-140.57621857,-129.65113895,-117.55254782,-142.84126367
-85.16909202,78.14846074,-172.32429087,-51.87732605,21.26110278,3.93859343
14.72971135,1.19403266,0.66135172,2.04164228

>  <Name>
2g5q_lig

>  <RI>
0

>  <Rbt.Current_Directory>
/home/itssahil/PROJECTS/Mol_Feturizer/New_Systems/rnas/2g5q

>  <Rbt.Executable>
rbdock ($Id: //depot/dev/client3/rdock/2013.1/src/exe/rbdock.cxx#4 $)

>  <Rbt.Library>
libRbt.so (2013.1, Build901 2013/11/27)

>  <Rbt.Parameter_File>
/export/apps/rDock/src/rDock_2013.1_src/data/scripts/dock_solv.prm

>  <Rbt.Receptor>
prm/blind_docking_80.prm

>  <SCORE>
51.084

>  <SCORE.INTER>
22.8936

>  <SCORE.INTER.CONST>
1

>  <SCORE.INTER.POLAR>
-0.954559

>  <SCORE.INTER.ROT>
10

>  <SCORE.INTER.SOLV>
28.1817

>  <SCORE.INTER.VDW>
-1.21626

>  <SCORE.INTER.norm>
0.572341

>  <SCORE.INTRA>
13.3786

>  <SCORE.INTRA.DIHEDRAL>
6.98279

>  <SCORE.INTRA.DIHEDRAL.0>
22.5778

>  <SCORE.INTRA.POLAR>
0

>  <SCORE.INTRA.POLAR.0>
0

>  <SCORE.INTRA.REPUL>
0.00622842

>  <SCORE.INTRA.REPUL.0>
0

>  <SCORE.INTRA.SOLV>
5.7114

>  <SCORE.INTRA.SOLV.lig_0>
-102.332

>  <SCORE.INTRA.VDW>
7.00038

>  <SCORE.INTRA.VDW.0>
-5.08747

>  <SCORE.INTRA.norm>
0.334465

>  <SCORE.RESTR>
14.8118

>  <SCORE.RESTR.CAVITY>
14.8118

>  <SCORE.RESTR.norm>
0.370294

>  <SCORE.SYSTEM>
0

>  <SCORE.SYSTEM.CONST>
0

>  <SCORE.SYSTEM.DIHEDRAL>
0

>  <SCORE.SYSTEM.SOLV>
0

>  <SCORE.SYSTEM.norm>
0

>  <SCORE.heavy>
40

>  <SCORE.norm>
1.2771

>  <RMSD>
25.031

$$$$
2g5q_lig
 OpenBabel11021811433D
libRbt.so/2013.1/901 2013/11/27
 40 42  0  0  0  0  0  0  0  0999 V2000
   19.7242    2.0605   18.0316 C   0  0  2  0  0  0  0  0  0  0  0  0
   19.8262    3.4216   17.6759 O   0  0  0  0  0  0  0  0  0  0  0  0
   21.0866    1.5926   18.6228 C   0  0  1  0  0  0  0  0  0  0  0  0
   22.2182    1.5946   17.5490 C   0  0  2  0  0  0  0  0  0  0  0  0
   21.7889    0.6386   16.4059 C   0  0  2  0  0  0  0  0  0  0  0  0
   22.8186    0.5951   15.4048 O   0  0  0  0  0  0  0  0  0  0  0  0
   20.4268    1.1697   15.8003 C   0  0  2  0  0  0  0  0  0  0  0  0
   19.3792    1.2125   16.8603 O   0  0  0  0  0  0  0  0  0  0  0  0
   19.9013    0.2913   14.6699 C   0  0  0  0  0  0  0  0  0  0  0  0
   18.7407   -0.5489   15.1045 N   0  0  0  0  0  0  0  0  0  0  0  0
   21.3798    6.0523   14.5546 C   0  0  2  0  0  0  0  0  0  0  0  0
   22.0172    6.5100   13.3257 N   0  0  0  0  0  0  0  0  0  0  0  0
   22.4079    5.2179   15.4279 C   0  0  0  0  0  0  0  0  0  0  0  0
   21.7235    4.7261   16.7637 C   0  0  2  0  0  0  0  0  0  0  0  0
   22.7009    3.9548   17.5784 N   0  0  0  0  0  0  0  0  0  0  0  0
   20.4511    3.8558   16.4149 C   0  0  2  0  0  0  0  0  0  0  0  0
   19.4545    4.7176   15.5426 C   0  0  2  0  0  0  0  0  0  0  0  0
   18.3063    3.9255   15.2228 O   0  0  0  0  0  0  0  0  0  0  0  0
   20.1521    5.1846   14.2084 C   0  0  1  0  0  0  0  0  0  0  0  0
   19.2360    5.9884   13.4128 O   0  0  0  0  0  0  0  0  0  0  0  0
   19.4583    6.3434   12.0701 C   0  0  2  0  0  0  0  0  0  0  0  0
   18.0573    6.5465   11.4001 C   0  0  2  0  0  0  0  0  0  0  0  0
   17.3666    7.5561   12.0635 O   0  0  0  0  0  0  0  0  0  0  0  0
   17.2289    5.2061   11.3957 C   0  0  1  0  0  0  0  0  0  0  0  0
   15.8866    5.3893   10.7516 N   0  0  0  0  0  0  0  0  0  0  0  0
   18.0699    4.1054   10.6351 C   0  0  2  0  0  0  0  0  0  0  0  0
   17.3638    2.8638   10.5919 O   0  0  0  0  0  0  0  0  0  0  0  0
   19.4531    3.9495   11.3528 C   0  0  2  0  0  0  0  0  0  0  0  0
   20.1905    5.2589   11.3919 O   0  0  0  0  0  0  0  0  0  0  0  0
   20.3252    2.9386   10.6664 C   0  0  0  0  0  0  0  0  0  0  0  0
   21.1473    3.5551    9.6620 O   0  0  0  0  0  0  0  0  0  0  0  0
   21.4267    2.4705   19.7505 O   0  0  0  0  0  0  0  0  0  0  0  0
   23.3937    1.1611   18.1214 O   0  0  0  0  0  0  0  0  0  0  0  0
   23.5424    3.9384   10.1273 N   0  0  0  0  0  0  0  0  0  0  0  0
   23.0101    5.8280   12.6365 C   0  0  0  0  0  0  0  0  0  0  0  0
   23.4744    4.7511   12.9943 O   0  0  0  0  0  0  0  0  0  0  0  0
   23.4795    6.5866   11.3737 C   0  0  1  0  0  0  0  0  0  0  0  0
   24.7861    5.9658   10.8394 C   0  0  0  0  0  0  0  0  0  0  0  0
   24.7908    4.4392   10.6986 C   0  0  0  0  0  0  0  0  0  0  0  0
   22.4364    6.5334   10.3746 O   0  0  0  0  0  0  0  0  0  0  0  0
  1  2  1  6  0  0  0
  1  3  1  0  0  0  0
  1  8  1  0  0  0  0
  3  4  1  0  0  0  0
  3 32  1  1  0  0  0
  4  5  1  0  0  0  0
  4 33  1  1  0  0  0
  5  6  1  6  0  0  0
  5  7  1  0  0  0  0
  7  8  1  0  0  0  0
  7  9  1  6  0  0  0
  9 10  1  0  0  0  0
 11 12  1  6  0  0  0
 11 13  1  0  0  0  0
 11 19  1  0  0  0  0
 12 35  1  0  0  0  0
 13 14  1  0  0  0  0
 14 15  1  6  0  0  0
 14 16  1  0  0  0  0
 16  2  1  1  0  0  0
 16 17  1  0  0  0  0
 17 18  1  6  0  0  0
 17 19  1  0  0  0  0
 19 20  1  6  0  0  0
 21 20  1  1  0  0  0
 21 22  1  0  0  0  0
 21 29  1  0  0  0  0
 22 23  1  1  0  0  0
 22 24  1  0  0  0  0
 24 25  1  6  0  0  0
 24 26  1  0  0  0  0
 26 27  1  1  0  0  0
 26 28  1  0  0  0  0
 28 29  1  0  0  0  0
 28 30  1  6  0  0  0
 30 31  1  0  0  0  0
 34 39  1  0  0  0  0
 35 36  2  0  0  0  0
 37 35  1  1  0  0  0
 37 38  1  0  0  0  0
 37 40  1  0  0  0  0
 38 39  1  0  0  0  0
M  END
>  <CHROM.1>
80.75652341,105.10004316,32.21008167,-117.13002692,73.02569106,152.50544160
90.50881231,166.77390823,48.37337483,42.70745337,20.71032789,3.92305040,13.93351945
1.44136985,0.10616439,2.08958065

>  <Name>
2g5q_lig

>  <RI>
0

>  <Rbt.Current_Directory>
/home/itssahil/PROJECTS/Mol_Feturizer/New_Systems/rnas/2g5q

>  <Rbt.Executable>
rbdock ($Id: //depot/dev/client3/rdock/2013.1/src/exe/rbdock.cxx#4 $)

>  <Rbt.Library>
libRbt.so (2013.1, Build901 2013/11/27)

>  <Rbt.Parameter_File>
/export/apps/rDock/src/rDock_2013.1_src/data/scripts/dock_solv.prm

>  <Rbt.Receptor>
prm/blind_docking_80.prm

>  <SCORE>
41.3683

>  <SCORE.INTER>
7.85684

>  <SCORE.INTER.CONST>
1

>  <SCORE.INTER.POLAR>
-1.29136

>  <SCORE.INTER.ROT>
10

>  <SCORE.INTER.SOLV>
21.7238

>  <SCORE.INTER.VDW>
-7.96551

>  <SCORE.INTER.norm>
0.196421

>  <SCORE.INTRA>
14.6235

>  <SCORE.INTRA.DIHEDRAL>
0.700908

>  <SCORE.INTRA.DIHEDRAL.0>
22.5778

>  <SCORE.INTRA.POLAR>
0

>  <SCORE.INTRA.POLAR.0>
0

>  <SCORE.INTRA.REPUL>
0.0031354

>  <SCORE.INTRA.REPUL.0>
0

>  <SCORE.INTRA.SOLV>
13.704

>  <SCORE.INTRA.SOLV.lig_0>
-102.332

>  <SCORE.INTRA.VDW>
7.40533

>  <SCORE.INTRA.VDW.0>
-5.08747

>  <SCORE.INTRA.norm>
0.365586

>  <SCORE.RESTR>
18.888

>  <SCORE.RESTR.CAVITY>
18.888

>  <SCORE.RESTR.norm>
0.4722

>  <SCORE.SYSTEM>
0

>  <SCORE.SYSTEM.CONST>
0

>  <SCORE.SYSTEM.DIHEDRAL>
0

>  <SCORE.SYSTEM.SOLV>
0

>  <SCORE.SYSTEM.norm>
0

>  <SCORE.heavy>
40

>  <SCORE.norm>
1.03421

>  <RMSD>
25.080

$$$$
2g5q_lig
 OpenBabel11021811433D
libRbt.so/2013.1/901 2013/11/27
 40 42  0  0  0  0  0  0  0  0999 V2000
   21.6743    1.8556   18.1253 C   0  0  2  0  0  0  0  0  0  0  0  0
   21.4541    3.0828   17.4657 O   0  0  0  0  0  0  0  0  0  0  0  0
   22.0694    2.1440   19.6036 C   0  0  1  0  0  0  0  0  0  0  0  0
   23.4536    2.8559   19.7077 C   0  0  2  0  0  0  0  0  0  0  0  0
   24.5130    1.9304   19.0548 C   0  0  2  0  0  0  0  0  0  0  0  0
   25.8093    2.5425   19.1514 O   0  0  0  0  0  0  0  0  0  0  0  0
   24.1039    1.6964   17.5442 C   0  0  2  0  0  0  0  0  0  0  0  0
   22.7535    1.0686   17.4724 O   0  0  0  0  0  0  0  0  0  0  0  0
   25.0754    0.7828   16.8045 C   0  0  0  0  0  0  0  0  0  0  0  0
   25.5094   -0.3759   17.6475 N   0  0  0  0  0  0  0  0  0  0  0  0
   20.3225    3.2800   13.2517 C   0  0  2  0  0  0  0  0  0  0  0  0
   19.5122    3.3527   12.0418 N   0  0  0  0  0  0  0  0  0  0  0  0
   19.9609    1.9743   14.0765 C   0  0  0  0  0  0  0  0  0  0  0  0
   20.8417    1.8879   15.3847 C   0  0  2  0  0  0  0  0  0  0  0  0
   20.5010    0.6539   16.1431 N   0  0  0  0  0  0  0  0  0  0  0  0
   20.6132    3.1834   16.2608 C   0  0  2  0  0  0  0  0  0  0  0  0
   20.9790    4.4608   15.4057 C   0  0  2  0  0  0  0  0  0  0  0  0
   20.7654    5.6327   16.1987 O   0  0  0  0  0  0  0  0  0  0  0  0
   20.0786    4.5359   14.1139 C   0  0  1  0  0  0  0  0  0  0  0  0
   20.4260    5.7065   13.3220 O   0  0  0  0  0  0  0  0  0  0  0  0
   21.5981    6.4628   13.5020 C   0  0  2  0  0  0  0  0  0  0  0  0
   22.0143    7.0245   12.1004 C   0  0  2  0  0  0  0  0  0  0  0  0
   20.9915    7.8226   11.5971 O   0  0  0  0  0  0  0  0  0  0  0  0
   22.3626    5.8578   11.1004 C   0  0  1  0  0  0  0  0  0  0  0  0
   22.7670    6.3859    9.7558 N   0  0  0  0  0  0  0  0  0  0  0  0
   23.5221    4.9908   11.7337 C   0  0  2  0  0  0  0  0  0  0  0  0
   23.8881    3.9165   10.8653 O   0  0  0  0  0  0  0  0  0  0  0  0
   23.0439    4.4593   13.1271 C   0  0  2  0  0  0  0  0  0  0  0  0
   22.6633    5.5951   14.0354 O   0  0  0  0  0  0  0  0  0  0  0  0
   24.1080    3.6484   13.8082 C   0  0  0  0  0  0  0  0  0  0  0  0
   23.6939    3.2439   15.1234 O   0  0  0  0  0  0  0  0  0  0  0  0
   21.0096    2.9574   20.2146 O   0  0  0  0  0  0  0  0  0  0  0  0
   23.7580    3.0739   21.0332 O   0  0  0  0  0  0  0  0  0  0  0  0
   14.4989    5.5737    9.0690 N   0  0  0  0  0  0  0  0  0  0  0  0
   18.4251    4.1951   11.8553 C   0  0  0  0  0  0  0  0  0  0  0  0
   18.0142    4.9791   12.7038 O   0  0  0  0  0  0  0  0  0  0  0  0
   17.7773    4.0230   10.4621 C   0  0  1  0  0  0  0  0  0  0  0  0
   16.5120    4.8982   10.3558 C   0  0  0  0  0  0  0  0  0  0  0  0
   15.7176    4.7673    9.0511 C   0  0  0  0  0  0  0  0  0  0  0  0
   18.7398    4.3814    9.4451 O   0  0  0  0  0  0  0  0  0  0  0  0
  1  2  1  6  0  0  0
  1  3  1  0  0  0  0
  1  8  1  0  0  0  0
  3  4  1  0  0  0  0
  3 32  1  6  0  0  0
  4  5  1  0  0  0  0
  4 33  1  1  0  0  0
  5  6  1  6  0  0  0
  5  7  1  0  0  0  0
  7  8  1  0  0  0  0
  7  9  1  1  0  0  0
  9 10  1  0  0  0  0
 11 12  1  6  0  0  0
 11 13  1  0  0  0  0
 11 19  1  0  0  0  0
 12 35  1  0  0  0  0
 13 14  1  0  0  0  0
 14 15  1  1  0  0  0
 14 16  1  0  0  0  0
 16  2  1  1  0  0  0
 16 17  1  0  0  0  0
 17 18  1  1  0  0  0
 17 19  1  0  0  0  0
 19 20  1  6  0  0  0
 21 20  1  6  0  0  0
 21 22  1  0  0  0  0
 21 29  1  0  0  0  0
 22 23  1  6  0  0  0
 22 24  1  0  0  0  0
 24 25  1  6  0  0  0
 24 26  1  0  0  0  0
 26 27  1  6  0  0  0
 26 28  1  0  0  0  0
 28 29  1  0  0  0  0
 28 30  1  1  0  0  0
 30 31  1  0  0  0  0
 34 39  1  0  0  0  0
 35 36  2  0  0  0  0
 37 35  1  1  0  0  0
 37 38  1  0  0  0  0
 37 40  1  0  0  0  0
 38 39  1  0  0  0  0
M  END
>  <CHROM.1>
-156.89069117,41.19852237,104.46481357,-36.81371442,-104.87481753,148.14552124
175.99213307,175.45005707,-176.64256112,176.80392740,21.40726131,3.77814364
14.52274498,1.04651541,0.12711635,2.02381158

>  <Name>
2g5q_lig

>  <RI>
0

>  <Rbt.Current_Directory>
/home/itssahil/PROJECTS/Mol_Feturizer/New_Systems/rnas/2g5q

>  <Rbt.Executable>
rbdock ($Id: //depot/dev/client3/rdock/2013.1/src/exe/rbdock.cxx#4 $)

>  <Rbt.Library>
libRbt.so (2013.1, Build901 2013/11/27)

>  <Rbt.Parameter_File>
/export/apps/rDock/src/rDock_2013.1_src/data/scripts/dock_solv.prm

>  <Rbt.Receptor>
prm/blind_docking_80.prm

>  <SCORE>
26.5158

>  <SCORE.INTER>
0.522285

>  <SCORE.INTER.CONST>
1

>  <SCORE.INTER.POLAR>
-0.991245

>  <SCORE.INTER.ROT>
10

>  <SCORE.INTER.SOLV>
22.1155

>  <SCORE.INTER.VDW>
-13.9862

>  <SCORE.INTER.norm>
0.0130571

>  <SCORE.INTRA>
8.14327

>  <SCORE.INTRA.DIHEDRAL>
-4.68279

>  <SCORE.INTRA.DIHEDRAL.0>
22.5778

>  <SCORE.INTRA.POLAR>
0

>  <SCORE.INTRA.POLAR.0>
0

>  <SCORE.INTRA.REPUL>
0

>  <SCORE.INTRA.REPUL.0>
0

>  <SCORE.INTRA.SOLV>
5.44667

>  <SCORE.INTRA.SOLV.lig_0>
-102.332

>  <SCORE.INTRA.VDW>
7.76133

>  <SCORE.INTRA.VDW.0>
-5.08747

>  <SCORE.INTRA.norm>
0.203582

>  <SCORE.RESTR>
17.8502

>  <SCORE.RESTR.CAVITY>
17.8502

>  <SCORE.RESTR.norm>
0.446256

>  <SCORE.SYSTEM>
0

>  <SCORE.SYSTEM.CONST>
0

>  <SCORE.SYSTEM.DIHEDRAL>
0

>  <SCORE.SYSTEM.SOLV>
0

>  <SCORE.SYSTEM.norm>
0

>  <SCORE.heavy>
40

>  <SCORE.norm>
0.662894

>  <RMSD>
25.112

$$$$
2g5q_lig
 OpenBabel11021811433D
libRbt.so/2013.1/901 2013/11/27
 40 42  0  0  0  0  0  0  0  0999 V2000
   23.9797    1.2256   15.8006 C   0  0  2  0  0  0  0  0  0  0  0  0
   22.5854    1.2564   16.0118 O   0  0  0  0  0  0  0  0  0  0  0  0
   24.6375    0.3613   16.9165 C   0  0  1  0  0  0  0  0  0  0  0  0
   24.5062    1.0268   18.3212 C   0  0  2  0  0  0  0  0  0  0  0  0
   25.2000    2.4122   18.2563 C   0  0  2  0  0  0  0  0  0  0  0  0
   25.1205    3.0493   19.5417 O   0  0  0  0  0  0  0  0  0  0  0  0
   24.4776    3.2772   17.1454 C   0  0  2  0  0  0  0  0  0  0  0  0
   24.5678    2.5907   15.8251 O   0  0  0  0  0  0  0  0  0  0  0  0
   25.0916    4.6640   16.9853 C   0  0  0  0  0  0  0  0  0  0  0  0
   26.5160    4.5983   16.5287 N   0  0  0  0  0  0  0  0  0  0  0  0
   19.9974    1.8474   12.5434 C   0  0  2  0  0  0  0  0  0  0  0  0
   19.0665    2.4614   11.6041 N   0  0  0  0  0  0  0  0  0  0  0  0
   19.3319    1.7313   13.9785 C   0  0  0  0  0  0  0  0  0  0  0  0
   20.3345    1.0601   14.9977 C   0  0  2  0  0  0  0  0  0  0  0  0
   19.6947    0.9469   16.3363 N   0  0  0  0  0  0  0  0  0  0  0  0
   21.6652    1.9102   15.0658 C   0  0  2  0  0  0  0  0  0  0  0  0
   22.2953    2.0070   13.6200 C   0  0  2  0  0  0  0  0  0  0  0  0
   23.4965    2.7824   13.6830 O   0  0  0  0  0  0  0  0  0  0  0  0
   21.2851    2.6933   12.6233 C   0  0  1  0  0  0  0  0  0  0  0  0
   21.8630    2.7700   11.2897 O   0  0  0  0  0  0  0  0  0  0  0  0
   21.6162    3.8142   10.3804 C   0  0  2  0  0  0  0  0  0  0  0  0
   22.8986    4.7124   10.3375 C   0  0  2  0  0  0  0  0  0  0  0  0
   23.9861    3.9504    9.9214 O   0  0  0  0  0  0  0  0  0  0  0  0
   23.1776    5.3735   11.7403 C   0  0  1  0  0  0  0  0  0  0  0  0
   24.4019    6.2397   11.7082 N   0  0  0  0  0  0  0  0  0  0  0  0
   21.9060    6.2157   12.1538 C   0  0  2  0  0  0  0  0  0  0  0  0
   22.1030    6.8480   13.4201 O   0  0  0  0  0  0  0  0  0  0  0  0
   20.6632    5.2631   12.1799 C   0  0  2  0  0  0  0  0  0  0  0  0
   20.4614    4.6040   10.8440 O   0  0  0  0  0  0  0  0  0  0  0  0
   19.4048    6.0001   12.5360 C   0  0  0  0  0  0  0  0  0  0  0  0
   19.1755    5.9861   13.9545 O   0  0  0  0  0  0  0  0  0  0  0  0
   24.0115   -0.9676   16.9008 O   0  0  0  0  0  0  0  0  0  0  0  0
   25.1147    0.2289   19.2649 O   0  0  0  0  0  0  0  0  0  0  0  0
   16.1587    7.2235   12.1800 N   0  0  0  0  0  0  0  0  0  0  0  0
   18.0971    3.3981   11.9340 C   0  0  0  0  0  0  0  0  0  0  0  0
   17.9077    3.8145   13.0716 O   0  0  0  0  0  0  0  0  0  0  0  0
   17.2687    3.8468   10.7081 C   0  0  1  0  0  0  0  0  0  0  0  0
   17.0127    5.3663   10.7707 C   0  0  0  0  0  0  0  0  0  0  0  0
   15.9706    5.8257   11.7970 C   0  0  0  0  0  0  0  0  0  0  0  0
   17.9802    3.4925    9.5008 O   0  0  0  0  0  0  0  0  0  0  0  0
  1  2  1  1  0  0  0
  1  3  1  0  0  0  0
  1  8  1  0  0  0  0
  3  4  1  0  0  0  0
  3 32  1  1  0  0  0
  4  5  1  0  0  0  0
  4 33  1  1  0  0  0
  5  6  1  1  0  0  0
  5  7  1  0  0  0  0
  7  8  1  0  0  0  0
  7  9  1  6  0  0  0
  9 10  1  0  0  0  0
 11 12  1  6  0  0  0
 11 13  1  0  0  0  0
 11 19  1  0  0  0  0
 12 35  1  0  0  0  0
 13 14  1  0  0  0  0
 14 15  1  1  0  0  0
 14 16  1  0  0  0  0
 16  2  1  1  0  0  0
 16 17  1  0  0  0  0
 17 18  1  1  0  0  0
 17 19  1  0  0  0  0
 19 20  1  6  0  0  0
 21 20  1  1  0  0  0
 21 22  1  0  0  0  0
 21 29  1  0  0  0  0
 22 23  1  1  0  0  0
 22 24  1  0  0  0  0
 24 25  1  6  0  0  0
 24 26  1  0  0  0  0
 26 27  1  1  0  0  0
 26 28  1  0  0  0  0
 28 29  1  0  0  0  0
 28 30  1  6  0  0  0
 30 31  1  0  0  0  0
 34 39  1  0  0  0  0
 35 36  2  0  0  0  0
 37 35  1  1  0  0  0
 37 38  1  0  0  0  0
 37 40  1  0  0  0  0
 38 39  1  0  0  0  0
M  END
>  <CHROM.1>
-175.30346440,62.90298849,30.78420917,143.53551431,93.74269946,105.59013400
-90.95815227,-139.45416172,-74.30362149,157.03876576,21.64588680,3.39743677
13.82573523,0.81340585,0.28997529,2.29730703

>  <Name>
2g5q_lig

>  <RI>
0

>  <Rbt.Current_Directory>
/home/itssahil/PROJECTS/Mol_Feturizer/New_Systems/rnas/2g5q

>  <Rbt.Executable>
rbdock ($Id: //depot/dev/client3/rdock/2013.1/src/exe/rbdock.cxx#4 $)

>  <Rbt.Library>
libRbt.so (2013.1, Build901 2013/11/27)

>  <Rbt.Parameter_File>
/export/apps/rDock/src/rDock_2013.1_src/data/scripts/dock_solv.prm

>  <Rbt.Receptor>
prm/blind_docking_80.prm

>  <SCORE>
25.0176

>  <SCORE.INTER>
-5.94562

>  <SCORE.INTER.CONST>
1

>  <SCORE.INTER.POLAR>
-1.6305

>  <SCORE.INTER.ROT>
10

>  <SCORE.INTER.SOLV>
20.0279

>  <SCORE.INTER.VDW>
-15.4714

>  <SCORE.INTER.norm>
-0.148641

>  <SCORE.INTRA>
9.69534

>  <SCORE.INTRA.DIHEDRAL>
0.732082

>  <SCORE.INTRA.DIHEDRAL.0>
22.5778

>  <SCORE.INTRA.POLAR>
0

>  <SCORE.INTRA.POLAR.0>
0

>  <SCORE.INTRA.REPUL>
0

>  <SCORE.INTRA.REPUL.0>
0

>  <SCORE.INTRA.SOLV>
5.55901

>  <SCORE.INTRA.SOLV.lig_0>
-102.332

>  <SCORE.INTRA.VDW>
6.54979

>  <SCORE.INTRA.VDW.0>
-5.08747

>  <SCORE.INTRA.norm>
0.242384

>  <SCORE.RESTR>
21.2678

>  <SCORE.RESTR.CAVITY>
21.2678

>  <SCORE.RESTR.norm>
0.531696

>  <SCORE.SYSTEM>
0

>  <SCORE.SYSTEM.CONST>
0

>  <SCORE.SYSTEM.DIHEDRAL>
0

>  <SCORE.SYSTEM.SOLV>
0

>  <SCORE.SYSTEM.norm>
0

>  <SCORE.heavy>
40

>  <SCORE.norm>
0.625439

>  <RMSD>
25.147

$$$$
2g5q_lig
 OpenBabel11021811433D
libRbt.so/2013.1/901 2013/11/27
 40 42  0  0  0  0  0  0  0  0999 V2000
   17.0190    4.6091   12.3395 C   0  0  2  0  0  0  0  0  0  0  0  0
   18.2855    5.1077   11.9695 O   0  0  0  0  0  0  0  0  0  0  0  0
   16.3272    4.0111   11.0791 C   0  0  1  0  0  0  0  0  0  0  0  0
   15.9821    5.1108   10.0279 C   0  0  2  0  0  0  0  0  0  0  0  0
   15.0362    6.1353   10.7065 C   0  0  2  0  0  0  0  0  0  0  0  0
   14.6758    7.1552    9.7607 O   0  0  0  0  0  0  0  0  0  0  0  0
   15.7879    6.7542   11.9538 C   0  0  2  0  0  0  0  0  0  0  0  0
   16.1571    5.6753   12.9143 O   0  0  0  0  0  0  0  0  0  0  0  0
   14.9393    7.7714   12.7093 C   0  0  0  0  0  0  0  0  0  0  0  0
   13.9797    7.1133   13.6515 N   0  0  0  0  0  0  0  0  0  0  0  0
   20.9932    2.2698   13.8912 C   0  0  2  0  0  0  0  0  0  0  0  0
   22.2168    1.6059   14.3245 N   0  0  0  0  0  0  0  0  0  0  0  0
   20.9121    2.2913   12.3072 C   0  0  0  0  0  0  0  0  0  0  0  0
   19.5844    3.0034   11.8334 C   0  0  2  0  0  0  0  0  0  0  0  0
   19.5151    3.0069   10.3471 N   0  0  0  0  0  0  0  0  0  0  0  0
   19.5371    4.4721   12.4153 C   0  0  2  0  0  0  0  0  0  0  0  0
   19.6243    4.4101   13.9918 C   0  0  2  0  0  0  0  0  0  0  0  0
   19.5877    5.7412   14.5160 O   0  0  0  0  0  0  0  0  0  0  0  0
   20.9629    3.7103   14.4428 C   0  0  1  0  0  0  0  0  0  0  0  0
   21.0348    3.6435   15.8949 O   0  0  0  0  0  0  0  0  0  0  0  0
   21.7826    2.6877   16.6059 C   0  0  2  0  0  0  0  0  0  0  0  0
   21.4695    2.8840   18.1279 C   0  0  2  0  0  0  0  0  0  0  0  0
   20.1079    2.7012   18.3497 O   0  0  0  0  0  0  0  0  0  0  0  0
   21.9359    4.3041   18.6263 C   0  0  1  0  0  0  0  0  0  0  0  0
   21.6443    4.5001   20.0847 N   0  0  0  0  0  0  0  0  0  0  0  0
   23.4835    4.4470   18.3402 C   0  0  2  0  0  0  0  0  0  0  0  0
   23.9680    5.7176   18.7794 O   0  0  0  0  0  0  0  0  0  0  0  0
   23.7286    4.2428   16.8070 C   0  0  2  0  0  0  0  0  0  0  0  0
   23.2186    2.9033   16.3534 O   0  0  0  0  0  0  0  0  0  0  0  0
   25.1863    4.3334   16.4597 C   0  0  0  0  0  0  0  0  0  0  0  0
   25.9702    3.4333   17.2597 O   0  0  0  0  0  0  0  0  0  0  0  0
   17.2151    2.9913   10.5049 O   0  0  0  0  0  0  0  0  0  0  0  0
   15.3622    4.5298    8.9437 O   0  0  0  0  0  0  0  0  0  0  0  0
   25.2518    0.5307   18.7434 N   0  0  0  0  0  0  0  0  0  0  0  0
   22.2886    0.3249   14.8537 C   0  0  0  0  0  0  0  0  0  0  0  0
   21.3144   -0.3996   15.0252 O   0  0  0  0  0  0  0  0  0  0  0  0
   23.7345   -0.0821   15.2200 C   0  0  1  0  0  0  0  0  0  0  0  0
   23.9074   -0.0962   16.7523 C   0  0  0  0  0  0  0  0  0  0  0  0
   25.1245    0.6630   17.2935 C   0  0  0  0  0  0  0  0  0  0  0  0
   24.0170   -1.3829   14.6566 O   0  0  0  0  0  0  0  0  0  0  0  0
  1  2  1  6  0  0  0
  1  3  1  0  0  0  0
  1  8  1  0  0  0  0
  3  4  1  0  0  0  0
  3 32  1  6  0  0  0
  4  5  1  0  0  0  0
  4 33  1  6  0  0  0
  5  6  1  6  0  0  0
  5  7  1  0  0  0  0
  7  8  1  0  0  0  0
  7  9  1  1  0  0  0
  9 10  1  0  0  0  0
 11 12  1  6  0  0  0
 11 13  1  0  0  0  0
 11 19  1  0  0  0  0
 12 35  1  0  0  0  0
 13 14  1  0  0  0  0
 14 15  1  6  0  0  0
 14 16  1  0  0  0  0
 16  2  1  1  0  0  0
 16 17  1  0  0  0  0
 17 18  1  1  0  0  0
 17 19  1  0  0  0  0
 19 20  1  1  0  0  0
 21 20  1  6  0  0  0
 21 22  1  0  0  0  0
 21 29  1  0  0  0  0
 22 23  1  6  0  0  0
 22 24  1  0  0  0  0
 24 25  1  1  0  0  0
 24 26  1  0  0  0  0
 26 27  1  6  0  0  0
 26 28  1  0  0  0  0
 28 29  1  0  0  0  0
 28 30  1  1  0  0  0
 30 31  1  0  0  0  0
 34 39  1  0  0  0  0
 35 36  2  0  0  0  0
 37 35  1  1  0  0  0
 37 38  1  0  0  0  0
 37 40  1  0  0  0  0
 38 39  1  0  0  0  0
M  END
>  <CHROM.1>
-110.86027859,81.55764781,-104.84152327,62.41630502,35.45990034,-174.43837296
53.68205979,107.58224460,-130.25101239,-176.65911991,20.31783669,3.57682617
14.46806657,-2.92431163,-0.70179295,0.84261348

>  <Name>
2g5q_lig

>  <RI>
0

>  <Rbt.Current_Directory>
/home/itssahil/PROJECTS/Mol_Feturizer/New_Systems/rnas/2g5q

>  <Rbt.Executable>
rbdock ($Id: //depot/dev/client3/rdock/2013.1/src/exe/rbdock.cxx#4 $)

>  <Rbt.Library>
libRbt.so (2013.1, Build901 2013/11/27)

>  <Rbt.Parameter_File>
/export/apps/rDock/src/rDock_2013.1_src/data/scripts/dock_solv.prm

>  <Rbt.Receptor>
prm/blind_docking_80.prm

>  <SCORE>
24.036

>  <SCORE.INTER>
5.10753

>  <SCORE.INTER.CONST>
1

>  <SCORE.INTER.POLAR>
-0.655242

>  <SCORE.INTER.ROT>
10

>  <SCORE.INTER.SOLV>
18.1671

>  <SCORE.INTER.VDW>
-10.7332

>  <SCORE.INTER.norm>
0.127688

>  <SCORE.INTRA>
5.12015

>  <SCORE.INTRA.DIHEDRAL>
-3.22607

>  <SCORE.INTRA.DIHEDRAL.0>
22.5778

>  <SCORE.INTRA.POLAR>
0

>  <SCORE.INTRA.POLAR.0>
0

>  <SCORE.INTRA.REPUL>
0

>  <SCORE.INTRA.REPUL.0>
0

>  <SCORE.INTRA.SOLV>
5.3674

>  <SCORE.INTRA.SOLV.lig_0>
-102.332

>  <SCORE.INTRA.VDW>
4.04949

>  <SCORE.INTRA.VDW.0>
-5.08747

>  <SCORE.INTRA.norm>
0.128004

>  <SCORE.RESTR>
13.8083

>  <SCORE.RESTR.CAVITY>
13.8083

>  <SCORE.RESTR.norm>
0.345207

>  <SCORE.SYSTEM>
0

>  <SCORE.SYSTEM.CONST>
0

>  <SCORE.SYSTEM.DIHEDRAL>
0

>  <SCORE.SYSTEM.SOLV>
0

>  <SCORE.SYSTEM.norm>
0

>  <SCORE.heavy>
40

>  <SCORE.norm>
0.600899

>  <RMSD>
25.154

$$$$
2g5q_lig
 OpenBabel11021811433D
libRbt.so/2013.1/901 2013/11/27
 40 42  0  0  0  0  0  0  0  0999 V2000
   23.9044    3.1949   16.2862 C   0  0  2  0  0  0  0  0  0  0  0  0
   22.7627    3.6565   16.9738 O   0  0  0  0  0  0  0  0  0  0  0  0
   24.0226    1.6551   16.4863 C   0  0  1  0  0  0  0  0  0  0  0  0
   24.3276    1.2830   17.9703 C   0  0  2  0  0  0  0  0  0  0  0  0
   25.6631    1.9651   18.3653 C   0  0  2  0  0  0  0  0  0  0  0  0
   25.9915    1.6267   19.7225 O   0  0  0  0  0  0  0  0  0  0  0  0
   25.4915    3.5287   18.1930 C   0  0  2  0  0  0  0  0  0  0  0  0
   25.1437    3.8513   16.7795 O   0  0  0  0  0  0  0  0  0  0  0  0
   26.7576    4.3034   18.5431 C   0  0  0  0  0  0  0  0  0  0  0  0
   27.8939    3.9655   17.6286 N   0  0  0  0  0  0  0  0  0  0  0  0
   19.0504    5.4647   15.5501 C   0  0  2  0  0  0  0  0  0  0  0  0
   18.1095    6.4293   14.9933 N   0  0  0  0  0  0  0  0  0  0  0  0
   19.7325    6.0543   16.8551 C   0  0  0  0  0  0  0  0  0  0  0  0
   20.7475    5.0096   17.4658 C   0  0  2  0  0  0  0  0  0  0  0  0
   21.3718    5.5699   18.6947 N   0  0  0  0  0  0  0  0  0  0  0  0
   21.8384    4.6396   16.3836 C   0  0  2  0  0  0  0  0  0  0  0  0
   21.1220    4.0611   15.0995 C   0  0  2  0  0  0  0  0  0  0  0  0
   22.1111    3.7328   14.1187 O   0  0  0  0  0  0  0  0  0  0  0  0
   20.1260    5.1244   14.4977 C   0  0  1  0  0  0  0  0  0  0  0  0
   19.4585    4.5845   13.3225 O   0  0  0  0  0  0  0  0  0  0  0  0
   19.3602    5.2567   12.0909 C   0  0  2  0  0  0  0  0  0  0  0  0
   19.7321    4.2323   10.9660 C   0  0  2  0  0  0  0  0  0  0  0  0
   18.8498    3.1569   11.0063 O   0  0  0  0  0  0  0  0  0  0  0  0
   21.2229    3.7436   11.1115 C   0  0  1  0  0  0  0  0  0  0  0  0
   21.5903    2.7651   10.0354 N   0  0  0  0  0  0  0  0  0  0  0  0
   22.1673    5.0098   11.0636 C   0  0  2  0  0  0  0  0  0  0  0  0
   23.5390    4.6277   11.1840 O   0  0  0  0  0  0  0  0  0  0  0  0
   21.7463    5.9901   12.2100 C   0  0  2  0  0  0  0  0  0  0  0  0
   20.3032    6.3892   12.0750 O   0  0  0  0  0  0  0  0  0  0  0  0
   22.5815    7.2375   12.2100 C   0  0  0  0  0  0  0  0  0  0  0  0
   22.3355    8.0302   13.3830 O   0  0  0  0  0  0  0  0  0  0  0  0
   22.7717    1.0330   16.0319 O   0  0  0  0  0  0  0  0  0  0  0  0
   24.4345   -0.0854   18.0867 O   0  0  0  0  0  0  0  0  0  0  0  0
   17.0932    6.9760   10.9012 N   0  0  0  0  0  0  0  0  0  0  0  0
   17.0329    6.1171   14.1749 C   0  0  0  0  0  0  0  0  0  0  0  0
   16.7535    4.9781   13.8174 O   0  0  0  0  0  0  0  0  0  0  0  0
   16.2329    7.3697   13.7487 C   0  0  1  0  0  0  0  0  0  0  0  0
   15.2757    7.0172   12.5922 C   0  0  0  0  0  0  0  0  0  0  0  0
   15.9073    6.2846   11.4028 C   0  0  0  0  0  0  0  0  0  0  0  0
   15.5015    7.8745   14.8887 O   0  0  0  0  0  0  0  0  0  0  0  0
  1  2  1  1  0  0  0
  1  3  1  0  0  0  0
  1  8  1  0  0  0  0
  3  4  1  0  0  0  0
  3 32  1  1  0  0  0
  4  5  1  0  0  0  0
  4 33  1  6  0  0  0
  5  6  1  1  0  0  0
  5  7  1  0  0  0  0
  7  8  1  0  0  0  0
  7  9  1  6  0  0  0
  9 10  1  0  0  0  0
 11 12  1  6  0  0  0
 11 13  1  0  0  0  0
 11 19  1  0  0  0  0
 12 35  1  0  0  0  0
 13 14  1  0  0  0  0
 14 15  1  1  0  0  0
 14 16  1  0  0  0  0
 16  2  1  1  0  0  0
 16 17  1  0  0  0  0
 17 18  1  6  0  0  0
 17 19  1  0  0  0  0
 19 20  1  6  0  0  0
 21 20  1  1  0  0  0
 21 22  1  0  0  0  0
 21 29  1  0  0  0  0
 22 23  1  1  0  0  0
 22 24  1  0  0  0  0
 24 25  1  6  0  0  0
 24 26  1  0  0  0  0
 26 27  1  1  0  0  0
 26 28  1  0  0  0  0
 28 29  1  0  0  0  0
 28 30  1  6  0  0  0
 30 31  1  0  0  0  0
 34 39  1  0  0  0  0
 35 36  2  0  0  0  0
 37 35  1  1  0  0  0
 37 38  1  0  0  0  0
 37 40  1  0  0  0  0
 38 39  1  0  0  0  0
M  END
>  <CHROM.1>
-137.13795822,63.30940679,-156.49620308,-175.59463629,109.89532910,133.70439872
-170.83598738,166.50313731,-50.70677139,-51.69285556,21.26726519,4.57597782
14.67195424,-0.57587563,0.44408676,-1.56694635

>  <Name>
2g5q_lig

>  <RI>
0

>  <Rbt.Current_Directory>
/home/itssahil/PROJECTS/Mol_Feturizer/New_Systems/rnas/2g5q

>  <Rbt.Executable>
rbdock ($Id: //depot/dev/client3/rdock/2013.1/src/exe/rbdock.cxx#4 $)

>  <Rbt.Library>
libRbt.so (2013.1, Build901 2013/11/27)

>  <Rbt.Parameter_File>
/export/apps/rDock/src/rDock_2013.1_src/data/scripts/dock_solv.prm

>  <Rbt.Receptor>
prm/blind_docking_80.prm

>  <SCORE>
18.5327

>  <SCORE.INTER>
1.38336

>  <SCORE.INTER.CONST>
1

>  <SCORE.INTER.POLAR>
-0.41812

>  <SCORE.INTER.ROT>
10

>  <SCORE.INTER.SOLV>
24.5253

>  <SCORE.INTER.VDW>
-16.1258

>  <SCORE.INTER.norm>
0.0345839

>  <SCORE.INTRA>
2.2243

>  <SCORE.INTRA.DIHEDRAL>
-1.32033

>  <SCORE.INTRA.DIHEDRAL.0>
22.5778

>  <SCORE.INTRA.POLAR>
0

>  <SCORE.INTRA.POLAR.0>
0

>  <SCORE.INTRA.REPUL>
0

>  <SCORE.INTRA.REPUL.0>
0

>  <SCORE.INTRA.SOLV>
5.97912

>  <SCORE.INTRA.SOLV.lig_0>
-102.332

>  <SCORE.INTRA.VDW>
-0.105093

>  <SCORE.INTRA.VDW.0>
-5.08747

>  <SCORE.INTRA.norm>
0.0556076

>  <SCORE.RESTR>
14.925

>  <SCORE.RESTR.CAVITY>
14.925

>  <SCORE.RESTR.norm>
0.373125

>  <SCORE.SYSTEM>
0

>  <SCORE.SYSTEM.CONST>
0

>  <SCORE.SYSTEM.DIHEDRAL>
0

>  <SCORE.SYSTEM.SOLV>
0

>  <SCORE.SYSTEM.norm>
0

>  <SCORE.heavy>
40

>  <SCORE.norm>
0.463317

>  <RMSD>
25.241

$$$$
2g5q_lig
 OpenBabel11021811433D
libRbt.so/2013.1/901 2013/11/27
 40 42  0  0  0  0  0  0  0  0999 V2000
   23.6285    1.6915   16.3549 C   0  0  2  0  0  0  0  0  0  0  0  0
   22.4739    1.9387   17.1264 O   0  0  0  0  0  0  0  0  0  0  0  0
   24.3574    0.4407   16.9286 C   0  0  1  0  0  0  0  0  0  0  0  0
   24.9333    0.7059   18.3540 C   0  0  2  0  0  0  0  0  0  0  0  0
   25.9300    1.8894   18.2501 C   0  0  2  0  0  0  0  0  0  0  0  0
   26.5013    2.1503   19.5423 O   0  0  0  0  0  0  0  0  0  0  0  0
   25.1458    3.1522   17.7076 C   0  0  2  0  0  0  0  0  0  0  0  0
   24.5572    2.8523   16.3711 O   0  0  0  0  0  0  0  0  0  0  0  0
   26.0382    4.3790   17.5520 C   0  0  0  0  0  0  0  0  0  0  0  0
   27.1371    4.1522   16.5607 N   0  0  0  0  0  0  0  0  0  0  0  0
   19.8751    4.2753   14.5065 C   0  0  2  0  0  0  0  0  0  0  0  0
   18.8354    5.1914   14.0534 N   0  0  0  0  0  0  0  0  0  0  0  0
   19.2373    3.1006   15.3603 C   0  0  0  0  0  0  0  0  0  0  0  0
   20.3595    2.1016   15.8473 C   0  0  2  0  0  0  0  0  0  0  0  0
   19.7472    0.9991   16.6370 N   0  0  0  0  0  0  0  0  0  0  0  0
   21.4347    2.8896   16.6964 C   0  0  2  0  0  0  0  0  0  0  0  0
   22.0433    4.0518   15.8157 C   0  0  2  0  0  0  0  0  0  0  0  0
   23.0118    4.7677   16.5886 O   0  0  0  0  0  0  0  0  0  0  0  0
   20.9095    5.0448   15.3537 C   0  0  1  0  0  0  0  0  0  0  0  0
   21.4710    6.1073   14.5326 O   0  0  0  0  0  0  0  0  0  0  0  0
   22.5948    5.9532   13.7011 C   0  0  2  0  0  0  0  0  0  0  0  0
   22.3397    6.7961   12.4059 C   0  0  2  0  0  0  0  0  0  0  0  0
   22.1662    8.1337   12.7483 O   0  0  0  0  0  0  0  0  0  0  0  0
   21.0938    6.2523   11.6092 C   0  0  1  0  0  0  0  0  0  0  0  0
   20.8439    7.0506   10.3640 N   0  0  0  0  0  0  0  0  0  0  0  0
   21.3533    4.7334   11.2585 C   0  0  2  0  0  0  0  0  0  0  0  0
   20.2559    4.1846   10.5260 O   0  0  0  0  0  0  0  0  0  0  0  0
   21.5983    3.9482   12.5911 C   0  0  2  0  0  0  0  0  0  0  0  0
   22.7555    4.5298   13.3543 O   0  0  0  0  0  0  0  0  0  0  0  0
   21.8844    2.4966   12.3368 C   0  0  0  0  0  0  0  0  0  0  0  0
   22.0585    1.7757   13.5677 O   0  0  0  0  0  0  0  0  0  0  0  0
   23.4088   -0.6809   16.9423 O   0  0  0  0  0  0  0  0  0  0  0  0
   25.5766   -0.4253   18.8058 O   0  0  0  0  0  0  0  0  0  0  0  0
   15.6235    5.4086    9.1736 N   0  0  0  0  0  0  0  0  0  0  0  0
   18.1592    5.1008   12.8447 C   0  0  0  0  0  0  0  0  0  0  0  0
   18.3698    4.2306   12.0071 O   0  0  0  0  0  0  0  0  0  0  0  0
   17.1205    6.2316   12.6635 C   0  0  1  0  0  0  0  0  0  0  0  0
   16.1039    5.8451   11.5701 C   0  0  0  0  0  0  0  0  0  0  0  0
   16.6613    5.7473   10.1453 C   0  0  0  0  0  0  0  0  0  0  0  0
   16.4561    6.4705   13.9248 O   0  0  0  0  0  0  0  0  0  0  0  0
  1  2  1  1  0  0  0
  1  3  1  0  0  0  0
  1  8  1  0  0  0  0
  3  4  1  0  0  0  0
  3 32  1  1  0  0  0
  4  5  1  0  0  0  0
  4 33  1  6  0  0  0
  5  6  1  1  0  0  0
  5  7  1  0  0  0  0
  7  8  1  0  0  0  0
  7  9  1  6  0  0  0
  9 10  1  0  0  0  0
 11 12  1  1  0  0  0
 11 13  1  0  0  0  0
 11 19  1  0  0  0  0
 12 35  1  0  0  0  0
 13 14  1  0  0  0  0
 14 15  1  1  0  0  0
 14 16  1  0  0  0  0
 16  2  1  6  0  0  0
 16 17  1  0  0  0  0
 17 18  1  1  0  0  0
 17 19  1  0  0  0  0
 19 20  1  6  0  0  0
 21 20  1  1  0  0  0
 21 22  1  0  0  0  0
 21 29  1  0  0  0  0
 22 23  1  1  0  0  0
 22 24  1  0  0  0  0
 24 25  1  6  0  0  0
 24 26  1  0  0  0  0
 26 27  1  1  0  0  0
 26 28  1  0  0  0  0
 28 29  1  0  0  0  0
 28 30  1  6  0  0  0
 30 31  1  0  0  0  0
 34 39  1  0  0  0  0
 35 36  2  0  0  0  0
 37 35  1  1  0  0  0
 37 38  1  0  0  0  0
 37 40  1  0  0  0  0
 38 39  1  0  0  0  0
M  END
>  <CHROM.1>
-168.23513946,61.87906646,-91.86388572,90.59039853,-88.59058820,142.74389684
-177.85469625,-161.64402929,-66.95258812,-178.61935762,21.62618686,3.87512388
14.58407087,0.77187197,0.34091567,2.47454923

>  <Name>
2g5q_lig

>  <RI>
0

>  <Rbt.Current_Directory>
/home/itssahil/PROJECTS/Mol_Feturizer/New_Systems/rnas/2g5q

>  <Rbt.Executable>
rbdock ($Id: //depot/dev/client3/rdock/2013.1/src/exe/rbdock.cxx#4 $)

>  <Rbt.Library>
libRbt.so (2013.1, Build901 2013/11/27)

>  <Rbt.Parameter_File>
/export/apps/rDock/src/rDock_2013.1_src/data/scripts/dock_solv.prm

>  <Rbt.Receptor>
prm/blind_docking_80.prm

>  <SCORE>
25.0199

>  <SCORE.INTER>
4.99419

>  <SCORE.INTER.CONST>
1

>  <SCORE.INTER.POLAR>
-0.290077

>  <SCORE.INTER.ROT>
10

>  <SCORE.INTER.SOLV>
22.4911

>  <SCORE.INTER.VDW>
-13.4673

>  <SCORE.INTER.norm>
0.124855

>  <SCORE.INTRA>
5.76776

>  <SCORE.INTRA.DIHEDRAL>
-7.88872

>  <SCORE.INTRA.DIHEDRAL.0>
22.5778

>  <SCORE.INTRA.POLAR>
0

>  <SCORE.INTRA.POLAR.0>
0

>  <SCORE.INTRA.REPUL>
0.30759

>  <SCORE.INTRA.REPUL.0>
0

>  <SCORE.INTRA.SOLV>
5.61419

>  <SCORE.INTRA.SOLV.lig_0>
-102.332

>  <SCORE.INTRA.VDW>
5.36708

>  <SCORE.INTRA.VDW.0>
-5.08747

>  <SCORE.INTRA.norm>
0.144194

>  <SCORE.RESTR>
14.2579

>  <SCORE.RESTR.CAVITY>
14.2579

>  <SCORE.RESTR.norm>
0.356448

>  <SCORE.SYSTEM>
0

>  <SCORE.SYSTEM.CONST>
0

>  <SCORE.SYSTEM.DIHEDRAL>
0

>  <SCORE.SYSTEM.SOLV>
0

>  <SCORE.SYSTEM.norm>
0

>  <SCORE.heavy>
40

>  <SCORE.norm>
0.625497

>  <RMSD>
25.278

$$$$
2g5q_lig
 OpenBabel11021811433D
libRbt.so/2013.1/901 2013/11/27
 40 42  0  0  0  0  0  0  0  0999 V2000
   23.0378    2.9146   16.6404 C   0  0  2  0  0  0  0  0  0  0  0  0
   22.2330    3.9824   17.0894 O   0  0  0  0  0  0  0  0  0  0  0  0
   23.1156    1.8381   17.7628 C   0  0  1  0  0  0  0  0  0  0  0  0
   23.8844    2.3589   19.0162 C   0  0  2  0  0  0  0  0  0  0  0  0
   25.3164    2.7486   18.5661 C   0  0  2  0  0  0  0  0  0  0  0  0
   26.0661    3.2131   19.7004 O   0  0  0  0  0  0  0  0  0  0  0  0
   25.1996    3.8742   17.4600 C   0  0  2  0  0  0  0  0  0  0  0  0
   24.4114    3.3696   16.2994 O   0  0  0  0  0  0  0  0  0  0  0  0
   26.5571    4.3260   16.9321 C   0  0  0  0  0  0  0  0  0  0  0  0
   27.3753    3.1769   16.4300 N   0  0  0  0  0  0  0  0  0  0  0  0
   18.9666    5.5222   14.6324 C   0  0  2  0  0  0  0  0  0  0  0  0
   18.1996    6.3751   13.7324 N   0  0  0  0  0  0  0  0  0  0  0  0
   19.3931    6.3336   15.9268 C   0  0  0  0  0  0  0  0  0  0  0  0
   20.2182    5.4111   16.9079 C   0  0  2  0  0  0  0  0  0  0  0  0
   20.6023    6.1805   18.1223 N   0  0  0  0  0  0  0  0  0  0  0  0
   21.4900    4.8476   16.1575 C   0  0  2  0  0  0  0  0  0  0  0  0
   21.0261    4.0508   14.8742 C   0  0  2  0  0  0  0  0  0  0  0  0
   22.1794    3.5470   14.1930 O   0  0  0  0  0  0  0  0  0  0  0  0
   20.2185    4.9932   13.9023 C   0  0  1  0  0  0  0  0  0  0  0  0
   19.7820    4.2538   12.7271 O   0  0  0  0  0  0  0  0  0  0  0  0
   19.9712    4.6904   11.4035 C   0  0  2  0  0  0  0  0  0  0  0  0
   21.0425    3.7540   10.7489 C   0  0  2  0  0  0  0  0  0  0  0  0
   20.5853    2.4398   10.7682 O   0  0  0  0  0  0  0  0  0  0  0  0
   22.4314    3.8782   11.4826 C   0  0  1  0  0  0  0  0  0  0  0  0
   23.4659    2.9881   10.8598 N   0  0  0  0  0  0  0  0  0  0  0  0
   22.8876    5.3902   11.4290 C   0  0  2  0  0  0  0  0  0  0  0  0
   24.1502    5.5650   12.0750 O   0  0  0  0  0  0  0  0  0  0  0  0
   21.7785    6.2703   12.0984 C   0  0  2  0  0  0  0  0  0  0  0  0
   20.4544    6.0827   11.4118 O   0  0  0  0  0  0  0  0  0  0  0  0
   22.1269    7.7299   12.0581 C   0  0  0  0  0  0  0  0  0  0  0  0
   23.0295    8.0804   13.1199 O   0  0  0  0  0  0  0  0  0  0  0  0
   21.7466    1.4354   18.1122 O   0  0  0  0  0  0  0  0  0  0  0  0
   23.9344    1.3650   19.9687 O   0  0  0  0  0  0  0  0  0  0  0  0
   13.8637    7.0325   13.0112 N   0  0  0  0  0  0  0  0  0  0  0  0
   17.4225    5.9277   12.6731 C   0  0  0  0  0  0  0  0  0  0  0  0
   17.2987    4.7469   12.3670 O   0  0  0  0  0  0  0  0  0  0  0  0
   16.7423    7.0871   11.9093 C   0  0  1  0  0  0  0  0  0  0  0  0
   16.1125    8.0799   12.9072 C   0  0  0  0  0  0  0  0  0  0  0  0
   14.9979    7.5160   13.7960 C   0  0  0  0  0  0  0  0  0  0  0  0
   17.7234    7.7449   11.0762 O   0  0  0  0  0  0  0  0  0  0  0  0
  1  2  1  1  0  0  0
  1  3  1  0  0  0  0
  1  8  1  0  0  0  0
  3  4  1  0  0  0  0
  3 32  1  1  0  0  0
  4  5  1  0  0  0  0
  4 33  1  1  0  0  0
  5  6  1  1  0  0  0
  5  7  1  0  0  0  0
  7  8  1  0  0  0  0
  7  9  1  6  0  0  0
  9 10  1  0  0  0  0
 11 12  1  6  0  0  0
 11 13  1  0  0  0  0
 11 19  1  0  0  0  0
 12 35  1  0  0  0  0
 13 14  1  0  0  0  0
 14 15  1  1  0  0  0
 14 16  1  0  0  0  0
 16  2  1  1  0  0  0
 16 17  1  0  0  0  0
 17 18  1  6  0  0  0
 17 19  1  0  0  0  0
 19 20  1  6  0  0  0
 21 20  1  1  0  0  0
 21 22  1  0  0  0  0
 21 29  1  0  0  0  0
 22 23  1  1  0  0  0
 22 24  1  0  0  0  0
 24 25  1  6  0  0  0
 24 26  1  0  0  0  0
 26 27  1  1  0  0  0
 26 28  1  0  0  0  0
 28 29  1  0  0  0  0
 28 30  1  6  0  0  0
 30 31  1  0  0  0  0
 34 39  1  0  0  0  0
 35 36  2  0  0  0  0
 37 35  1  1  0  0  0
 37 38  1  0  0  0  0
 37 40  1  0  0  0  0
 38 39  1  0  0  0  0
M  END
>  <CHROM.1>
-153.24195706,54.44906458,-164.59197443,152.43493244,110.27368666,109.82422165
-81.60023403,-45.96039991,-62.42367817,-60.84922077,21.30177915,4.76416828
14.51120826,0.70311663,-0.31798062,1.77846941

>  <Name>
2g5q_lig

>  <RI>
0

>  <Rbt.Current_Directory>
/home/itssahil/PROJECTS/Mol_Feturizer/New_Systems/rnas/2g5q

>  <Rbt.Executable>
rbdock ($Id: //depot/dev/client3/rdock/2013.1/src/exe/rbdock.cxx#4 $)

>  <Rbt.Library>
libRbt.so (2013.1, Build901 2013/11/27)

>  <Rbt.Parameter_File>
/export/apps/rDock/src/rDock_2013.1_src/data/scripts/dock_solv.prm

>  <Rbt.Receptor>
prm/blind_docking_80.prm

>  <SCORE>
19.0052

>  <SCORE.INTER>
-1.80258

>  <SCORE.INTER.CONST>
1

>  <SCORE.INTER.POLAR>
-0.538956

>  <SCORE.INTER.ROT>
10

>  <SCORE.INTER.SOLV>
15.9956

>  <SCORE.INTER.VDW>
-15.0037

>  <SCORE.INTER.norm>
-0.0450646

>  <SCORE.INTRA>
4.79384

>  <SCORE.INTRA.DIHEDRAL>
-0.15339

>  <SCORE.INTRA.DIHEDRAL.0>
22.5778

>  <SCORE.INTRA.POLAR>
0

>  <SCORE.INTRA.POLAR.0>
0

>  <SCORE.INTRA.REPUL>
0

>  <SCORE.INTRA.REPUL.0>
0

>  <SCORE.INTRA.SOLV>
4.10312

>  <SCORE.INTRA.SOLV.lig_0>
-102.332

>  <SCORE.INTRA.VDW>
2.81898

>  <SCORE.INTRA.VDW.0>
-5.08747

>  <SCORE.INTRA.norm>
0.119846

>  <SCORE.RESTR>
16.014

>  <SCORE.RESTR.CAVITY>
16.014

>  <SCORE.RESTR.norm>
0.400349

>  <SCORE.SYSTEM>
0

>  <SCORE.SYSTEM.CONST>
0

>  <SCORE.SYSTEM.DIHEDRAL>
0

>  <SCORE.SYSTEM.SOLV>
0

>  <SCORE.SYSTEM.norm>
0

>  <SCORE.heavy>
40

>  <SCORE.norm>
0.475131

>  <RMSD>
25.379

$$$$
2g5q_lig
 OpenBabel11021811433D
libRbt.so/2013.1/901 2013/11/27
 40 42  0  0  0  0  0  0  0  0999 V2000
   19.2822    4.8293   10.9144 C   0  0  2  0  0  0  0  0  0  0  0  0
   19.3067    4.2743   12.2108 O   0  0  0  0  0  0  0  0  0  0  0  0
   19.0989    6.3712   11.0317 C   0  0  1  0  0  0  0  0  0  0  0  0
   17.6982    6.7485   11.6056 C   0  0  2  0  0  0  0  0  0  0  0  0
   16.6226    6.1656   10.6526 C   0  0  2  0  0  0  0  0  0  0  0  0
   15.3147    6.5125   11.1359 O   0  0  0  0  0  0  0  0  0  0  0  0
   16.8107    4.5955   10.5934 C   0  0  2  0  0  0  0  0  0  0  0  0
   18.1768    4.2635   10.0970 O   0  0  0  0  0  0  0  0  0  0  0  0
   15.8075    3.9155    9.6678 C   0  0  0  0  0  0  0  0  0  0  0  0
   15.6283    4.6663    8.3849 N   0  0  0  0  0  0  0  0  0  0  0  0
   22.1858    2.3995   14.9077 C   0  0  2  0  0  0  0  0  0  0  0  0
   23.4281    2.1020   15.6106 N   0  0  0  0  0  0  0  0  0  0  0  0
   22.3866    2.2305   13.3434 C   0  0  0  0  0  0  0  0  0  0  0  0
   21.0410    2.5449   12.5785 C   0  0  2  0  0  0  0  0  0  0  0  0
   21.2396    2.3721   11.1140 N   0  0  0  0  0  0  0  0  0  0  0  0
   20.5674    4.0122   12.9259 C   0  0  2  0  0  0  0  0  0  0  0  0
   20.3828    4.1428   14.4897 C   0  0  2  0  0  0  0  0  0  0  0  0
   19.9601    5.4738   14.8024 O   0  0  0  0  0  0  0  0  0  0  0  0
   21.7401    3.8403   15.2322 C   0  0  1  0  0  0  0  0  0  0  0  0
   21.5642    3.9492   16.6728 O   0  0  0  0  0  0  0  0  0  0  0  0
   20.3140    4.0254   17.3127 C   0  0  2  0  0  0  0  0  0  0  0  0
   20.5552    4.6079   18.7465 C   0  0  2  0  0  0  0  0  0  0  0  0
   21.1286    5.8718   18.6444 O   0  0  0  0  0  0  0  0  0  0  0  0
   21.4600    3.6466   19.6065 C   0  0  1  0  0  0  0  0  0  0  0  0
   21.6932    4.1938   20.9837 N   0  0  0  0  0  0  0  0  0  0  0  0
   20.7561    2.2335   19.6769 C   0  0  2  0  0  0  0  0  0  0  0  0
   21.5296    1.3167   20.4536 O   0  0  0  0  0  0  0  0  0  0  0  0
   20.5460    1.7072   18.2169 C   0  0  2  0  0  0  0  0  0  0  0  0
   19.7296    2.6757   17.4073 O   0  0  0  0  0  0  0  0  0  0  0  0
   19.8510    0.3767   18.1998 C   0  0  0  0  0  0  0  0  0  0  0  0
   20.2443   -0.4028   17.0585 O   0  0  0  0  0  0  0  0  0  0  0  0
   20.1767    6.9014   11.8774 O   0  0  0  0  0  0  0  0  0  0  0  0
   17.5858    8.1196   11.6751 O   0  0  0  0  0  0  0  0  0  0  0  0
   25.7009    4.7333   18.1158 N   0  0  0  0  0  0  0  0  0  0  0  0
   23.5987    1.0856   16.5401 C   0  0  0  0  0  0  0  0  0  0  0  0
   22.7074    0.3173   16.8844 O   0  0  0  0  0  0  0  0  0  0  0  0
   25.0362    1.0400   17.1075 C   0  0  1  0  0  0  0  0  0  0  0  0
   25.3015    2.2867   17.9755 C   0  0  0  0  0  0  0  0  0  0  0  0
   25.4530    3.6093   17.2152 C   0  0  0  0  0  0  0  0  0  0  0  0
   25.2022   -0.1710   17.8790 O   0  0  0  0  0  0  0  0  0  0  0  0
  1  2  1  1  0  0  0
  1  3  1  0  0  0  0
  1  8  1  0  0  0  0
  3  4  1  0  0  0  0
  3 32  1  1  0  0  0
  4  5  1  0  0  0  0
  4 33  1  6  0  0  0
  5  6  1  1  0  0  0
  5  7  1  0  0  0  0
  7  8  1  0  0  0  0
  7  9  1  6  0  0  0
  9 10  1  0  0  0  0
 11 12  1  1  0  0  0
 11 13  1  0  0  0  0
 11 19  1  0  0  0  0
 12 35  1  0  0  0  0
 13 14  1  0  0  0  0
 14 15  1  6  0  0  0
 14 16  1  0  0  0  0
 16  2  1  6  0  0  0
 16 17  1  0  0  0  0
 17 18  1  6  0  0  0
 17 19  1  0  0  0  0
 19 20  1  1  0  0  0
 21 20  1  1  0  0  0
 21 22  1  0  0  0  0
 21 29  1  0  0  0  0
 22 23  1  6  0  0  0
 22 24  1  0  0  0  0
 24 25  1  1  0  0  0
 24 26  1  0  0  0  0
 26 27  1  1  0  0  0
 26 28  1  0  0  0  0
 28 29  1  0  0  0  0
 28 30  1  1  0  0  0
 30 31  1  0  0  0  0
 34 39  1  0  0  0  0
 35 36  2  0  0  0  0
 37 35  1  1  0  0  0
 37 38  1  0  0  0  0
 37 40  1  0  0  0  0
 38 39  1  0  0  0  0
M  END
>  <CHROM.1>
-94.94357609,43.02241409,-118.64292635,-90.08645855,-106.81514714,-161.15422059
-150.26164163,68.03434507,-71.75646234,179.98518539,20.65039764,3.59722506
14.99747087,-2.37283888,-0.71410109,1.38553733

>  <Name>
2g5q_lig

>  <RI>
0

>  <Rbt.Current_Directory>
/home/itssahil/PROJECTS/Mol_Feturizer/New_Systems/rnas/2g5q

>  <Rbt.Executable>
rbdock ($Id: //depot/dev/client3/rdock/2013.1/src/exe/rbdock.cxx#4 $)

>  <Rbt.Library>
libRbt.so (2013.1, Build901 2013/11/27)

>  <Rbt.Parameter_File>
/export/apps/rDock/src/rDock_2013.1_src/data/scripts/dock_solv.prm

>  <Rbt.Receptor>
prm/blind_docking_80.prm

>  <SCORE>
13.5001

>  <SCORE.INTER>
-0.343025

>  <SCORE.INTER.CONST>
1

>  <SCORE.INTER.POLAR>
-1.01769

>  <SCORE.INTER.ROT>
10

>  <SCORE.INTER.SOLV>
22.4305

>  <SCORE.INTER.VDW>
-14.5799

>  <SCORE.INTER.norm>
-0.00857562

>  <SCORE.INTRA>
0.866204

>  <SCORE.INTRA.DIHEDRAL>
-0.320821

>  <SCORE.INTRA.DIHEDRAL.0>
22.5778

>  <SCORE.INTRA.POLAR>
0

>  <SCORE.INTRA.POLAR.0>
0

>  <SCORE.INTRA.REPUL>
0

>  <SCORE.INTRA.REPUL.0>
0

>  <SCORE.INTRA.SOLV>
2.50906

>  <SCORE.INTRA.SOLV.lig_0>
-102.332

>  <SCORE.INTRA.VDW>
-0.227915

>  <SCORE.INTRA.VDW.0>
-5.08747

>  <SCORE.INTRA.norm>
0.0216551

>  <SCORE.RESTR>
12.9769

>  <SCORE.RESTR.CAVITY>
12.9769

>  <SCORE.RESTR.norm>
0.324423

>  <SCORE.SYSTEM>
0

>  <SCORE.SYSTEM.CONST>
0

>  <SCORE.SYSTEM.DIHEDRAL>
0

>  <SCORE.SYSTEM.SOLV>
0

>  <SCORE.SYSTEM.norm>
0

>  <SCORE.heavy>
40

>  <SCORE.norm>
0.337502

>  <RMSD>
25.467

$$$$
2g5q_lig
 OpenBabel11021811433D
libRbt.so/2013.1/901 2013/11/27
 40 42  0  0  0  0  0  0  0  0999 V2000
   18.9924    4.7022   10.6286 C   0  0  2  0  0  0  0  0  0  0  0  0
   18.9594    3.8980   11.7870 O   0  0  0  0  0  0  0  0  0  0  0  0
   18.8617    6.1954   11.0503 C   0  0  1  0  0  0  0  0  0  0  0  0
   17.4596    6.5075   11.6589 C   0  0  2  0  0  0  0  0  0  0  0  0
   16.3915    6.1723   10.5857 C   0  0  2  0  0  0  0  0  0  0  0  0
   15.0837    6.4690   11.1014 O   0  0  0  0  0  0  0  0  0  0  0  0
   16.5244    4.6396   10.2153 C   0  0  2  0  0  0  0  0  0  0  0  0
   17.8913    4.3577    9.6910 O   0  0  0  0  0  0  0  0  0  0  0  0
   15.5243    4.2008    9.1509 C   0  0  0  0  0  0  0  0  0  0  0  0
   14.2178    4.9213    9.2766 N   0  0  0  0  0  0  0  0  0  0  0  0
   21.7663    1.6247   14.2427 C   0  0  2  0  0  0  0  0  0  0  0  0
   22.9728    1.2458   14.9684 N   0  0  0  0  0  0  0  0  0  0  0  0
   22.0928    1.8277   12.7038 C   0  0  0  0  0  0  0  0  0  0  0  0
   20.7869    2.2313   11.9124 C   0  0  2  0  0  0  0  0  0  0  0  0
   21.1042    2.4076   10.4695 N   0  0  0  0  0  0  0  0  0  0  0  0
   20.1806    3.5519   12.5340 C   0  0  2  0  0  0  0  0  0  0  0  0
   19.8731    3.3126   14.0654 C   0  0  2  0  0  0  0  0  0  0  0  0
   19.3302    4.5115   14.6274 O   0  0  0  0  0  0  0  0  0  0  0  0
   21.1914    2.9264   14.8385 C   0  0  1  0  0  0  0  0  0  0  0  0
   20.9032    2.6945   16.2462 O   0  0  0  0  0  0  0  0  0  0  0  0
   21.7766    2.0416   17.1344 C   0  0  2  0  0  0  0  0  0  0  0  0
   21.0961    2.0392   18.5451 C   0  0  2  0  0  0  0  0  0  0  0  0
   19.8803    1.3660   18.4736 O   0  0  0  0  0  0  0  0  0  0  0  0
   20.8968    3.5066   19.0833 C   0  0  1  0  0  0  0  0  0  0  0  0
   20.2495    3.5147   20.4366 N   0  0  0  0  0  0  0  0  0  0  0  0
   22.3095    4.2130   19.1337 C   0  0  2  0  0  0  0  0  0  0  0  0
   22.1936    5.5506   19.6231 O   0  0  0  0  0  0  0  0  0  0  0  0
   22.9336    4.1840   17.6976 C   0  0  2  0  0  0  0  0  0  0  0  0
   23.0545    2.7738   17.1910 O   0  0  0  0  0  0  0  0  0  0  0  0
   24.2968    4.8121   17.6707 C   0  0  0  0  0  0  0  0  0  0  0  0
   25.1470    4.2575   18.6877 O   0  0  0  0  0  0  0  0  0  0  0  0
   19.9331    6.5005   12.0079 O   0  0  0  0  0  0  0  0  0  0  0  0
   17.3950    7.8404   12.0007 O   0  0  0  0  0  0  0  0  0  0  0  0
   27.0541    2.8147   17.2758 N   0  0  0  0  0  0  0  0  0  0  0  0
   23.1009    0.1279   15.7808 C   0  0  0  0  0  0  0  0  0  0  0  0
   22.1968   -0.6740   15.9878 O   0  0  0  0  0  0  0  0  0  0  0  0
   24.5080    0.0148   16.4115 C   0  0  1  0  0  0  0  0  0  0  0  0
   25.1657    1.4075   16.4895 C   0  0  0  0  0  0  0  0  0  0  0  0
   26.4006    1.5127   17.3919 C   0  0  0  0  0  0  0  0  0  0  0  0
   24.3915   -0.5755   17.7257 O   0  0  0  0  0  0  0  0  0  0  0  0
  1  2  1  1  0  0  0
  1  3  1  0  0  0  0
  1  8  1  0  0  0  0
  3  4  1  0  0  0  0
  3 32  1  1  0  0  0
  4  5  1  0  0  0  0
  4 33  1  6  0  0  0
  5  6  1  1  0  0  0
  5  7  1  0  0  0  0
  7  8  1  0  0  0  0
  7  9  1  6  0  0  0
  9 10  1  0  0  0  0
 11 12  1  1  0  0  0
 11 13  1  0  0  0  0
 11 19  1  0  0  0  0
 12 35  1  0  0  0  0
 13 14  1  0  0  0  0
 14 15  1  6  0  0  0
 14 16  1  0  0  0  0
 16  2  1  6  0  0  0
 16 17  1  0  0  0  0
 17 18  1  1  0  0  0
 17 19  1  0  0  0  0
 19 20  1  1  0  0  0
 21 20  1  6  0  0  0
 21 22  1  0  0  0  0
 21 29  1  0  0  0  0
 22 23  1  6  0  0  0
 22 24  1  0  0  0  0
 24 25  1  1  0  0  0
 24 26  1  0  0  0  0
 26 27  1  6  0  0  0
 26 28  1  0  0  0  0
 28 29  1  0  0  0  0
 28 30  1  1  0  0  0
 30 31  1  0  0  0  0
 34 39  1  0  0  0  0
 35 36  2  0  0  0  0
 37 35  1  1  0  0  0
 37 38  1  0  0  0  0
 37 40  1  0  0  0  0
 38 39  1  0  0  0  0
M  END
>  <CHROM.1>
-89.02918987,-34.53053297,-126.18660123,-88.37111928,45.06096192,178.58965672
51.34285179,24.64390045,165.53646497,172.82204923,20.84212359,3.41286434
14.68299476,-2.61370263,-0.72817790,1.12585741

>  <Name>
2g5q_lig

>  <RI>
0

>  <Rbt.Current_Directory>
/home/itssahil/PROJECTS/Mol_Feturizer/New_Systems/rnas/2g5q

>  <Rbt.Executable>
rbdock ($Id: //depot/dev/client3/rdock/2013.1/src/exe/rbdock.cxx#4 $)

>  <Rbt.Library>
libRbt.so (2013.1, Build901 2013/11/27)

>  <Rbt.Parameter_File>
/export/apps/rDock/src/rDock_2013.1_src/data/scripts/dock_solv.prm

>  <Rbt.Receptor>
prm/blind_docking_80.prm

>  <SCORE>
12.8072

>  <SCORE.INTER>
-3.94624

>  <SCORE.INTER.CONST>
1

>  <SCORE.INTER.POLAR>
-1.33363

>  <SCORE.INTER.ROT>
10

>  <SCORE.INTER.SOLV>
19.805

>  <SCORE.INTER.VDW>
-15.0537

>  <SCORE.INTER.norm>
-0.098656

>  <SCORE.INTRA>
3.9207

>  <SCORE.INTRA.DIHEDRAL>
-8.62309

>  <SCORE.INTRA.DIHEDRAL.0>
22.5778

>  <SCORE.INTRA.POLAR>
0

>  <SCORE.INTRA.POLAR.0>
0

>  <SCORE.INTRA.REPUL>
0

>  <SCORE.INTRA.REPUL.0>
0

>  <SCORE.INTRA.SOLV>
5.88337

>  <SCORE.INTRA.SOLV.lig_0>
-102.332

>  <SCORE.INTRA.VDW>
5.29056

>  <SCORE.INTRA.VDW.0>
-5.08747

>  <SCORE.INTRA.norm>
0.0980176

>  <SCORE.RESTR>
12.8327

>  <SCORE.RESTR.CAVITY>
12.8327

>  <SCORE.RESTR.norm>
0.320818

>  <SCORE.SYSTEM>
0

>  <SCORE.SYSTEM.CONST>
0

>  <SCORE.SYSTEM.DIHEDRAL>
0

>  <SCORE.SYSTEM.SOLV>
0

>  <SCORE.SYSTEM.norm>
0

>  <SCORE.heavy>
40

>  <SCORE.norm>
0.32018

>  <RMSD>
25.530

$$$$
2g5q_lig
 OpenBabel11021811433D
libRbt.so/2013.1/901 2013/11/27
 40 42  0  0  0  0  0  0  0  0999 V2000
   19.4357    5.1954   11.3308 C   0  0  2  0  0  0  0  0  0  0  0  0
   19.7860    5.1347   12.6957 O   0  0  0  0  0  0  0  0  0  0  0  0
   19.2091    6.6846   10.9363 C   0  0  1  0  0  0  0  0  0  0  0  0
   17.9619    7.2921   11.6499 C   0  0  2  0  0  0  0  0  0  0  0  0
   16.7253    6.4498   11.2424 C   0  0  2  0  0  0  0  0  0  0  0  0
   15.5489    6.9934   11.8629 O   0  0  0  0  0  0  0  0  0  0  0  0
   16.9714    4.9546   11.6983 C   0  0  2  0  0  0  0  0  0  0  0  0
   18.2006    4.4181   11.0470 O   0  0  0  0  0  0  0  0  0  0  0  0
   15.8162    4.0285   11.3329 C   0  0  0  0  0  0  0  0  0  0  0  0
   15.3798    4.2083    9.9120 N   0  0  0  0  0  0  0  0  0  0  0  0
   21.3548    2.1633   15.4863 C   0  0  2  0  0  0  0  0  0  0  0  0
   22.1532    1.0771   16.0416 N   0  0  0  0  0  0  0  0  0  0  0  0
   20.5601    1.6622   14.2083 C   0  0  0  0  0  0  0  0  0  0  0  0
   19.6882    2.8341   13.6076 C   0  0  2  0  0  0  0  0  0  0  0  0
   18.9397    2.3484   12.4169 N   0  0  0  0  0  0  0  0  0  0  0  0
   20.6245    4.0535   13.2408 C   0  0  2  0  0  0  0  0  0  0  0  0
   21.4010    4.5209   14.5352 C   0  0  2  0  0  0  0  0  0  0  0  0
   22.2527    5.6208   14.1993 O   0  0  0  0  0  0  0  0  0  0  0  0
   22.2761    3.3419   15.1089 C   0  0  1  0  0  0  0  0  0  0  0  0
   22.9805    3.7714   16.3079 O   0  0  0  0  0  0  0  0  0  0  0  0
   22.3918    4.5150   17.3465 C   0  0  2  0  0  0  0  0  0  0  0  0
   23.5015    4.7840   18.4186 C   0  0  2  0  0  0  0  0  0  0  0  0
   24.5451    5.4985   17.8382 O   0  0  0  0  0  0  0  0  0  0  0  0
   24.0228    3.4371   19.0485 C   0  0  1  0  0  0  0  0  0  0  0  0
   25.0832    3.6846   20.0803 N   0  0  0  0  0  0  0  0  0  0  0  0
   22.7911    2.6763   19.6822 C   0  0  2  0  0  0  0  0  0  0  0  0
   23.2043    1.4449   20.2782 O   0  0  0  0  0  0  0  0  0  0  0  0
   21.7225    2.4370   18.5627 C   0  0  2  0  0  0  0  0  0  0  0  0
   21.2913    3.7368   17.9427 O   0  0  0  0  0  0  0  0  0  0  0  0
   20.5031    1.7431   19.0968 C   0  0  0  0  0  0  0  0  0  0  0  0
   19.7625    1.1050   18.0436 O   0  0  0  0  0  0  0  0  0  0  0  0
   20.4257    7.4397   11.2647 O   0  0  0  0  0  0  0  0  0  0  0  0
   17.8016    8.6022   11.2557 O   0  0  0  0  0  0  0  0  0  0  0  0
   26.0868    1.8850   17.8243 N   0  0  0  0  0  0  0  0  0  0  0  0
   23.0812    0.3237   15.3365 C   0  0  0  0  0  0  0  0  0  0  0  0
   23.3313    0.4855   14.1471 O   0  0  0  0  0  0  0  0  0  0  0  0
   23.7540   -0.7565   16.2145 C   0  0  1  0  0  0  0  0  0  0  0  0
   24.7138   -0.0947   17.2239 C   0  0  0  0  0  0  0  0  0  0  0  0
   24.9620    1.4050   17.0241 C   0  0  0  0  0  0  0  0  0  0  0  0
   22.7310   -1.5164   16.8968 O   0  0  0  0  0  0  0  0  0  0  0  0
  1  2  1  1  0  0  0
  1  3  1  0  0  0  0
  1  8  1  0  0  0  0
  3  4  1  0  0  0  0
  3 32  1  1  0  0  0
  4  5  1  0  0  0  0
  4 33  1  6  0  0  0
  5  6  1  1  0  0  0
  5  7  1  0  0  0  0
  7  8  1  0  0  0  0
  7  9  1  6  0  0  0
  9 10  1  0  0  0  0
 11 12  1  6  0  0  0
 11 13  1  0  0  0  0
 11 19  1  0  0  0  0
 12 35  1  0  0  0  0
 13 14  1  0  0  0  0
 14 15  1  6  0  0  0
 14 16  1  0  0  0  0
 16  2  1  1  0  0  0
 16 17  1  0  0  0  0
 17 18  1  6  0  0  0
 17 19  1  0  0  0  0
 19 20  1  1  0  0  0
 21 20  1  6  0  0  0
 21 22  1  0  0  0  0
 21 29  1  0  0  0  0
 22 23  1  6  0  0  0
 22 24  1  0  0  0  0
 24 25  1  1  0  0  0
 24 26  1  0  0  0  0
 26 27  1  6  0  0  0
 26 28  1  0  0  0  0
 28 29  1  0  0  0  0
 28 30  1  1  0  0  0
 30 31  1  0  0  0  0
 34 39  1  0  0  0  0
 35 36  2  0  0  0  0
 37 35  1  1  0  0  0
 37 38  1  0  0  0  0
 37 40  1  0  0  0  0
 38 39  1  0  0  0  0
M  END
>  <CHROM.1>
-151.89012708,47.50422604,54.45653256,-85.96057747,-75.06795353,-178.90256188
-159.18302004,-71.17567128,-8.65495926,-167.61420426,21.06575874,3.51116432
15.05677377,2.68995133,-0.83371246,-0.04219528

>  <Name>
2g5q_lig

>  <RI>
0

>  <Rbt.Current_Directory>
/home/itssahil/PROJECTS/Mol_Feturizer/New_Systems/rnas/2g5q

>  <Rbt.Executable>
rbdock ($Id: //depot/dev/client3/rdock/2013.1/src/exe/rbdock.cxx#4 $)

>  <Rbt.Library>
libRbt.so (2013.1, Build901 2013/11/27)

>  <Rbt.Parameter_File>
/export/apps/rDock/src/rDock_2013.1_src/data/scripts/dock_solv.prm

>  <Rbt.Receptor>
prm/blind_docking_80.prm

>  <SCORE>
25.6937

>  <SCORE.INTER>
12.5673

>  <SCORE.INTER.CONST>
1

>  <SCORE.INTER.POLAR>
0

>  <SCORE.INTER.ROT>
10

>  <SCORE.INTER.SOLV>
17.5104

>  <SCORE.INTER.VDW>
-7.72523

>  <SCORE.INTER.norm>
0.314184

>  <SCORE.INTRA>
2.00935

>  <SCORE.INTRA.DIHEDRAL>
-7.05747

>  <SCORE.INTRA.DIHEDRAL.0>
22.5778

>  <SCORE.INTRA.POLAR>
0

>  <SCORE.INTRA.POLAR.0>
0

>  <SCORE.INTRA.REPUL>
0

>  <SCORE.INTRA.REPUL.0>
0

>  <SCORE.INTRA.SOLV>
10.6506

>  <SCORE.INTRA.SOLV.lig_0>
-102.332

>  <SCORE.INTRA.VDW>
0.21279

>  <SCORE.INTRA.VDW.0>
-5.08747

>  <SCORE.INTRA.norm>
0.0502338

>  <SCORE.RESTR>
11.117

>  <SCORE.RESTR.CAVITY>
11.117

>  <SCORE.RESTR.norm>
0.277925

>  <SCORE.SYSTEM>
0

>  <SCORE.SYSTEM.CONST>
0

>  <SCORE.SYSTEM.DIHEDRAL>
0

>  <SCORE.SYSTEM.SOLV>
0

>  <SCORE.SYSTEM.norm>
0

>  <SCORE.heavy>
40

>  <SCORE.norm>
0.642343

>  <RMSD>
25.620

$$$$
2g5q_lig
 OpenBabel11021811433D
libRbt.so/2013.1/901 2013/11/27
 40 42  0  0  0  0  0  0  0  0999 V2000
   18.1207    6.3502   11.2124 C   0  0  2  0  0  0  0  0  0  0  0  0
   18.4829    5.5634   12.3256 O   0  0  0  0  0  0  0  0  0  0  0  0
   16.8864    7.2201   11.5928 C   0  0  1  0  0  0  0  0  0  0  0  0
   15.6156    6.3500   11.8408 C   0  0  2  0  0  0  0  0  0  0  0  0
   15.3183    5.5628   10.5382 C   0  0  2  0  0  0  0  0  0  0  0  0
   14.1376    4.7643   10.7190 O   0  0  0  0  0  0  0  0  0  0  0  0
   16.5738    4.6579   10.2079 C   0  0  2  0  0  0  0  0  0  0  0  0
   17.7850    5.5094   10.0332 O   0  0  0  0  0  0  0  0  0  0  0  0
   16.3954    3.8447    8.9302 C   0  0  0  0  0  0  0  0  0  0  0  0
   15.4469    4.5002    7.9750 N   0  0  0  0  0  0  0  0  0  0  0  0
   21.6729    2.7620   13.3520 C   0  0  2  0  0  0  0  0  0  0  0  0
   22.9976    2.1692   13.4920 N   0  0  0  0  0  0  0  0  0  0  0  0
   21.3423    3.0110   11.8208 C   0  0  0  0  0  0  0  0  0  0  0  0
   19.9049    3.6466   11.6642 C   0  0  2  0  0  0  0  0  0  0  0  0
   19.6027    3.8647   10.2237 N   0  0  0  0  0  0  0  0  0  0  0  0
   19.8349    4.9995   12.4783 C   0  0  2  0  0  0  0  0  0  0  0  0
   20.1736    4.7123   13.9947 C   0  0  2  0  0  0  0  0  0  0  0  0
   20.1158    5.9396   14.7285 O   0  0  0  0  0  0  0  0  0  0  0  0
   21.6171    4.0933   14.1295 C   0  0  1  0  0  0  0  0  0  0  0  0
   21.9216    3.8183   15.5259 O   0  0  0  0  0  0  0  0  0  0  0  0
   21.9387    4.7948   16.5380 C   0  0  2  0  0  0  0  0  0  0  0  0
   23.0787    4.4113   17.5412 C   0  0  2  0  0  0  0  0  0  0  0  0
   24.2978    4.3827   16.8706 O   0  0  0  0  0  0  0  0  0  0  0  0
   22.7847    3.0275   18.2349 C   0  0  1  0  0  0  0  0  0  0  0  0
   23.8692    2.6534   19.2014 N   0  0  0  0  0  0  0  0  0  0  0  0
   21.3892    3.1274   18.9698 C   0  0  2  0  0  0  0  0  0  0  0  0
   21.0700    1.8991   19.6268 O   0  0  0  0  0  0  0  0  0  0  0  0
   20.2962    3.5103   17.9156 C   0  0  2  0  0  0  0  0  0  0  0  0
   20.6379    4.8043   17.2309 O   0  0  0  0  0  0  0  0  0  0  0  0
   18.9416    3.6551   18.5463 C   0  0  0  0  0  0  0  0  0  0  0  0
   18.9877    4.5280   19.6868 O   0  0  0  0  0  0  0  0  0  0  0  0
   17.2271    8.0093   12.7842 O   0  0  0  0  0  0  0  0  0  0  0  0
   14.5548    7.1689   12.1596 O   0  0  0  0  0  0  0  0  0  0  0  0
   26.9856    2.4742   17.4230 N   0  0  0  0  0  0  0  0  0  0  0  0
   23.4831    1.5547   14.6378 C   0  0  0  0  0  0  0  0  0  0  0  0
   22.8443    1.4470   15.6788 O   0  0  0  0  0  0  0  0  0  0  0  0
   24.9285    1.0350   14.4614 C   0  0  1  0  0  0  0  0  0  0  0  0
   25.6859    1.1143   15.8024 C   0  0  0  0  0  0  0  0  0  0  0  0
   26.1470    2.5135   16.2267 C   0  0  0  0  0  0  0  0  0  0  0  0
   24.8861   -0.3244   13.9721 O   0  0  0  0  0  0  0  0  0  0  0  0
  1  2  1  1  0  0  0
  1  3  1  0  0  0  0
  1  8  1  0  0  0  0
  3  4  1  0  0  0  0
  3 32  1  1  0  0  0
  4  5  1  0  0  0  0
  4 33  1  6  0  0  0
  5  6  1  1  0  0  0
  5  7  1  0  0  0  0
  7  8  1  0  0  0  0
  7  9  1  6  0  0  0
  9 10  1  0  0  0  0
 11 12  1  6  0  0  0
 11 13  1  0  0  0  0
 11 19  1  0  0  0  0
 12 35  1  0  0  0  0
 13 14  1  0  0  0  0
 14 15  1  6  0  0  0
 14 16  1  0  0  0  0
 16  2  1  1  0  0  0
 16 17  1  0  0  0  0
 17 18  1  1  0  0  0
 17 19  1  0  0  0  0
 19 20  1  1  0  0  0
 21 20  1  6  0  0  0
 21 22  1  0  0  0  0
 21 29  1  0  0  0  0
 22 23  1  6  0  0  0
 22 24  1  0  0  0  0
 24 25  1  1  0  0  0
 24 26  1  0  0  0  0
 26 27  1  6  0  0  0
 26 28  1  0  0  0  0
 28 29  1  0  0  0  0
 28 30  1  1  0  0  0
 30 31  1  0  0  0  0
 34 39  1  0  0  0  0
 35 36  2  0  0  0  0
 37 35  1  1  0  0  0
 37 38  1  0  0  0  0
 37 40  1  0  0  0  0
 38 39  1  0  0  0  0
M  END
>  <CHROM.1>
-158.24463731,26.48814241,-164.89896028,-83.94025190,-178.79918967,-144.76598872
51.16994114,147.97012722,-75.87710084,-173.37400470,20.42015992,3.99528311
14.28300604,-2.53680534,-0.50492050,1.41349196

>  <Name>
2g5q_lig

>  <RI>
0

>  <Rbt.Current_Directory>
/home/itssahil/PROJECTS/Mol_Feturizer/New_Systems/rnas/2g5q

>  <Rbt.Executable>
rbdock ($Id: //depot/dev/client3/rdock/2013.1/src/exe/rbdock.cxx#4 $)

>  <Rbt.Library>
libRbt.so (2013.1, Build901 2013/11/27)

>  <Rbt.Parameter_File>
/export/apps/rDock/src/rDock_2013.1_src/data/scripts/dock_solv.prm

>  <Rbt.Receptor>
prm/blind_docking_80.prm

>  <SCORE>
24.8397

>  <SCORE.INTER>
6.48157

>  <SCORE.INTER.CONST>
1

>  <SCORE.INTER.POLAR>
-0.894438

>  <SCORE.INTER.ROT>
10

>  <SCORE.INTER.SOLV>
17.6666

>  <SCORE.INTER.VDW>
-8.85302

>  <SCORE.INTER.norm>
0.162039

>  <SCORE.INTRA>
1.79252

>  <SCORE.INTRA.DIHEDRAL>
-7.16849

>  <SCORE.INTRA.DIHEDRAL.0>
22.5778

>  <SCORE.INTRA.POLAR>
0

>  <SCORE.INTRA.POLAR.0>
0

>  <SCORE.INTRA.REPUL>
0

>  <SCORE.INTRA.REPUL.0>
0

>  <SCORE.INTRA.SOLV>
8.62291

>  <SCORE.INTRA.SOLV.lig_0>
-102.332

>  <SCORE.INTRA.VDW>
1.06531

>  <SCORE.INTRA.VDW.0>
-5.08747

>  <SCORE.INTRA.norm>
0.044813

>  <SCORE.RESTR>
16.5656

>  <SCORE.RESTR.CAVITY>
16.5656

>  <SCORE.RESTR.norm>
0.414141

>  <SCORE.SYSTEM>
0

>  <SCORE.SYSTEM.CONST>
0

>  <SCORE.SYSTEM.DIHEDRAL>
0

>  <SCORE.SYSTEM.SOLV>
0

>  <SCORE.SYSTEM.norm>
0

>  <SCORE.heavy>
40

>  <SCORE.norm>
0.620993

>  <RMSD>
25.644

$$$$
2g5q_lig
 OpenBabel11021811433D
libRbt.so/2013.1/901 2013/11/27
 40 42  0  0  0  0  0  0  0  0999 V2000
   23.7782    1.4221   18.5766 C   0  0  2  0  0  0  0  0  0  0  0  0
   23.5659    1.4448   17.1824 O   0  0  0  0  0  0  0  0  0  0  0  0
   23.5100    2.8454   19.1486 C   0  0  1  0  0  0  0  0  0  0  0  0
   24.5621    3.8820   18.6465 C   0  0  2  0  0  0  0  0  0  0  0  0
   25.9627    3.3929   19.0982 C   0  0  2  0  0  0  0  0  0  0  0  0
   26.9601    4.3357   18.6734 O   0  0  0  0  0  0  0  0  0  0  0  0
   26.2188    1.9665   18.4627 C   0  0  2  0  0  0  0  0  0  0  0  0
   25.1668    1.0107   18.9127 O   0  0  0  0  0  0  0  0  0  0  0  0
   27.5708    1.3799   18.8549 C   0  0  0  0  0  0  0  0  0  0  0  0
   28.7102    2.2234   18.3732 N   0  0  0  0  0  0  0  0  0  0  0  0
   20.7731    2.9162   14.1637 C   0  0  2  0  0  0  0  0  0  0  0  0
   19.5731    3.4658   13.5442 N   0  0  0  0  0  0  0  0  0  0  0  0
   20.4288    1.5689   14.9267 C   0  0  0  0  0  0  0  0  0  0  0  0
   21.7276    0.9663   15.5933 C   0  0  2  0  0  0  0  0  0  0  0  0
   21.3935   -0.3021   16.2958 N   0  0  0  0  0  0  0  0  0  0  0  0
   22.3517    2.0266   16.5855 C   0  0  2  0  0  0  0  0  0  0  0  0
   22.6767    3.3536   15.7916 C   0  0  2  0  0  0  0  0  0  0  0  0
   23.2357    4.3142   16.6931 O   0  0  0  0  0  0  0  0  0  0  0  0
   21.3653    3.9461   15.1479 C   0  0  1  0  0  0  0  0  0  0  0  0
   21.6695    5.1614   14.4072 O   0  0  0  0  0  0  0  0  0  0  0  0
   22.8293    5.3456   13.6332 C   0  0  2  0  0  0  0  0  0  0  0  0
   22.5028    6.4270   12.5482 C   0  0  2  0  0  0  0  0  0  0  0  0
   22.1390    7.6164   13.1721 O   0  0  0  0  0  0  0  0  0  0  0  0
   21.3676    5.9315   11.5744 C   0  0  1  0  0  0  0  0  0  0  0  0
   21.0507    6.9589   10.5283 N   0  0  0  0  0  0  0  0  0  0  0  0
   21.8414    4.5798   10.9067 C   0  0  2  0  0  0  0  0  0  0  0  0
   20.8518    4.0831   10.0033 O   0  0  0  0  0  0  0  0  0  0  0  0
   22.1489    3.5440   12.0404 C   0  0  2  0  0  0  0  0  0  0  0  0
   23.1922    4.0728   12.9848 O   0  0  0  0  0  0  0  0  0  0  0  0
   22.6369    2.2382   11.4834 C   0  0  0  0  0  0  0  0  0  0  0  0
   23.5828    2.4447   10.4217 O   0  0  0  0  0  0  0  0  0  0  0  0
   22.1491    3.2471   18.7681 O   0  0  0  0  0  0  0  0  0  0  0  0
   24.2856    5.1162   19.1919 O   0  0  0  0  0  0  0  0  0  0  0  0
   17.3376    7.7638   11.6320 N   0  0  0  0  0  0  0  0  0  0  0  0
   19.1291    3.1754   12.2618 C   0  0  0  0  0  0  0  0  0  0  0  0
   19.7100    2.4180   11.4923 O   0  0  0  0  0  0  0  0  0  0  0  0
   17.8267    3.9278   11.9037 C   0  0  1  0  0  0  0  0  0  0  0  0
   18.1346    5.4124   11.6217 C   0  0  0  0  0  0  0  0  0  0  0  0
   16.9301    6.3604   11.6482 C   0  0  0  0  0  0  0  0  0  0  0  0
   17.2181    3.2992   10.7532 O   0  0  0  0  0  0  0  0  0  0  0  0
  1  2  1  6  0  0  0
  1  3  1  0  0  0  0
  1  8  1  0  0  0  0
  3  4  1  0  0  0  0
  3 32  1  6  0  0  0
  4  5  1  0  0  0  0
  4 33  1  1  0  0  0
  5  6  1  6  0  0  0
  5  7  1  0  0  0  0
  7  8  1  0  0  0  0
  7  9  1  1  0  0  0
  9 10  1  0  0  0  0
 11 12  1  1  0  0  0
 11 13  1  0  0  0  0
 11 19  1  0  0  0  0
 12 35  1  0  0  0  0
 13 14  1  0  0  0  0
 14 15  1  1  0  0  0
 14 16  1  0  0  0  0
 16  2  1  6  0  0  0
 16 17  1  0  0  0  0
 17 18  1  1  0  0  0
 17 19  1  0  0  0  0
 19 20  1  6  0  0  0
 21 20  1  1  0  0  0
 21 22  1  0  0  0  0
 21 29  1  0  0  0  0
 22 23  1  1  0  0  0
 22 24  1  0  0  0  0
 24 25  1  6  0  0  0
 24 26  1  0  0  0  0
 26 27  1  6  0  0  0
 26 28  1  0  0  0  0
 28 29  1  0  0  0  0
 28 30  1  6  0  0  0
 30 31  1  0  0  0  0
 34 39  1  0  0  0  0
 35 36  2  0  0  0  0
 37 35  1  6  0  0  0
 37 38  1  0  0  0  0
 37 40  1  0  0  0  0
 38 39  1  0  0  0  0
M  END
>  <CHROM.1>
-49.07504278,-62.05082933,-89.82835198,-128.61179086,-80.99536848,155.31849124
42.77656901,74.83757572,-163.17413923,168.87493827,22.21932094,3.64120067
14.69017783,0.69187253,0.64200650,2.51607216

>  <Name>
2g5q_lig

>  <RI>
0

>  <Rbt.Current_Directory>
/home/itssahil/PROJECTS/Mol_Feturizer/New_Systems/rnas/2g5q

>  <Rbt.Executable>
rbdock ($Id: //depot/dev/client3/rdock/2013.1/src/exe/rbdock.cxx#4 $)

>  <Rbt.Library>
libRbt.so (2013.1, Build901 2013/11/27)

>  <Rbt.Parameter_File>
/export/apps/rDock/src/rDock_2013.1_src/data/scripts/dock_solv.prm

>  <Rbt.Receptor>
prm/blind_docking_80.prm

>  <SCORE>
32.5834

>  <SCORE.INTER>
7.08996

>  <SCORE.INTER.CONST>
1

>  <SCORE.INTER.POLAR>
-0.711398

>  <SCORE.INTER.ROT>
10

>  <SCORE.INTER.SOLV>
26.4694

>  <SCORE.INTER.VDW>
-11.9918

>  <SCORE.INTER.norm>
0.177249

>  <SCORE.INTRA>
9.3814

>  <SCORE.INTRA.DIHEDRAL>
-6.53927

>  <SCORE.INTRA.DIHEDRAL.0>
22.5778

>  <SCORE.INTRA.POLAR>
0

>  <SCORE.INTRA.POLAR.0>
0

>  <SCORE.INTRA.REPUL>
0

>  <SCORE.INTRA.REPUL.0>
0

>  <SCORE.INTRA.SOLV>
6.23985

>  <SCORE.INTRA.SOLV.lig_0>
-102.332

>  <SCORE.INTRA.VDW>
9.53111

>  <SCORE.INTRA.VDW.0>
-5.08747

>  <SCORE.INTRA.norm>
0.234535

>  <SCORE.RESTR>
16.112

>  <SCORE.RESTR.CAVITY>
16.112

>  <SCORE.RESTR.norm>
0.4028

>  <SCORE.SYSTEM>
0

>  <SCORE.SYSTEM.CONST>
0

>  <SCORE.SYSTEM.DIHEDRAL>
0

>  <SCORE.SYSTEM.SOLV>
0

>  <SCORE.SYSTEM.norm>
0

>  <SCORE.heavy>
40

>  <SCORE.norm>
0.814584

>  <RMSD>
25.650

$$$$
2g5q_lig
 OpenBabel11021811433D
libRbt.so/2013.1/901 2013/11/27
 40 42  0  0  0  0  0  0  0  0999 V2000
   20.0876    6.1981   11.5505 C   0  0  2  0  0  0  0  0  0  0  0  0
   19.9887    6.2493   12.9566 O   0  0  0  0  0  0  0  0  0  0  0  0
   18.7278    6.6421   10.9351 C   0  0  1  0  0  0  0  0  0  0  0  0
   17.5877    5.6242   11.2478 C   0  0  2  0  0  0  0  0  0  0  0  0
   18.0036    4.2509   10.6597 C   0  0  2  0  0  0  0  0  0  0  0  0
   16.9658    3.2887   10.9077 O   0  0  0  0  0  0  0  0  0  0  0  0
   19.3632    3.8113   11.3397 C   0  0  2  0  0  0  0  0  0  0  0  0
   20.4194    4.8295   11.0741 O   0  0  0  0  0  0  0  0  0  0  0  0
   19.8758    2.4716   10.8220 C   0  0  0  0  0  0  0  0  0  0  0  0
   21.3326    2.2786   11.1090 N   0  0  0  0  0  0  0  0  0  0  0  0
   22.7093    3.8822   15.4210 C   0  0  2  0  0  0  0  0  0  0  0  0
   23.8366    3.5130   16.2686 N   0  0  0  0  0  0  0  0  0  0  0  0
   23.2282    4.4307   14.0261 C   0  0  0  0  0  0  0  0  0  0  0  0
   22.0098    4.8253   13.1018 C   0  0  2  0  0  0  0  0  0  0  0  0
   22.5095    5.3273   11.7933 N   0  0  0  0  0  0  0  0  0  0  0  0
   21.1223    5.9093   13.8333 C   0  0  2  0  0  0  0  0  0  0  0  0
   20.6285    5.3293   15.2178 C   0  0  2  0  0  0  0  0  0  0  0  0
   19.8305    6.3148   15.8811 O   0  0  0  0  0  0  0  0  0  0  0  0
   21.8592    4.9569   16.1298 C   0  0  1  0  0  0  0  0  0  0  0  0
   21.4017    4.4116   17.3993 O   0  0  0  0  0  0  0  0  0  0  0  0
   20.0691    4.0533   17.6710 C   0  0  2  0  0  0  0  0  0  0  0  0
   20.0664    3.2319   19.0047 C   0  0  2  0  0  0  0  0  0  0  0  0
   20.5803    4.0149   20.0339 O   0  0  0  0  0  0  0  0  0  0  0  0
   20.8855    1.8947   18.8512 C   0  0  1  0  0  0  0  0  0  0  0  0
   20.8850    1.0985   20.1225 N   0  0  0  0  0  0  0  0  0  0  0  0
   20.2552    1.0597   17.6668 C   0  0  2  0  0  0  0  0  0  0  0  0
   20.9543   -0.1730   17.4835 O   0  0  0  0  0  0  0  0  0  0  0  0
   20.2894    1.9328   16.3671 C   0  0  2  0  0  0  0  0  0  0  0  0
   19.5499    3.2262   16.5672 O   0  0  0  0  0  0  0  0  0  0  0  0
   19.6763    1.2160   15.1992 C   0  0  0  0  0  0  0  0  0  0  0  0
   20.4092    0.0230   14.8760 O   0  0  0  0  0  0  0  0  0  0  0  0
   18.4006    7.9774   11.4528 O   0  0  0  0  0  0  0  0  0  0  0  0
   16.4149    6.0584   10.6705 O   0  0  0  0  0  0  0  0  0  0  0  0
   25.3307    5.3153   17.9835 N   0  0  0  0  0  0  0  0  0  0  0  0
   24.0976    2.2348   16.7423 C   0  0  0  0  0  0  0  0  0  0  0  0
   23.3936    1.2600   16.5028 O   0  0  0  0  0  0  0  0  0  0  0  0
   25.3680    2.1793   17.6218 C   0  0  1  0  0  0  0  0  0  0  0  0
   25.1616    3.0146   18.9016 C   0  0  0  0  0  0  0  0  0  0  0  0
   25.8885    4.3638   18.9424 C   0  0  0  0  0  0  0  0  0  0  0  0
   25.6591    0.8012   17.9461 O   0  0  0  0  0  0  0  0  0  0  0  0
  1  2  1  1  0  0  0
  1  3  1  0  0  0  0
  1  8  1  0  0  0  0
  3  4  1  0  0  0  0
  3 32  1  1  0  0  0
  4  5  1  0  0  0  0
  4 33  1  6  0  0  0
  5  6  1  1  0  0  0
  5  7  1  0  0  0  0
  7  8  1  0  0  0  0
  7  9  1  6  0  0  0
  9 10  1  0  0  0  0
 11 12  1  1  0  0  0
 11 13  1  0  0  0  0
 11 19  1  0  0  0  0
 12 35  1  0  0  0  0
 13 14  1  0  0  0  0
 14 15  1  6  0  0  0
 14 16  1  0  0  0  0
 16  2  1  6  0  0  0
 16 17  1  0  0  0  0
 17 18  1  1  0  0  0
 17 19  1  0  0  0  0
 19 20  1  1  0  0  0
 21 20  1  6  0  0  0
 21 22  1  0  0  0  0
 21 29  1  0  0  0  0
 22 23  1  1  0  0  0
 22 24  1  0  0  0  0
 24 25  1  1  0  0  0
 24 26  1  0  0  0  0
 26 27  1  6  0  0  0
 26 28  1  0  0  0  0
 28 29  1  0  0  0  0
 28 30  1  6  0  0  0
 30 31  1  0  0  0  0
 34 39  1  0  0  0  0
 35 36  2  0  0  0  0
 37 35  1  6  0  0  0
 37 38  1  0  0  0  0
 37 40  1  0  0  0  0
 38 39  1  0  0  0  0
M  END
>  <CHROM.1>
-178.89379048,161.15724456,-117.80756290,-30.49452297,-109.13708874,167.77258623
-62.50382275,64.66495971,-105.35441053,68.65421262,21.08870858,3.72694640
15.05168521,-2.17309522,0.48058493,2.26533438

>  <Name>
2g5q_lig

>  <RI>
0

>  <Rbt.Current_Directory>
/home/itssahil/PROJECTS/Mol_Feturizer/New_Systems/rnas/2g5q

>  <Rbt.Executable>
rbdock ($Id: //depot/dev/client3/rdock/2013.1/src/exe/rbdock.cxx#4 $)

>  <Rbt.Library>
libRbt.so (2013.1, Build901 2013/11/27)

>  <Rbt.Parameter_File>
/export/apps/rDock/src/rDock_2013.1_src/data/scripts/dock_solv.prm

>  <Rbt.Receptor>
prm/blind_docking_80.prm

>  <SCORE>
29.3632

>  <SCORE.INTER>
10.2922

>  <SCORE.INTER.CONST>
1

>  <SCORE.INTER.POLAR>
-1.28931

>  <SCORE.INTER.ROT>
10

>  <SCORE.INTER.SOLV>
26.4034

>  <SCORE.INTER.VDW>
-7.90863

>  <SCORE.INTER.norm>
0.257305

>  <SCORE.INTRA>
8.4333

>  <SCORE.INTRA.DIHEDRAL>
-3.79972

>  <SCORE.INTRA.DIHEDRAL.0>
22.5778

>  <SCORE.INTRA.POLAR>
0

>  <SCORE.INTRA.POLAR.0>
0

>  <SCORE.INTRA.REPUL>
0

>  <SCORE.INTRA.REPUL.0>
0

>  <SCORE.INTRA.SOLV>
10.0006

>  <SCORE.INTRA.SOLV.lig_0>
-102.332

>  <SCORE.INTRA.VDW>
5.33288

>  <SCORE.INTRA.VDW.0>
-5.08747

>  <SCORE.INTRA.norm>
0.210833

>  <SCORE.RESTR>
10.6377

>  <SCORE.RESTR.CAVITY>
10.6377

>  <SCORE.RESTR.norm>
0.265942

>  <SCORE.SYSTEM>
0

>  <SCORE.SYSTEM.CONST>
0

>  <SCORE.SYSTEM.DIHEDRAL>
0

>  <SCORE.SYSTEM.SOLV>
0

>  <SCORE.SYSTEM.norm>
0

>  <SCORE.heavy>
40

>  <SCORE.norm>
0.73408

>  <RMSD>
25.719

$$$$
2g5q_lig
 OpenBabel11021811433D
libRbt.so/2013.1/901 2013/11/27
 40 42  0  0  0  0  0  0  0  0999 V2000
   19.2464    6.1753   10.9788 C   0  0  2  0  0  0  0  0  0  0  0  0
   19.1760    6.6112   12.3184 O   0  0  0  0  0  0  0  0  0  0  0  0
   17.8002    6.0477   10.4157 C   0  0  1  0  0  0  0  0  0  0  0  0
   17.0008    4.9072   11.1183 C   0  0  2  0  0  0  0  0  0  0  0  0
   17.7692    3.5796   10.8902 C   0  0  2  0  0  0  0  0  0  0  0  0
   17.0505    2.4977   11.5045 O   0  0  0  0  0  0  0  0  0  0  0  0
   19.2157    3.7302   11.5138 C   0  0  2  0  0  0  0  0  0  0  0  0
   19.9358    4.8631   10.8652 O   0  0  0  0  0  0  0  0  0  0  0  0
   20.0693    2.4794   11.3334 C   0  0  0  0  0  0  0  0  0  0  0  0
   21.0671    2.6349   10.2279 N   0  0  0  0  0  0  0  0  0  0  0  0
   22.4440    4.7894   14.5720 C   0  0  2  0  0  0  0  0  0  0  0  0
   23.5863    4.6325   15.4642 N   0  0  0  0  0  0  0  0  0  0  0  0
   22.7973    5.7990   13.4007 C   0  0  0  0  0  0  0  0  0  0  0  0
   21.5647    5.9664   12.4275 C   0  0  2  0  0  0  0  0  0  0  0  0
   21.9126    6.9065   11.3279 N   0  0  0  0  0  0  0  0  0  0  0  0
   20.3122    6.4761   13.2457 C   0  0  2  0  0  0  0  0  0  0  0  0
   19.9942    5.4489   14.4036 C   0  0  2  0  0  0  0  0  0  0  0  0
   18.8638    5.9156   15.1469 O   0  0  0  0  0  0  0  0  0  0  0  0
   21.2308    5.3087   15.3711 C   0  0  1  0  0  0  0  0  0  0  0  0
   20.9397    4.3529   16.4294 O   0  0  0  0  0  0  0  0  0  0  0  0
   19.7516    3.6048   16.5136 C   0  0  2  0  0  0  0  0  0  0  0  0
   19.7174    2.9359   17.9294 C   0  0  2  0  0  0  0  0  0  0  0  0
   19.7429    3.9225   18.9104 O   0  0  0  0  0  0  0  0  0  0  0  0
   20.9153    1.9287   18.1122 C   0  0  1  0  0  0  0  0  0  0  0  0
   20.8886    1.2792   19.4641 N   0  0  0  0  0  0  0  0  0  0  0  0
   20.8299    0.8429   16.9671 C   0  0  2  0  0  0  0  0  0  0  0  0
   21.8909   -0.1070   17.0851 O   0  0  0  0  0  0  0  0  0  0  0  0
   20.8707    1.5735   15.5824 C   0  0  2  0  0  0  0  0  0  0  0  0
   19.7503    2.5689   15.4652 O   0  0  0  0  0  0  0  0  0  0  0  0
   20.7621    0.6061   14.4397 C   0  0  0  0  0  0  0  0  0  0  0  0
   19.5502   -0.1620   14.5196 O   0  0  0  0  0  0  0  0  0  0  0  0
   17.1257    7.3427   10.5773 O   0  0  0  0  0  0  0  0  0  0  0  0
   15.7378    4.8305   10.5739 O   0  0  0  0  0  0  0  0  0  0  0  0
   27.9946    3.9923   16.4127 N   0  0  0  0  0  0  0  0  0  0  0  0
   23.7294    3.6301   16.4134 C   0  0  0  0  0  0  0  0  0  0  0  0
   22.8942    2.7555   16.6153 O   0  0  0  0  0  0  0  0  0  0  0  0
   25.0541    3.7486   17.2018 C   0  0  1  0  0  0  0  0  0  0  0  0
   25.9943    2.5830   16.8337 C   0  0  0  0  0  0  0  0  0  0  0  0
   27.4842    2.8144   17.1111 C   0  0  0  0  0  0  0  0  0  0  0  0
   25.6696    5.0221   16.9040 O   0  0  0  0  0  0  0  0  0  0  0  0
  1  2  1  1  0  0  0
  1  3  1  0  0  0  0
  1  8  1  0  0  0  0
  3  4  1  0  0  0  0
  3 32  1  1  0  0  0
  4  5  1  0  0  0  0
  4 33  1  6  0  0  0
  5  6  1  1  0  0  0
  5  7  1  0  0  0  0
  7  8  1  0  0  0  0
  7  9  1  6  0  0  0
  9 10  1  0  0  0  0
 11 12  1  1  0  0  0
 11 13  1  0  0  0  0
 11 19  1  0  0  0  0
 12 35  1  0  0  0  0
 13 14  1  0  0  0  0
 14 15  1  6  0  0  0
 14 16  1  0  0  0  0
 16  2  1  6  0  0  0
 16 17  1  0  0  0  0
 17 18  1  1  0  0  0
 17 19  1  0  0  0  0
 19 20  1  1  0  0  0
 21 20  1  1  0  0  0
 21 22  1  0  0  0  0
 21 29  1  0  0  0  0
 22 23  1  1  0  0  0
 22 24  1  0  0  0  0
 24 25  1  1  0  0  0
 24 26  1  0  0  0  0
 26 27  1  6  0  0  0
 26 28  1  0  0  0  0
 28 29  1  0  0  0  0
 28 30  1  6  0  0  0
 30 31  1  0  0  0  0
 34 39  1  0  0  0  0
 35 36  2  0  0  0  0
 37 35  1  6  0  0  0
 37 38  1  0  0  0  0
 37 40  1  0  0  0  0
 38 39  1  0  0  0  0
M  END
>  <CHROM.1>
162.60941638,102.35625743,-165.57757755,6.99769750,-115.67284633,-168.62614124
58.28100437,-111.25361222,158.57619408,-57.76125508,20.91961399,3.86295006
14.41192233,-2.36099271,0.36389830,2.27665035

>  <Name>
2g5q_lig

>  <RI>
0

>  <Rbt.Current_Directory>
/home/itssahil/PROJECTS/Mol_Feturizer/New_Systems/rnas/2g5q

>  <Rbt.Executable>
rbdock ($Id: //depot/dev/client3/rdock/2013.1/src/exe/rbdock.cxx#4 $)

>  <Rbt.Library>
libRbt.so (2013.1, Build901 2013/11/27)

>  <Rbt.Parameter_File>
/export/apps/rDock/src/rDock_2013.1_src/data/scripts/dock_solv.prm

>  <Rbt.Receptor>
prm/blind_docking_80.prm

>  <SCORE>
58.5946

>  <SCORE.INTER>
35.7384

>  <SCORE.INTER.CONST>
1

>  <SCORE.INTER.POLAR>
-1.14455

>  <SCORE.INTER.ROT>
10

>  <SCORE.INTER.SOLV>
30.2092

>  <SCORE.INTER.VDW>
7.30437

>  <SCORE.INTER.norm>
0.89346

>  <SCORE.INTRA>
11.0926

>  <SCORE.INTRA.DIHEDRAL>
1.7399

>  <SCORE.INTRA.DIHEDRAL.0>
22.5778

>  <SCORE.INTRA.POLAR>
0

>  <SCORE.INTRA.POLAR.0>
0

>  <SCORE.INTRA.REPUL>
0

>  <SCORE.INTRA.REPUL.0>
0

>  <SCORE.INTRA.SOLV>
6.93048

>  <SCORE.INTRA.SOLV.lig_0>
-102.332

>  <SCORE.INTRA.VDW>
6.75743

>  <SCORE.INTRA.VDW.0>
-5.08747

>  <SCORE.INTRA.norm>
0.277316

>  <SCORE.RESTR>
11.7635

>  <SCORE.RESTR.CAVITY>
11.7635

>  <SCORE.RESTR.norm>
0.294088

>  <SCORE.SYSTEM>
0

>  <SCORE.SYSTEM.CONST>
0

>  <SCORE.SYSTEM.DIHEDRAL>
0

>  <SCORE.SYSTEM.SOLV>
0

>  <SCORE.SYSTEM.norm>
0

>  <SCORE.heavy>
40

>  <SCORE.norm>
1.46486

>  <RMSD>
25.731

$$$$
2g5q_lig
 OpenBabel11021811433D
libRbt.so/2013.1/901 2013/11/27
 40 42  0  0  0  0  0  0  0  0999 V2000
   19.5906    5.2572   11.4077 C   0  0  2  0  0  0  0  0  0  0  0  0
   19.7195    5.2149   12.8117 O   0  0  0  0  0  0  0  0  0  0  0  0
   19.3460    6.7315   10.9702 C   0  0  1  0  0  0  0  0  0  0  0  0
   17.9677    7.2654   11.4691 C   0  0  2  0  0  0  0  0  0  0  0  0
   16.8628    6.3539   10.8748 C   0  0  2  0  0  0  0  0  0  0  0  0
   15.5728    6.8282   11.2938 O   0  0  0  0  0  0  0  0  0  0  0  0
   17.1170    4.8747   11.3762 C   0  0  2  0  0  0  0  0  0  0  0  0
   18.4635    4.4106   10.9353 O   0  0  0  0  0  0  0  0  0  0  0  0
   16.0903    3.8843   10.8372 C   0  0  0  0  0  0  0  0  0  0  0  0
   16.4305    2.4711   11.1965 N   0  0  0  0  0  0  0  0  0  0  0  0
   22.0184    2.7056   15.5494 C   0  0  2  0  0  0  0  0  0  0  0  0
   23.1420    2.0465   16.2044 N   0  0  0  0  0  0  0  0  0  0  0  0
   21.9699    2.3106   14.0140 C   0  0  0  0  0  0  0  0  0  0  0  0
   20.7496    3.0168   13.3021 C   0  0  2  0  0  0  0  0  0  0  0  0
   20.7088    2.6295   11.8660 N   0  0  0  0  0  0  0  0  0  0  0  0
   20.8742    4.5831   13.4725 C   0  0  2  0  0  0  0  0  0  0  0  0
   20.9240    4.9367   15.0118 C   0  0  2  0  0  0  0  0  0  0  0  0
   21.0431    6.3547   15.1634 O   0  0  0  0  0  0  0  0  0  0  0  0
   22.1569    4.2348   15.6990 C   0  0  1  0  0  0  0  0  0  0  0  0
   22.1932    4.5521   17.1189 O   0  0  0  0  0  0  0  0  0  0  0  0
   21.0513    4.6736   17.9309 C   0  0  2  0  0  0  0  0  0  0  0  0
   21.5403    4.9959   19.3836 C   0  0  2  0  0  0  0  0  0  0  0  0
   22.2631    6.1850   19.3776 O   0  0  0  0  0  0  0  0  0  0  0  0
   22.4035    3.8148   19.9687 C   0  0  1  0  0  0  0  0  0  0  0  0
   22.8729    4.1122   21.3621 N   0  0  0  0  0  0  0  0  0  0  0  0
   21.5282    2.4993   19.9411 C   0  0  2  0  0  0  0  0  0  0  0  0
   22.2582    1.3900   20.4690 O   0  0  0  0  0  0  0  0  0  0  0  0
   21.0742    2.2326   18.4662 C   0  0  2  0  0  0  0  0  0  0  0  0
   20.3050    3.4027   17.9193 O   0  0  0  0  0  0  0  0  0  0  0  0
   20.2084    1.0106   18.3630 C   0  0  0  0  0  0  0  0  0  0  0  0
   20.2635    0.4420   17.0445 O   0  0  0  0  0  0  0  0  0  0  0  0
   20.4489    7.5548   11.4838 O   0  0  0  0  0  0  0  0  0  0  0  0
   17.7986    8.5646   11.0439 O   0  0  0  0  0  0  0  0  0  0  0  0
   26.8185    3.4739   16.7394 N   0  0  0  0  0  0  0  0  0  0  0  0
   23.3126    0.6735   16.3130 C   0  0  0  0  0  0  0  0  0  0  0  0
   22.5208   -0.1510   15.8696 O   0  0  0  0  0  0  0  0  0  0  0  0
   24.6062    0.2977   17.0719 C   0  0  1  0  0  0  0  0  0  0  0  0
   25.7582    1.2307   16.6470 C   0  0  0  0  0  0  0  0  0  0  0  0
   25.7354    2.6383   17.2539 C   0  0  0  0  0  0  0  0  0  0  0  0
   24.3644    0.3907   18.4940 O   0  0  0  0  0  0  0  0  0  0  0  0
  1  2  1  1  0  0  0
  1  3  1  0  0  0  0
  1  8  1  0  0  0  0
  3  4  1  0  0  0  0
  3 32  1  1  0  0  0
  4  5  1  0  0  0  0
  4 33  1  6  0  0  0
  5  6  1  1  0  0  0
  5  7  1  0  0  0  0
  7  8  1  0  0  0  0
  7  9  1  6  0  0  0
  9 10  1  0  0  0  0
 11 12  1  6  0  0  0
 11 13  1  0  0  0  0
 11 19  1  0  0  0  0
 12 35  1  0  0  0  0
 13 14  1  0  0  0  0
 14 15  1  6  0  0  0
 14 16  1  0  0  0  0
 16  2  1  1  0  0  0
 16 17  1  0  0  0  0
 17 18  1  6  0  0  0
 17 19  1  0  0  0  0
 19 20  1  1  0  0  0
 21 20  1  6  0  0  0
 21 22  1  0  0  0  0
 21 29  1  0  0  0  0
 22 23  1  6  0  0  0
 22 24  1  0  0  0  0
 24 25  1  1  0  0  0
 24 26  1  0  0  0  0
 26 27  1  6  0  0  0
 26 28  1  0  0  0  0
 28 29  1  0  0  0  0
 28 30  1  1  0  0  0
 30 31  1  0  0  0  0
 34 39  1  0  0  0  0
 35 36  2  0  0  0  0
 37 35  1  6  0  0  0
 37 38  1  0  0  0  0
 37 40  1  0  0  0  0
 38 39  1  0  0  0  0
M  END
>  <CHROM.1>
-127.13040359,173.71948659,-61.43011019,-71.73086627,-82.16802932,179.04356938
-155.24232023,-40.62240552,76.98839392,-176.81389038,20.98431617,3.77053355
15.29496634,-2.89021277,-0.96308453,0.76845471

>  <Name>
2g5q_lig

>  <RI>
0

>  <Rbt.Current_Directory>
/home/itssahil/PROJECTS/Mol_Feturizer/New_Systems/rnas/2g5q

>  <Rbt.Executable>
rbdock ($Id: //depot/dev/client3/rdock/2013.1/src/exe/rbdock.cxx#4 $)

>  <Rbt.Library>
libRbt.so (2013.1, Build901 2013/11/27)

>  <Rbt.Parameter_File>
/export/apps/rDock/src/rDock_2013.1_src/data/scripts/dock_solv.prm

>  <Rbt.Receptor>
prm/blind_docking_80.prm

>  <SCORE>
15.4671

>  <SCORE.INTER>
4.38838

>  <SCORE.INTER.CONST>
1

>  <SCORE.INTER.POLAR>
-0.602769

>  <SCORE.INTER.ROT>
10

>  <SCORE.INTER.SOLV>
19.2633

>  <SCORE.INTER.VDW>
-11.753

>  <SCORE.INTER.norm>
0.109709

>  <SCORE.INTRA>
-2.87366

>  <SCORE.INTRA.DIHEDRAL>
-8.51896

>  <SCORE.INTRA.DIHEDRAL.0>
22.5778

>  <SCORE.INTRA.POLAR>
0

>  <SCORE.INTRA.POLAR.0>
0

>  <SCORE.INTRA.REPUL>
0

>  <SCORE.INTRA.REPUL.0>
0

>  <SCORE.INTRA.SOLV>
3.2239

>  <SCORE.INTRA.SOLV.lig_0>
-102.332

>  <SCORE.INTRA.VDW>
-0.226132

>  <SCORE.INTRA.VDW.0>
-5.08747

>  <SCORE.INTRA.norm>
-0.0718415

>  <SCORE.RESTR>
13.9523

>  <SCORE.RESTR.CAVITY>
13.9523

>  <SCORE.RESTR.norm>
0.348809

>  <SCORE.SYSTEM>
0

>  <SCORE.SYSTEM.CONST>
0

>  <SCORE.SYSTEM.DIHEDRAL>
0

>  <SCORE.SYSTEM.SOLV>
0

>  <SCORE.SYSTEM.norm>
0

>  <SCORE.heavy>
40

>  <SCORE.norm>
0.386676

>  <RMSD>
25.739

$$$$
2g5q_lig
 OpenBabel11021811433D
libRbt.so/2013.1/901 2013/11/27
 40 42  0  0  0  0  0  0  0  0999 V2000
   18.0406    4.3810   11.0162 C   0  0  2  0  0  0  0  0  0  0  0  0
   19.1757    5.2076   11.1500 O   0  0  0  0  0  0  0  0  0  0  0  0
   17.1297    4.9572    9.8924 C   0  0  1  0  0  0  0  0  0  0  0  0
   16.5190    6.3370   10.2886 C   0  0  2  0  0  0  0  0  0  0  0  0
   15.6878    6.1338   11.5819 C   0  0  2  0  0  0  0  0  0  0  0  0
   15.0881    7.3812   11.9677 O   0  0  0  0  0  0  0  0  0  0  0  0
   16.6535    5.5916   12.7122 C   0  0  2  0  0  0  0  0  0  0  0  0
   17.2676    4.3024   12.2837 O   0  0  0  0  0  0  0  0  0  0  0  0
   15.9337    5.3411   14.0331 C   0  0  0  0  0  0  0  0  0  0  0  0
   15.1915    6.5521   14.5068 N   0  0  0  0  0  0  0  0  0  0  0  0
   22.5559    4.7349   13.8754 C   0  0  2  0  0  0  0  0  0  0  0  0
   23.3757    4.7860   15.0801 N   0  0  0  0  0  0  0  0  0  0  0  0
   22.1279    6.1990   13.4406 C   0  0  0  0  0  0  0  0  0  0  0  0
   21.2455    6.1488   12.1316 C   0  0  2  0  0  0  0  0  0  0  0  0
   20.8602    7.5282   11.7283 N   0  0  0  0  0  0  0  0  0  0  0  0
   19.9728    5.2474   12.3879 C   0  0  2  0  0  0  0  0  0  0  0  0
   20.4384    3.8012   12.8223 C   0  0  2  0  0  0  0  0  0  0  0  0
   19.2845    2.9888   13.0598 O   0  0  0  0  0  0  0  0  0  0  0  0
   21.3038    3.8728   14.1379 C   0  0  1  0  0  0  0  0  0  0  0  0
   21.7416    2.5409   14.5288 O   0  0  0  0  0  0  0  0  0  0  0  0
   21.0357    1.7047   15.4124 C   0  0  2  0  0  0  0  0  0  0  0  0
   21.3178    2.2135   16.8666 C   0  0  2  0  0  0  0  0  0  0  0  0
   20.8848    3.5302   16.9906 O   0  0  0  0  0  0  0  0  0  0  0  0
   22.8463    2.0867   17.2274 C   0  0  1  0  0  0  0  0  0  0  0  0
   23.1261    2.5675   18.6206 N   0  0  0  0  0  0  0  0  0  0  0  0
   23.2718    0.5739   17.0607 C   0  0  2  0  0  0  0  0  0  0  0  0
   24.6525    0.3942   17.3826 O   0  0  0  0  0  0  0  0  0  0  0  0
   22.9670    0.1288   15.5905 C   0  0  2  0  0  0  0  0  0  0  0  0
   21.5127    0.3185   15.2606 O   0  0  0  0  0  0  0  0  0  0  0  0
   23.3172   -1.3130   15.3620 C   0  0  0  0  0  0  0  0  0  0  0  0
   23.0334   -2.1094   16.5239 O   0  0  0  0  0  0  0  0  0  0  0  0
   17.9259    5.0654    8.6625 O   0  0  0  0  0  0  0  0  0  0  0  0
   15.7145    6.7921    9.2673 O   0  0  0  0  0  0  0  0  0  0  0  0
   27.7241    3.0124   17.6104 N   0  0  0  0  0  0  0  0  0  0  0  0
   24.2524    3.7933   15.4949 C   0  0  0  0  0  0  0  0  0  0  0  0
   24.4322    2.7429   14.8886 O   0  0  0  0  0  0  0  0  0  0  0  0
   24.9662    4.1519   16.8187 C   0  0  1  0  0  0  0  0  0  0  0  0
   26.3478    4.7701   16.5235 C   0  0  0  0  0  0  0  0  0  0  0  0
   27.5073    3.7768   16.3837 C   0  0  0  0  0  0  0  0  0  0  0  0
   24.1393    5.0702   17.5685 O   0  0  0  0  0  0  0  0  0  0  0  0
  1  2  1  1  0  0  0
  1  3  1  0  0  0  0
  1  8  1  0  0  0  0
  3  4  1  0  0  0  0
  3 32  1  6  0  0  0
  4  5  1  0  0  0  0
  4 33  1  6  0  0  0
  5  6  1  1  0  0  0
  5  7  1  0  0  0  0
  7  8  1  0  0  0  0
  7  9  1  1  0  0  0
  9 10  1  0  0  0  0
 11 12  1  1  0  0  0
 11 13  1  0  0  0  0
 11 19  1  0  0  0  0
 12 35  1  0  0  0  0
 13 14  1  0  0  0  0
 14 15  1  1  0  0  0
 14 16  1  0  0  0  0
 16  2  1  6  0  0  0
 16 17  1  0  0  0  0
 17 18  1  1  0  0  0
 17 19  1  0  0  0  0
 19 20  1  6  0  0  0
 21 20  1  6  0  0  0
 21 22  1  0  0  0  0
 21 29  1  0  0  0  0
 22 23  1  6  0  0  0
 22 24  1  0  0  0  0
 24 25  1  1  0  0  0
 24 26  1  0  0  0  0
 26 27  1  6  0  0  0
 26 28  1  0  0  0  0
 28 29  1  0  0  0  0
 28 30  1  1  0  0  0
 30 31  1  0  0  0  0
 34 39  1  0  0  0  0
 35 36  2  0  0  0  0
 37 35  1  6  0  0  0
 37 38  1  0  0  0  0
 37 40  1  0  0  0  0
 38 39  1  0  0  0  0
M  END
>  <CHROM.1>
157.67433662,-54.29110673,-158.51647942,173.86368756,148.60263243,-78.14773149
36.27243514,-96.02840874,-88.08258704,-61.33238828,20.99184932,3.81179705
14.19416593,2.53582160,-0.42047796,-0.41926383

>  <Name>
2g5q_lig

>  <RI>
0

>  <Rbt.Current_Directory>
/home/itssahil/PROJECTS/Mol_Feturizer/New_Systems/rnas/2g5q

>  <Rbt.Executable>
rbdock ($Id: //depot/dev/client3/rdock/2013.1/src/exe/rbdock.cxx#4 $)

>  <Rbt.Library>
libRbt.so (2013.1, Build901 2013/11/27)

>  <Rbt.Parameter_File>
/export/apps/rDock/src/rDock_2013.1_src/data/scripts/dock_solv.prm

>  <Rbt.Receptor>
prm/blind_docking_80.prm

>  <SCORE>
21.6222

>  <SCORE.INTER>
10.0954

>  <SCORE.INTER.CONST>
1

>  <SCORE.INTER.POLAR>
-0.640655

>  <SCORE.INTER.ROT>
10

>  <SCORE.INTER.SOLV>
21.3459

>  <SCORE.INTER.VDW>
-8.5162

>  <SCORE.INTER.norm>
0.252384

>  <SCORE.INTRA>
-0.0282158

>  <SCORE.INTRA.DIHEDRAL>
-8.42407

>  <SCORE.INTRA.DIHEDRAL.0>
22.5778

>  <SCORE.INTRA.POLAR>
0

>  <SCORE.INTRA.POLAR.0>
0

>  <SCORE.INTRA.REPUL>
0

>  <SCORE.INTRA.REPUL.0>
0

>  <SCORE.INTRA.SOLV>
7.37551

>  <SCORE.INTRA.SOLV.lig_0>
-102.332

>  <SCORE.INTRA.VDW>
0.496064

>  <SCORE.INTRA.VDW.0>
-5.08747

>  <SCORE.INTRA.norm>
-0.000705396

>  <SCORE.RESTR>
11.5551

>  <SCORE.RESTR.CAVITY>
11.5551

>  <SCORE.RESTR.norm>
0.288877

>  <SCORE.SYSTEM>
0

>  <SCORE.SYSTEM.CONST>
0

>  <SCORE.SYSTEM.DIHEDRAL>
0

>  <SCORE.SYSTEM.SOLV>
0

>  <SCORE.SYSTEM.norm>
0

>  <SCORE.heavy>
40

>  <SCORE.norm>
0.540556

>  <RMSD>
25.798

$$$$
2g5q_lig
 OpenBabel11021811433D
libRbt.so/2013.1/901 2013/11/27
 40 42  0  0  0  0  0  0  0  0999 V2000
   18.0565    6.7368   11.9567 C   0  0  2  0  0  0  0  0  0  0  0  0
   18.7212    5.6212   12.5073 O   0  0  0  0  0  0  0  0  0  0  0  0
   16.7816    7.0290   12.8017 C   0  0  1  0  0  0  0  0  0  0  0  0
   15.7251    5.8882   12.6744 C   0  0  2  0  0  0  0  0  0  0  0  0
   15.3418    5.7618   11.1771 C   0  0  2  0  0  0  0  0  0  0  0  0
   14.3504    4.7336   11.0209 O   0  0  0  0  0  0  0  0  0  0  0  0
   16.6513    5.4208   10.3568 C   0  0  2  0  0  0  0  0  0  0  0  0
   17.6650    6.4982   10.5425 O   0  0  0  0  0  0  0  0  0  0  0  0
   16.3919    5.2868    8.8600 C   0  0  0  0  0  0  0  0  0  0  0  0
   15.8585    6.5538    8.2667 N   0  0  0  0  0  0  0  0  0  0  0  0
   22.2622    4.5448   14.8267 C   0  0  2  0  0  0  0  0  0  0  0  0
   23.4660    4.6585   15.6414 N   0  0  0  0  0  0  0  0  0  0  0  0
   22.4572    5.3084   13.4502 C   0  0  0  0  0  0  0  0  0  0  0  0
   21.1579    5.1817   12.5614 C   0  0  2  0  0  0  0  0  0  0  0  0
   21.3577    5.8921   11.2693 N   0  0  0  0  0  0  0  0  0  0  0  0
   19.9191    5.7631   13.3523 C   0  0  2  0  0  0  0  0  0  0  0  0
   19.7599    4.9820   14.7166 C   0  0  2  0  0  0  0  0  0  0  0  0
   18.6418    5.5143   15.4338 O   0  0  0  0  0  0  0  0  0  0  0  0
   21.0607    5.1343   15.5940 C   0  0  1  0  0  0  0  0  0  0  0  0
   20.9161    4.4039   16.8446 O   0  0  0  0  0  0  0  0  0  0  0  0
   20.3168    3.1363   16.9545 C   0  0  2  0  0  0  0  0  0  0  0  0
   20.5467    2.6338   18.4201 C   0  0  2  0  0  0  0  0  0  0  0  0
   19.9652    3.5273   19.3145 O   0  0  0  0  0  0  0  0  0  0  0  0
   22.0817    2.4505   18.7246 C   0  0  1  0  0  0  0  0  0  0  0  0
   22.3121    1.9649   20.1251 N   0  0  0  0  0  0  0  0  0  0  0  0
   22.6782    1.4325   17.6733 C   0  0  2  0  0  0  0  0  0  0  0  0
   24.0722    1.2193   17.9043 O   0  0  0  0  0  0  0  0  0  0  0  0
   22.4183    1.9919   16.2338 C   0  0  2  0  0  0  0  0  0  0  0  0
   20.9499    2.2110   15.9979 O   0  0  0  0  0  0  0  0  0  0  0  0
   22.9314    1.0606   15.1741 C   0  0  0  0  0  0  0  0  0  0  0  0
   22.3169   -0.2344   15.2756 O   0  0  0  0  0  0  0  0  0  0  0  0
   17.1881    7.2189   14.2006 O   0  0  0  0  0  0  0  0  0  0  0  0
   14.6167    6.2040   13.4289 O   0  0  0  0  0  0  0  0  0  0  0  0
   27.1421    3.9915   19.1208 N   0  0  0  0  0  0  0  0  0  0  0  0
   24.6275    3.9203   15.4615 C   0  0  0  0  0  0  0  0  0  0  0  0
   24.7698    3.0716   14.5882 O   0  0  0  0  0  0  0  0  0  0  0  0
   25.7187    4.2752   16.4978 C   0  0  1  0  0  0  0  0  0  0  0  0
   25.0732    4.5566   17.8697 C   0  0  0  0  0  0  0  0  0  0  0  0
   25.6921    3.8184   19.0624 C   0  0  0  0  0  0  0  0  0  0  0  0
   26.6615    3.1830   16.5850 O   0  0  0  0  0  0  0  0  0  0  0  0
  1  2  1  1  0  0  0
  1  3  1  0  0  0  0
  1  8  1  0  0  0  0
  3  4  1  0  0  0  0
  3 32  1  1  0  0  0
  4  5  1  0  0  0  0
  4 33  1  1  0  0  0
  5  6  1  1  0  0  0
  5  7  1  0  0  0  0
  7  8  1  0  0  0  0
  7  9  1  6  0  0  0
  9 10  1  0  0  0  0
 11 12  1  1  0  0  0
 11 13  1  0  0  0  0
 11 19  1  0  0  0  0
 12 35  1  0  0  0  0
 13 14  1  0  0  0  0
 14 15  1  6  0  0  0
 14 16  1  0  0  0  0
 16  2  1  6  0  0  0
 16 17  1  0  0  0  0
 17 18  1  1  0  0  0
 17 19  1  0  0  0  0
 19 20  1  1  0  0  0
 21 20  1  1  0  0  0
 21 22  1  0  0  0  0
 21 29  1  0  0  0  0
 22 23  1  1  0  0  0
 22 24  1  0  0  0  0
 24 25  1  1  0  0  0
 24 26  1  0  0  0  0
 26 27  1  1  0  0  0
 26 28  1  0  0  0  0
 28 29  1  0  0  0  0
 28 30  1  6  0  0  0
 30 31  1  0  0  0  0
 34 39  1  0  0  0  0
 35 36  2  0  0  0  0
 37 35  1  6  0  0  0
 37 38  1  0  0  0  0
 37 40  1  0  0  0  0
 38 39  1  0  0  0  0
M  END
>  <CHROM.1>
-101.89547181,60.80385973,-78.03161704,-111.72341597,-79.03468711,172.24120436
58.63949399,37.00498971,130.25994955,51.36550309,20.69148948,4.29900080,14.81752298
-2.40381531,-0.07505822,1.95152147

>  <Name>
2g5q_lig

>  <RI>
0

>  <Rbt.Current_Directory>
/home/itssahil/PROJECTS/Mol_Feturizer/New_Systems/rnas/2g5q

>  <Rbt.Executable>
rbdock ($Id: //depot/dev/client3/rdock/2013.1/src/exe/rbdock.cxx#4 $)

>  <Rbt.Library>
libRbt.so (2013.1, Build901 2013/11/27)

>  <Rbt.Parameter_File>
/export/apps/rDock/src/rDock_2013.1_src/data/scripts/dock_solv.prm

>  <Rbt.Receptor>
prm/blind_docking_80.prm

>  <SCORE>
13.5778

>  <SCORE.INTER>
-2.44296

>  <SCORE.INTER.CONST>
1

>  <SCORE.INTER.POLAR>
-0.87178

>  <SCORE.INTER.ROT>
10

>  <SCORE.INTER.SOLV>
21.6401

>  <SCORE.INTER.VDW>
-16.2027

>  <SCORE.INTER.norm>
-0.0610739

>  <SCORE.INTRA>
3.32719

>  <SCORE.INTRA.DIHEDRAL>
-1.45054

>  <SCORE.INTRA.DIHEDRAL.0>
22.5778

>  <SCORE.INTRA.POLAR>
0

>  <SCORE.INTRA.POLAR.0>
0

>  <SCORE.INTRA.REPUL>
0

>  <SCORE.INTRA.REPUL.0>
0

>  <SCORE.INTRA.SOLV>
6.10366

>  <SCORE.INTRA.SOLV.lig_0>
-102.332

>  <SCORE.INTRA.VDW>
1.00063

>  <SCORE.INTRA.VDW.0>
-5.08747

>  <SCORE.INTRA.norm>
0.0831797

>  <SCORE.RESTR>
12.6936

>  <SCORE.RESTR.CAVITY>
12.6936

>  <SCORE.RESTR.norm>
0.31734

>  <SCORE.SYSTEM>
0

>  <SCORE.SYSTEM.CONST>
0

>  <SCORE.SYSTEM.DIHEDRAL>
0

>  <SCORE.SYSTEM.SOLV>
0

>  <SCORE.SYSTEM.norm>
0

>  <SCORE.heavy>
40

>  <SCORE.norm>
0.339445

>  <RMSD>
25.837

$$$$
2g5q_lig
 OpenBabel11021811433D
libRbt.so/2013.1/901 2013/11/27
 40 42  0  0  0  0  0  0  0  0999 V2000
   19.2313    4.8200   11.0112 C   0  0  2  0  0  0  0  0  0  0  0  0
   19.0887    4.3729   12.3414 O   0  0  0  0  0  0  0  0  0  0  0  0
   19.1008    6.3715   10.9864 C   0  0  1  0  0  0  0  0  0  0  0  0
   17.6623    6.8405   11.3659 C   0  0  2  0  0  0  0  0  0  0  0  0
   16.6754    6.2169   10.3450 C   0  0  2  0  0  0  0  0  0  0  0  0
   15.3377    6.6452   10.6477 O   0  0  0  0  0  0  0  0  0  0  0  0
   16.8030    4.6419   10.4302 C   0  0  2  0  0  0  0  0  0  0  0  0
   18.2006    4.2255   10.1200 O   0  0  0  0  0  0  0  0  0  0  0  0
   15.8810    3.9214    9.4523 C   0  0  0  0  0  0  0  0  0  0  0  0
   14.5210    4.5454    9.3988 N   0  0  0  0  0  0  0  0  0  0  0  0
   20.8701    1.6342   15.2402 C   0  0  2  0  0  0  0  0  0  0  0  0
   21.7974    0.7013   15.8691 N   0  0  0  0  0  0  0  0  0  0  0  0
   20.3592    1.0510   13.8565 C   0  0  0  0  0  0  0  0  0  0  0  0
   19.3485    2.0554   13.1751 C   0  0  2  0  0  0  0  0  0  0  0  0
   18.8685    1.4919   11.8844 N   0  0  0  0  0  0  0  0  0  0  0  0
   20.0553    3.4535   12.9655 C   0  0  2  0  0  0  0  0  0  0  0  0
   20.5533    3.9993   14.3622 C   0  0  2  0  0  0  0  0  0  0  0  0
   21.1984    5.2620   14.1691 O   0  0  0  0  0  0  0  0  0  0  0  0
   21.5718    2.9899   15.0171 C   0  0  1  0  0  0  0  0  0  0  0  0
   22.0194    3.4891   16.3089 O   0  0  0  0  0  0  0  0  0  0  0  0
   22.6891    2.7090   17.2686 C   0  0  2  0  0  0  0  0  0  0  0  0
   22.5677    3.4496   18.6433 C   0  0  2  0  0  0  0  0  0  0  0  0
   21.2245    3.5889   18.9793 O   0  0  0  0  0  0  0  0  0  0  0  0
   23.2860    4.8513   18.6000 C   0  0  1  0  0  0  0  0  0  0  0  0
   23.1791    5.5668   19.9141 N   0  0  0  0  0  0  0  0  0  0  0  0
   24.7997    4.6215   18.2085 C   0  0  2  0  0  0  0  0  0  0  0  0
   25.5077    5.8619   18.1602 O   0  0  0  0  0  0  0  0  0  0  0  0
   24.8518    3.8817   16.8292 C   0  0  2  0  0  0  0  0  0  0  0  0
   24.1071    2.5772   16.8891 O   0  0  0  0  0  0  0  0  0  0  0  0
   26.2630    3.5988   16.4027 C   0  0  0  0  0  0  0  0  0  0  0  0
   27.0443    4.8037   16.3522 O   0  0  0  0  0  0  0  0  0  0  0  0
   20.0996    6.9338   11.9053 O   0  0  0  0  0  0  0  0  0  0  0  0
   17.6004    8.2157   11.3150 O   0  0  0  0  0  0  0  0  0  0  0  0
   26.1164    1.4144   18.4980 N   0  0  0  0  0  0  0  0  0  0  0  0
   23.0204    0.3103   15.3423 C   0  0  0  0  0  0  0  0  0  0  0  0
   23.4606    0.7066   14.2688 O   0  0  0  0  0  0  0  0  0  0  0  0
   23.7607   -0.6962   16.2532 C   0  0  1  0  0  0  0  0  0  0  0  0
   24.3177    0.0267   17.4963 C   0  0  0  0  0  0  0  0  0  0  0  0
   25.7530    0.5519   17.3756 C   0  0  0  0  0  0  0  0  0  0  0  0
   22.8474   -1.7496   16.6345 O   0  0  0  0  0  0  0  0  0  0  0  0
  1  2  1  1  0  0  0
  1  3  1  0  0  0  0
  1  8  1  0  0  0  0
  3  4  1  0  0  0  0
  3 32  1  1  0  0  0
  4  5  1  0  0  0  0
  4 33  1  6  0  0  0
  5  6  1  1  0  0  0
  5  7  1  0  0  0  0
  7  8  1  0  0  0  0
  7  9  1  6  0  0  0
  9 10  1  0  0  0  0
 11 12  1  6  0  0  0
 11 13  1  0  0  0  0
 11 19  1  0  0  0  0
 12 35  1  0  0  0  0
 13 14  1  0  0  0  0
 14 15  1  6  0  0  0
 14 16  1  0  0  0  0
 16  2  1  1  0  0  0
 16 17  1  0  0  0  0
 17 18  1  6  0  0  0
 17 19  1  0  0  0  0
 19 20  1  1  0  0  0
 21 20  1  6  0  0  0
 21 22  1  0  0  0  0
 21 29  1  0  0  0  0
 22 23  1  6  0  0  0
 22 24  1  0  0  0  0
 24 25  1  1  0  0  0
 24 26  1  0  0  0  0
 26 27  1  6  0  0  0
 26 28  1  0  0  0  0
 28 29  1  0  0  0  0
 28 30  1  1  0  0  0
 30 31  1  0  0  0  0
 34 39  1  0  0  0  0
 35 36  2  0  0  0  0
 37 35  1  6  0  0  0
 37 38  1  0  0  0  0
 37 40  1  0  0  0  0
 38 39  1  0  0  0  0
M  END
>  <CHROM.1>
-129.71871427,-42.00606177,62.78472011,-110.63358565,46.04774600,-161.62710436
-56.18024983,-73.23161585,-92.01065209,170.17919739,21.30034790,3.53266061
14.60347802,-2.90560484,0.76626180,-3.07428036

>  <Name>
2g5q_lig

>  <RI>
0

>  <Rbt.Current_Directory>
/home/itssahil/PROJECTS/Mol_Feturizer/New_Systems/rnas/2g5q

>  <Rbt.Executable>
rbdock ($Id: //depot/dev/client3/rdock/2013.1/src/exe/rbdock.cxx#4 $)

>  <Rbt.Library>
libRbt.so (2013.1, Build901 2013/11/27)

>  <Rbt.Parameter_File>
/export/apps/rDock/src/rDock_2013.1_src/data/scripts/dock_solv.prm

>  <Rbt.Receptor>
prm/blind_docking_80.prm

>  <SCORE>
20.0244

>  <SCORE.INTER>
0.0439658

>  <SCORE.INTER.CONST>
1

>  <SCORE.INTER.POLAR>
-1.25961

>  <SCORE.INTER.ROT>
10

>  <SCORE.INTER.SOLV>
19.7648

>  <SCORE.INTER.VDW>
-12.6269

>  <SCORE.INTER.norm>
0.00109915

>  <SCORE.INTRA>
7.25491

>  <SCORE.INTRA.DIHEDRAL>
-1.26733

>  <SCORE.INTRA.DIHEDRAL.0>
22.5778

>  <SCORE.INTRA.POLAR>
0

>  <SCORE.INTRA.POLAR.0>
0

>  <SCORE.INTRA.REPUL>
0

>  <SCORE.INTRA.REPUL.0>
0

>  <SCORE.INTRA.SOLV>
8.17433

>  <SCORE.INTRA.SOLV.lig_0>
-102.332

>  <SCORE.INTRA.VDW>
3.8014

>  <SCORE.INTRA.VDW.0>
-5.08747

>  <SCORE.INTRA.norm>
0.181373

>  <SCORE.RESTR>
12.7255

>  <SCORE.RESTR.CAVITY>
12.7255

>  <SCORE.RESTR.norm>
0.318137

>  <SCORE.SYSTEM>
0

>  <SCORE.SYSTEM.CONST>
0

>  <SCORE.SYSTEM.DIHEDRAL>
0

>  <SCORE.SYSTEM.SOLV>
0

>  <SCORE.SYSTEM.norm>
0

>  <SCORE.heavy>
40

>  <SCORE.norm>
0.500609

>  <RMSD>
25.873

$$$$
2g5q_lig
 OpenBabel11021811433D
libRbt.so/2013.1/901 2013/11/27
 40 42  0  0  0  0  0  0  0  0999 V2000
   18.2646    4.8993   12.2801 C   0  0  2  0  0  0  0  0  0  0  0  0
   19.3165    5.8141   12.0657 O   0  0  0  0  0  0  0  0  0  0  0  0
   17.8871    4.2407   10.9205 C   0  0  1  0  0  0  0  0  0  0  0  0
   17.2646    5.2707    9.9280 C   0  0  2  0  0  0  0  0  0  0  0  0
   15.9942    5.8616   10.5927 C   0  0  2  0  0  0  0  0  0  0  0  0
   15.3770    6.8008    9.6975 O   0  0  0  0  0  0  0  0  0  0  0  0
   16.4220    6.5605   11.9464 C   0  0  2  0  0  0  0  0  0  0  0  0
   17.0660    5.5670   12.8525 O   0  0  0  0  0  0  0  0  0  0  0  0
   15.2410    7.1681   12.6958 C   0  0  0  0  0  0  0  0  0  0  0  0
   15.6682    7.8531   13.9568 N   0  0  0  0  0  0  0  0  0  0  0  0
   22.6178    4.5152   14.6136 C   0  0  2  0  0  0  0  0  0  0  0  0
   23.7938    4.5509   15.4746 N   0  0  0  0  0  0  0  0  0  0  0  0
   22.9525    5.1540   13.2009 C   0  0  0  0  0  0  0  0  0  0  0  0
   21.6830    5.1108   12.2623 C   0  0  2  0  0  0  0  0  0  0  0  0
   22.0132    5.7023   10.9375 N   0  0  0  0  0  0  0  0  0  0  0  0
   20.4888    5.8805   12.9548 C   0  0  2  0  0  0  0  0  0  0  0  0
   20.1881    5.2196   14.3582 C   0  0  2  0  0  0  0  0  0  0  0  0
   19.1108    5.9220   14.9859 O   0  0  0  0  0  0  0  0  0  0  0  0
   21.4623    5.2872   15.2837 C   0  0  1  0  0  0  0  0  0  0  0  0
   21.1864    4.6668   16.5711 O   0  0  0  0  0  0  0  0  0  0  0  0
   20.2570    3.6291   16.7651 C   0  0  2  0  0  0  0  0  0  0  0  0
   20.4422    3.1004   18.2278 C   0  0  2  0  0  0  0  0  0  0  0  0
   20.2125    4.1356   19.1289 O   0  0  0  0  0  0  0  0  0  0  0  0
   21.8776    2.4835   18.4324 C   0  0  1  0  0  0  0  0  0  0  0  0
   22.0633    1.9699   19.8296 N   0  0  0  0  0  0  0  0  0  0  0  0
   22.0739    1.3228   17.3780 C   0  0  2  0  0  0  0  0  0  0  0  0
   23.3605    0.7173   17.5200 O   0  0  0  0  0  0  0  0  0  0  0  0
   21.8784    1.9151   15.9415 C   0  0  2  0  0  0  0  0  0  0  0  0
   20.5221    2.5478   15.7995 O   0  0  0  0  0  0  0  0  0  0  0  0
   22.0194    0.8614   14.8815 C   0  0  0  0  0  0  0  0  0  0  0  0
   21.2100   -0.2883   15.1777 O   0  0  0  0  0  0  0  0  0  0  0  0
   19.0949    3.6249   10.3544 O   0  0  0  0  0  0  0  0  0  0  0  0
   16.9385    4.6335    8.7511 O   0  0  0  0  0  0  0  0  0  0  0  0
   27.2256    4.4131   19.1684 N   0  0  0  0  0  0  0  0  0  0  0  0
   24.6049    3.4636   15.7681 C   0  0  0  0  0  0  0  0  0  0  0  0
   24.4151    2.3324   15.3348 O   0  0  0  0  0  0  0  0  0  0  0  0
   25.7673    3.8338   16.7180 C   0  0  1  0  0  0  0  0  0  0  0  0
   25.3374    4.9779   17.6583 C   0  0  0  0  0  0  0  0  0  0  0  0
   25.8423    4.8801   19.1026 C   0  0  0  0  0  0  0  0  0  0  0  0
   26.1530    2.6628   17.4725 O   0  0  0  0  0  0  0  0  0  0  0  0
  1  2  1  6  0  0  0
  1  3  1  0  0  0  0
  1  8  1  0  0  0  0
  3  4  1  0  0  0  0
  3 32  1  6  0  0  0
  4  5  1  0  0  0  0
  4 33  1  6  0  0  0
  5  6  1  6  0  0  0
  5  7  1  0  0  0  0
  7  8  1  0  0  0  0
  7  9  1  1  0  0  0
  9 10  1  0  0  0  0
 11 12  1  1  0  0  0
 11 13  1  0  0  0  0
 11 19  1  0  0  0  0
 12 35  1  0  0  0  0
 13 14  1  0  0  0  0
 14 15  1  6  0  0  0
 14 16  1  0  0  0  0
 16  2  1  6  0  0  0
 16 17  1  0  0  0  0
 17 18  1  1  0  0  0
 17 19  1  0  0  0  0
 19 20  1  1  0  0  0
 21 20  1  6  0  0  0
 21 22  1  0  0  0  0
 21 29  1  0  0  0  0
 22 23  1  1  0  0  0
 22 24  1  0  0  0  0
 24 25  1  1  0  0  0
 24 26  1  0  0  0  0
 26 27  1  6  0  0  0
 26 28  1  0  0  0  0
 28 29  1  0  0  0  0
 28 30  1  6  0  0  0
 30 31  1  0  0  0  0
 34 39  1  0  0  0  0
 35 36  2  0  0  0  0
 37 35  1  6  0  0  0
 37 38  1  0  0  0  0
 37 40  1  0  0  0  0
 38 39  1  0  0  0  0
M  END
>  <CHROM.1>
-135.07276019,-178.63260184,-103.65381600,100.52921312,-90.71938999,170.79054571
50.03234662,30.77645504,141.49995916,40.32149526,20.85979890,4.21124633,14.66405154
2.37406811,0.18718831,-1.35294625

>  <Name>
2g5q_lig

>  <RI>
0

>  <Rbt.Current_Directory>
/home/itssahil/PROJECTS/Mol_Feturizer/New_Systems/rnas/2g5q

>  <Rbt.Executable>
rbdock ($Id: //depot/dev/client3/rdock/2013.1/src/exe/rbdock.cxx#4 $)

>  <Rbt.Library>
libRbt.so (2013.1, Build901 2013/11/27)

>  <Rbt.Parameter_File>
/export/apps/rDock/src/rDock_2013.1_src/data/scripts/dock_solv.prm

>  <Rbt.Receptor>
prm/blind_docking_80.prm

>  <SCORE>
12.0987

>  <SCORE.INTER>
-2.63138

>  <SCORE.INTER.CONST>
1

>  <SCORE.INTER.POLAR>
-1.32206

>  <SCORE.INTER.ROT>
10

>  <SCORE.INTER.SOLV>
21.1876

>  <SCORE.INTER.VDW>
-14.6766

>  <SCORE.INTER.norm>
-0.0657844

>  <SCORE.INTRA>
5.20148

>  <SCORE.INTRA.DIHEDRAL>
1.11803

>  <SCORE.INTRA.DIHEDRAL.0>
22.5778

>  <SCORE.INTRA.POLAR>
0

>  <SCORE.INTRA.POLAR.0>
0

>  <SCORE.INTRA.REPUL>
0

>  <SCORE.INTRA.REPUL.0>
0

>  <SCORE.INTRA.SOLV>
4.17021

>  <SCORE.INTRA.SOLV.lig_0>
-102.332

>  <SCORE.INTRA.VDW>
2.55736

>  <SCORE.INTRA.VDW.0>
-5.08747

>  <SCORE.INTRA.norm>
0.130037

>  <SCORE.RESTR>
9.52861

>  <SCORE.RESTR.CAVITY>
9.52861

>  <SCORE.RESTR.norm>
0.238215

>  <SCORE.SYSTEM>
0

>  <SCORE.SYSTEM.CONST>
0

>  <SCORE.SYSTEM.DIHEDRAL>
0

>  <SCORE.SYSTEM.SOLV>
0

>  <SCORE.SYSTEM.norm>
0

>  <SCORE.heavy>
40

>  <SCORE.norm>
0.302468

>  <RMSD>
25.877

$$$$
2g5q_lig
 OpenBabel11021811433D
libRbt.so/2013.1/901 2013/11/27
 40 42  0  0  0  0  0  0  0  0999 V2000
   19.2294    4.9822   10.9288 C   0  0  2  0  0  0  0  0  0  0  0  0
   19.2449    4.5179   12.2606 O   0  0  0  0  0  0  0  0  0  0  0  0
   19.0667    6.5309   10.9389 C   0  0  1  0  0  0  0  0  0  0  0  0
   17.6706    6.9657   11.4823 C   0  0  2  0  0  0  0  0  0  0  0  0
   16.5884    6.3326   10.5696 C   0  0  2  0  0  0  0  0  0  0  0  0
   15.2847    6.7296   11.0250 O   0  0  0  0  0  0  0  0  0  0  0  0
   16.7554    4.7598   10.6195 C   0  0  2  0  0  0  0  0  0  0  0  0
   18.1175    4.3761   10.1501 O   0  0  0  0  0  0  0  0  0  0  0  0
   15.7442    4.0309    9.7410 C   0  0  0  0  0  0  0  0  0  0  0  0
   15.6493    4.6346    8.3742 N   0  0  0  0  0  0  0  0  0  0  0  0
   21.8320    1.9650   14.6827 C   0  0  2  0  0  0  0  0  0  0  0  0
   23.0252    1.3936   15.2956 N   0  0  0  0  0  0  0  0  0  0  0  0
   21.9229    1.8600   13.1027 C   0  0  0  0  0  0  0  0  0  0  0  0
   20.6288    2.4715   12.4349 C   0  0  2  0  0  0  0  0  0  0  0  0
   20.7215    2.3568   10.9542 N   0  0  0  0  0  0  0  0  0  0  0  0
   20.4635    3.9771   12.8863 C   0  0  2  0  0  0  0  0  0  0  0  0
   20.3811    4.0414   14.4630 C   0  0  2  0  0  0  0  0  0  0  0  0
   20.2379    5.4060   14.8697 O   0  0  0  0  0  0  0  0  0  0  0  0
   21.6879    3.4409   15.1083 C   0  0  1  0  0  0  0  0  0  0  0  0
   21.6040    3.4900   16.5605 O   0  0  0  0  0  0  0  0  0  0  0  0
   22.4041    2.7211   17.4247 C   0  0  2  0  0  0  0  0  0  0  0  0
   21.7001    2.7024   18.8237 C   0  0  2  0  0  0  0  0  0  0  0  0
   20.4343    2.1379   18.6998 O   0  0  0  0  0  0  0  0  0  0  0  0
   21.6133    4.1514   19.4365 C   0  0  1  0  0  0  0  0  0  0  0  0
   20.9444    4.1434   20.7792 N   0  0  0  0  0  0  0  0  0  0  0  0
   23.0785    4.7335   19.5439 C   0  0  2  0  0  0  0  0  0  0  0  0
   23.0649    6.0489   20.1022 O   0  0  0  0  0  0  0  0  0  0  0  0
   23.7240    4.7270   18.1170 C   0  0  2  0  0  0  0  0  0  0  0  0
   23.7369    3.3398   17.5378 O   0  0  0  0  0  0  0  0  0  0  0  0
   25.1348    5.2395   18.1423 C   0  0  0  0  0  0  0  0  0  0  0  0
   25.7324    5.1871   16.8366 O   0  0  0  0  0  0  0  0  0  0  0  0
   20.1506    7.1039   11.7482 O   0  0  0  0  0  0  0  0  0  0  0  0
   17.5766    8.3397   11.4566 O   0  0  0  0  0  0  0  0  0  0  0  0
   25.8629    2.4823   19.0748 N   0  0  0  0  0  0  0  0  0  0  0  0
   23.0667    0.2065   16.0133 C   0  0  0  0  0  0  0  0  0  0  0  0
   22.0874   -0.5012   16.2214 O   0  0  0  0  0  0  0  0  0  0  0  0
   24.4849   -0.1169   16.5374 C   0  0  1  0  0  0  0  0  0  0  0  0
   25.1435    1.1583   17.1014 C   0  0  0  0  0  0  0  0  0  0  0  0
   25.1582    1.2819   18.6294 C   0  0  0  0  0  0  0  0  0  0  0  0
   24.3919   -1.1420   17.5522 O   0  0  0  0  0  0  0  0  0  0  0  0
  1  2  1  1  0  0  0
  1  3  1  0  0  0  0
  1  8  1  0  0  0  0
  3  4  1  0  0  0  0
  3 32  1  1  0  0  0
  4  5  1  0  0  0  0
  4 33  1  6  0  0  0
  5  6  1  1  0  0  0
  5  7  1  0  0  0  0
  7  8  1  0  0  0  0
  7  9  1  6  0  0  0
  9 10  1  0  0  0  0
 11 12  1  1  0  0  0
 11 13  1  0  0  0  0
 11 19  1  0  0  0  0
 12 35  1  0  0  0  0
 13 14  1  0  0  0  0
 14 15  1  6  0  0  0
 14 16  1  0  0  0  0
 16  2  1  6  0  0  0
 16 17  1  0  0  0  0
 17 18  1  6  0  0  0
 17 19  1  0  0  0  0
 19 20  1  1  0  0  0
 21 20  1  6  0  0  0
 21 22  1  0  0  0  0
 21 29  1  0  0  0  0
 22 23  1  6  0  0  0
 22 24  1  0  0  0  0
 24 25  1  1  0  0  0
 24 26  1  0  0  0  0
 26 27  1  6  0  0  0
 26 28  1  0  0  0  0
 28 29  1  0  0  0  0
 28 30  1  1  0  0  0
 30 31  1  0  0  0  0
 34 39  1  0  0  0  0
 35 36  2  0  0  0  0
 37 35  1  1  0  0  0
 37 38  1  0  0  0  0
 37 40  1  0  0  0  0
 38 39  1  0  0  0  0
M  END
>  <CHROM.1>
-110.25636550,47.13869696,-109.61547699,-81.25412085,42.15871242,-161.48096786
178.05893610,42.88306907,102.33344274,176.93970878,21.12823347,3.73249150
14.91402410,-2.92698909,-0.89437953,0.65117433

>  <Name>
2g5q_lig

>  <RI>
0

>  <Rbt.Current_Directory>
/home/itssahil/PROJECTS/Mol_Feturizer/New_Systems/rnas/2g5q

>  <Rbt.Executable>
rbdock ($Id: //depot/dev/client3/rdock/2013.1/src/exe/rbdock.cxx#4 $)

>  <Rbt.Library>
libRbt.so (2013.1, Build901 2013/11/27)

>  <Rbt.Parameter_File>
/export/apps/rDock/src/rDock_2013.1_src/data/scripts/dock_solv.prm

>  <Rbt.Receptor>
prm/blind_docking_80.prm

>  <SCORE>
24.2405

>  <SCORE.INTER>
6.2817

>  <SCORE.INTER.CONST>
1

>  <SCORE.INTER.POLAR>
-0.659612

>  <SCORE.INTER.ROT>
10

>  <SCORE.INTER.SOLV>
22.4911

>  <SCORE.INTER.VDW>
-11.3772

>  <SCORE.INTER.norm>
0.157042

>  <SCORE.INTRA>
5.92843

>  <SCORE.INTRA.DIHEDRAL>
-3.85645

>  <SCORE.INTRA.DIHEDRAL.0>
22.5778

>  <SCORE.INTRA.POLAR>
0

>  <SCORE.INTRA.POLAR.0>
0

>  <SCORE.INTRA.REPUL>
0

>  <SCORE.INTRA.REPUL.0>
0

>  <SCORE.INTRA.SOLV>
7.55847

>  <SCORE.INTRA.SOLV.lig_0>
-102.332

>  <SCORE.INTRA.VDW>
4.07742

>  <SCORE.INTRA.VDW.0>
-5.08747

>  <SCORE.INTRA.norm>
0.148211

>  <SCORE.RESTR>
12.0303

>  <SCORE.RESTR.CAVITY>
12.0303

>  <SCORE.RESTR.norm>
0.300759

>  <SCORE.SYSTEM>
0

>  <SCORE.SYSTEM.CONST>
0

>  <SCORE.SYSTEM.DIHEDRAL>
0

>  <SCORE.SYSTEM.SOLV>
0

>  <SCORE.SYSTEM.norm>
0

>  <SCORE.heavy>
40

>  <SCORE.norm>
0.606012

>  <RMSD>
25.878

$$$$
2g5q_lig
 OpenBabel11021811433D
libRbt.so/2013.1/901 2013/11/27
 40 42  0  0  0  0  0  0  0  0999 V2000
   18.2428    4.7837   12.1740 C   0  0  2  0  0  0  0  0  0  0  0  0
   19.2120    5.8038   12.0766 O   0  0  0  0  0  0  0  0  0  0  0  0
   17.8406    4.3345   10.7383 C   0  0  1  0  0  0  0  0  0  0  0  0
   17.0913    5.4627    9.9642 C   0  0  2  0  0  0  0  0  0  0  0  0
   15.8195    5.8284   10.7727 C   0  0  2  0  0  0  0  0  0  0  0  0
   15.0875    6.8515   10.0785 O   0  0  0  0  0  0  0  0  0  0  0  0
   16.2686    6.3223   12.2074 C   0  0  2  0  0  0  0  0  0  0  0  0
   17.0319    5.2462   12.9019 O   0  0  0  0  0  0  0  0  0  0  0  0
   15.0892    6.6975   13.0983 C   0  0  0  0  0  0  0  0  0  0  0  0
   14.3487    7.8900   12.5774 N   0  0  0  0  0  0  0  0  0  0  0  0
   22.5132    4.5169   14.6306 C   0  0  2  0  0  0  0  0  0  0  0  0
   23.6741    4.5580   15.5117 N   0  0  0  0  0  0  0  0  0  0  0  0
   22.8492    5.2170   13.2475 C   0  0  0  0  0  0  0  0  0  0  0  0
   21.5964    5.1683   12.2870 C   0  0  2  0  0  0  0  0  0  0  0  0
   21.9280    5.8179   10.9900 N   0  0  0  0  0  0  0  0  0  0  0  0
   20.3677    5.8744   12.9868 C   0  0  2  0  0  0  0  0  0  0  0  0
   20.0665    5.1536   14.3603 C   0  0  2  0  0  0  0  0  0  0  0  0
   18.9578    5.7985   14.9950 O   0  0  0  0  0  0  0  0  0  0  0  0
   21.3235    5.2273   15.3088 C   0  0  1  0  0  0  0  0  0  0  0  0
   21.0476    4.5519   16.5682 O   0  0  0  0  0  0  0  0  0  0  0  0
   20.3775    3.3199   16.6739 C   0  0  2  0  0  0  0  0  0  0  0  0
   20.3921    2.9056   18.1843 C   0  0  2  0  0  0  0  0  0  0  0  0
   19.7451    3.8790   18.9396 O   0  0  0  0  0  0  0  0  0  0  0  0
   21.8643    2.6799   18.6983 C   0  0  1  0  0  0  0  0  0  0  0  0
   21.8887    2.2781   20.1434 N   0  0  0  0  0  0  0  0  0  0  0  0
   22.5402    1.5715   17.7971 C   0  0  2  0  0  0  0  0  0  0  0  0
   23.8808    1.3169   18.2215 O   0  0  0  0  0  0  0  0  0  0  0  0
   22.4953    2.0455   16.3051 C   0  0  2  0  0  0  0  0  0  0  0  0
   21.0820    2.3087   15.8657 O   0  0  0  0  0  0  0  0  0  0  0  0
   23.0939    1.0265   15.3795 C   0  0  0  0  0  0  0  0  0  0  0  0
   22.3471   -0.2010   15.4017 O   0  0  0  0  0  0  0  0  0  0  0  0
   19.0573    3.9227   10.0254 O   0  0  0  0  0  0  0  0  0  0  0  0
   16.7487    5.0080    8.7099 O   0  0  0  0  0  0  0  0  0  0  0  0
   27.2351    3.8576   19.1337 N   0  0  0  0  0  0  0  0  0  0  0  0
   24.8329    3.8126   15.3450 C   0  0  0  0  0  0  0  0  0  0  0  0
   25.0089    3.0185   14.4276 O   0  0  0  0  0  0  0  0  0  0  0  0
   25.8731    4.0824   16.4566 C   0  0  1  0  0  0  0  0  0  0  0  0
   25.1643    4.2370   17.8174 C   0  0  0  0  0  0  0  0  0  0  0  0
   26.0487    4.6975   18.9820 C   0  0  0  0  0  0  0  0  0  0  0  0
   26.8230    2.9934   16.4901 O   0  0  0  0  0  0  0  0  0  0  0  0
  1  2  1  6  0  0  0
  1  3  1  0  0  0  0
  1  8  1  0  0  0  0
  3  4  1  0  0  0  0
  3 32  1  6  0  0  0
  4  5  1  0  0  0  0
  4 33  1  6  0  0  0
  5  6  1  6  0  0  0
  5  7  1  0  0  0  0
  7  8  1  0  0  0  0
  7  9  1  1  0  0  0
  9 10  1  0  0  0  0
 11 12  1  1  0  0  0
 11 13  1  0  0  0  0
 11 19  1  0  0  0  0
 12 35  1  0  0  0  0
 13 14  1  0  0  0  0
 14 15  1  6  0  0  0
 14 16  1  0  0  0  0
 16  2  1  6  0  0  0
 16 17  1  0  0  0  0
 17 18  1  1  0  0  0
 17 19  1  0  0  0  0
 19 20  1  1  0  0  0
 21 20  1  1  0  0  0
 21 22  1  0  0  0  0
 21 29  1  0  0  0  0
 22 23  1  1  0  0  0
 22 24  1  0  0  0  0
 24 25  1  1  0  0  0
 24 26  1  0  0  0  0
 26 27  1  1  0  0  0
 26 28  1  0  0  0  0
 28 29  1  0  0  0  0
 28 30  1  6  0  0  0
 30 31  1  0  0  0  0
 34 39  1  0  0  0  0
 35 36  2  0  0  0  0
 37 35  1  6  0  0  0
 37 38  1  0  0  0  0
 37 40  1  0  0  0  0
 38 39  1  0  0  0  0
M  END
>  <CHROM.1>
-140.07743441,-65.64897739,-71.41783313,95.30558782,-76.85464931,175.71382692
62.99591188,39.03894031,-171.96733604,-53.01742196,20.90455556,4.22934294
14.64768674,-2.41192441,-0.17645136,1.80910631

>  <Name>
2g5q_lig

>  <RI>
0

>  <Rbt.Current_Directory>
/home/itssahil/PROJECTS/Mol_Feturizer/New_Systems/rnas/2g5q

>  <Rbt.Executable>
rbdock ($Id: //depot/dev/client3/rdock/2013.1/src/exe/rbdock.cxx#4 $)

>  <Rbt.Library>
libRbt.so (2013.1, Build901 2013/11/27)

>  <Rbt.Parameter_File>
/export/apps/rDock/src/rDock_2013.1_src/data/scripts/dock_solv.prm

>  <Rbt.Receptor>
prm/blind_docking_80.prm

>  <SCORE>
3.00301

>  <SCORE.INTER>
-5.56686

>  <SCORE.INTER.CONST>
1

>  <SCORE.INTER.POLAR>
-1.59208

>  <SCORE.INTER.ROT>
10

>  <SCORE.INTER.SOLV>
18.2601

>  <SCORE.INTER.VDW>
-14.7577

>  <SCORE.INTER.norm>
-0.139172

>  <SCORE.INTRA>
-2.00772

>  <SCORE.INTRA.DIHEDRAL>
-9.29593

>  <SCORE.INTRA.DIHEDRAL.0>
22.5778

>  <SCORE.INTRA.POLAR>
0

>  <SCORE.INTRA.POLAR.0>
0

>  <SCORE.INTRA.REPUL>
0

>  <SCORE.INTRA.REPUL.0>
0

>  <SCORE.INTRA.SOLV>
4.57352

>  <SCORE.INTRA.SOLV.lig_0>
-102.332

>  <SCORE.INTRA.VDW>
0.353481

>  <SCORE.INTRA.VDW.0>
-5.08747

>  <SCORE.INTRA.norm>
-0.0501931

>  <SCORE.RESTR>
10.5776

>  <SCORE.RESTR.CAVITY>
10.5776

>  <SCORE.RESTR.norm>
0.26444

>  <SCORE.SYSTEM>
0

>  <SCORE.SYSTEM.CONST>
0

>  <SCORE.SYSTEM.DIHEDRAL>
0

>  <SCORE.SYSTEM.SOLV>
0

>  <SCORE.SYSTEM.norm>
0

>  <SCORE.heavy>
40

>  <SCORE.norm>
0.0750751

>  <RMSD>
25.956

$$$$
2g5q_lig
 OpenBabel11021811433D
libRbt.so/2013.1/901 2013/11/27
 40 42  0  0  0  0  0  0  0  0999 V2000
   19.9187    6.4308   12.2185 C   0  0  2  0  0  0  0  0  0  0  0  0
   19.9958    5.9657   13.5478 O   0  0  0  0  0  0  0  0  0  0  0  0
   18.4321    6.3877   11.7570 C   0  0  1  0  0  0  0  0  0  0  0  0
   17.8974    4.9259   11.6528 C   0  0  2  0  0  0  0  0  0  0  0  0
   18.7839    4.1684   10.6305 C   0  0  2  0  0  0  0  0  0  0  0  0
   18.3077    2.8203   10.4887 O   0  0  0  0  0  0  0  0  0  0  0  0
   20.2771    4.1938   11.1539 C   0  0  2  0  0  0  0  0  0  0  0  0
   20.7431    5.6025   11.2995 O   0  0  0  0  0  0  0  0  0  0  0  0
   21.2446    3.4846   10.2124 C   0  0  0  0  0  0  0  0  0  0  0  0
   21.6849    2.1596   10.7530 N   0  0  0  0  0  0  0  0  0  0  0  0
   21.7882    2.7920   15.9547 C   0  0  2  0  0  0  0  0  0  0  0  0
   22.4170    1.5309   16.3289 N   0  0  0  0  0  0  0  0  0  0  0  0
   20.3878    2.5220   15.2603 C   0  0  0  0  0  0  0  0  0  0  0  0
   19.6998    3.8861   14.8597 C   0  0  2  0  0  0  0  0  0  0  0  0
   18.3831    3.6195   14.2201 N   0  0  0  0  0  0  0  0  0  0  0  0
   20.6551    4.6952   13.8950 C   0  0  2  0  0  0  0  0  0  0  0  0
   22.0384    4.9406   14.6183 C   0  0  2  0  0  0  0  0  0  0  0  0
   22.9038    5.6678   13.7406 O   0  0  0  0  0  0  0  0  0  0  0  0
   22.7146    3.5674   14.9952 C   0  0  1  0  0  0  0  0  0  0  0  0
   23.9825    3.7965   15.6721 O   0  0  0  0  0  0  0  0  0  0  0  0
   24.1424    4.6404   16.7858 C   0  0  2  0  0  0  0  0  0  0  0  0
   25.6470    4.5706   17.2155 C   0  0  2  0  0  0  0  0  0  0  0  0
   26.4514    4.9952   16.1624 O   0  0  0  0  0  0  0  0  0  0  0  0
   26.0409    3.1155   17.6742 C   0  0  1  0  0  0  0  0  0  0  0  0
   27.4795    3.0394   18.0923 N   0  0  0  0  0  0  0  0  0  0  0  0
   25.0888    2.6952   18.8634 C   0  0  2  0  0  0  0  0  0  0  0  0
   25.4041    1.3814   19.3290 O   0  0  0  0  0  0  0  0  0  0  0  0
   23.6050    2.7840   18.3702 C   0  0  2  0  0  0  0  0  0  0  0  0
   23.2806    4.1692   17.8846 O   0  0  0  0  0  0  0  0  0  0  0  0
   22.6347    2.4277   19.4589 C   0  0  0  0  0  0  0  0  0  0  0  0
   21.3011    2.2854   18.9431 O   0  0  0  0  0  0  0  0  0  0  0  0
   17.6318    7.1770   12.7029 O   0  0  0  0  0  0  0  0  0  0  0  0
   16.5868    4.9466   11.2293 O   0  0  0  0  0  0  0  0  0  0  0  0
   23.4535    0.4478   14.3030 N   0  0  0  0  0  0  0  0  0  0  0  0
   21.7837    0.2962   16.3523 C   0  0  0  0  0  0  0  0  0  0  0  0
   20.6042    0.1272   16.0634 O   0  0  0  0  0  0  0  0  0  0  0  0
   22.7281   -0.8429   16.8007 C   0  0  1  0  0  0  0  0  0  0  0  0
   23.1817   -1.6655   15.5777 C   0  0  0  0  0  0  0  0  0  0  0  0
   23.9796   -0.8989   14.5165 C   0  0  0  0  0  0  0  0  0  0  0  0
   23.8638   -0.2726   17.4893 O   0  0  0  0  0  0  0  0  0  0  0  0
  1  2  1  1  0  0  0
  1  3  1  0  0  0  0
  1  8  1  0  0  0  0
  3  4  1  0  0  0  0
  3 32  1  1  0  0  0
  4  5  1  0  0  0  0
  4 33  1  6  0  0  0
  5  6  1  1  0  0  0
  5  7  1  0  0  0  0
  7  8  1  0  0  0  0
  7  9  1  6  0  0  0
  9 10  1  0  0  0  0
 11 12  1  6  0  0  0
 11 13  1  0  0  0  0
 11 19  1  0  0  0  0
 12 35  1  0  0  0  0
 13 14  1  0  0  0  0
 14 15  1  6  0  0  0
 14 16  1  0  0  0  0
 16  2  1  1  0  0  0
 16 17  1  0  0  0  0
 17 18  1  6  0  0  0
 17 19  1  0  0  0  0
 19 20  1  1  0  0  0
 21 20  1  6  0  0  0
 21 22  1  0  0  0  0
 21 29  1  0  0  0  0
 22 23  1  6  0  0  0
 22 24  1  0  0  0  0
 24 25  1  1  0  0  0
 24 26  1  0  0  0  0
 26 27  1  6  0  0  0
 26 28  1  0  0  0  0
 28 29  1  0  0  0  0
 28 30  1  1  0  0  0
 30 31  1  0  0  0  0
 34 39  1  0  0  0  0
 35 36  2  0  0  0  0
 37 35  1  6  0  0  0
 37 38  1  0  0  0  0
 37 40  1  0  0  0  0
 38 39  1  0  0  0  0
M  END
>  <CHROM.1>
112.12364689,-106.13468049,-13.06097361,-132.54584485,-67.67813570,178.65514391
-169.96101122,-103.05606615,61.73999198,-39.44709790,21.91752599,3.22837342
14.92601742,-2.66281841,0.76851652,2.95927902

>  <Name>
2g5q_lig

>  <RI>
0

>  <Rbt.Current_Directory>
/home/itssahil/PROJECTS/Mol_Feturizer/New_Systems/rnas/2g5q

>  <Rbt.Executable>
rbdock ($Id: //depot/dev/client3/rdock/2013.1/src/exe/rbdock.cxx#4 $)

>  <Rbt.Library>
libRbt.so (2013.1, Build901 2013/11/27)

>  <Rbt.Parameter_File>
/export/apps/rDock/src/rDock_2013.1_src/data/scripts/dock_solv.prm

>  <Rbt.Receptor>
prm/blind_docking_80.prm

>  <SCORE>
36.3921

>  <SCORE.INTER>
14.1976

>  <SCORE.INTER.CONST>
1

>  <SCORE.INTER.POLAR>
-0.746465

>  <SCORE.INTER.ROT>
10

>  <SCORE.INTER.SOLV>
20.9426

>  <SCORE.INTER.VDW>
-5.29426

>  <SCORE.INTER.norm>
0.35494

>  <SCORE.INTRA>
11.3434

>  <SCORE.INTRA.DIHEDRAL>
0.695921

>  <SCORE.INTRA.DIHEDRAL.0>
22.5778

>  <SCORE.INTRA.POLAR>
0

>  <SCORE.INTRA.POLAR.0>
0

>  <SCORE.INTRA.REPUL>
0.0438473

>  <SCORE.INTRA.REPUL.0>
0

>  <SCORE.INTRA.SOLV>
13.3454

>  <SCORE.INTRA.SOLV.lig_0>
-102.332

>  <SCORE.INTRA.VDW>
4.10356

>  <SCORE.INTRA.VDW.0>
-5.08747

>  <SCORE.INTRA.norm>
0.283586

>  <SCORE.RESTR>
10.851

>  <SCORE.RESTR.CAVITY>
10.851

>  <SCORE.RESTR.norm>
0.271276

>  <SCORE.SYSTEM>
0

>  <SCORE.SYSTEM.CONST>
0

>  <SCORE.SYSTEM.DIHEDRAL>
0

>  <SCORE.SYSTEM.SOLV>
0

>  <SCORE.SYSTEM.norm>
0

>  <SCORE.heavy>
40

>  <SCORE.norm>
0.909802

>  <RMSD>
25.991

$$$$
2g5q_lig
 OpenBabel11021811433D
libRbt.so/2013.1/901 2013/11/27
 40 42  0  0  0  0  0  0  0  0999 V2000
   19.1468    5.1196   11.1284 C   0  0  2  0  0  0  0  0  0  0  0  0
   19.2954    4.8678   12.5082 O   0  0  0  0  0  0  0  0  0  0  0  0
   18.9929    6.6539   10.9118 C   0  0  1  0  0  0  0  0  0  0  0  0
   17.6611    7.1962   11.5167 C   0  0  2  0  0  0  0  0  0  0  0  0
   16.4890    6.4510   10.8269 C   0  0  2  0  0  0  0  0  0  0  0  0
   15.2401    6.9403   11.3420 O   0  0  0  0  0  0  0  0  0  0  0  0
   16.6532    4.9021   11.1057 C   0  0  2  0  0  0  0  0  0  0  0  0
   17.9589    4.4224   10.5691 O   0  0  0  0  0  0  0  0  0  0  0  0
   15.5548    4.0660   10.4575 C   0  0  0  0  0  0  0  0  0  0  0  0
   15.6171    4.1187    8.9625 N   0  0  0  0  0  0  0  0  0  0  0  0
   21.6158    1.9702   14.8098 C   0  0  2  0  0  0  0  0  0  0  0  0
   22.7440    1.2156   15.3422 N   0  0  0  0  0  0  0  0  0  0  0  0
   21.5401    1.8052   13.2341 C   0  0  0  0  0  0  0  0  0  0  0  0
   20.3148    2.6154   12.6538 C   0  0  2  0  0  0  0  0  0  0  0  0
   20.2484    2.4434   11.1773 N   0  0  0  0  0  0  0  0  0  0  0  0
   20.4550    4.1390   13.0500 C   0  0  2  0  0  0  0  0  0  0  0  0
   20.5316    4.2625   14.6234 C   0  0  2  0  0  0  0  0  0  0  0  0
   20.6648    5.6422   14.9795 O   0  0  0  0  0  0  0  0  0  0  0  0
   21.7692    3.4601   15.1797 C   0  0  1  0  0  0  0  0  0  0  0  0
   21.8303    3.5653   16.6300 O   0  0  0  0  0  0  0  0  0  0  0  0
   22.6701    2.7844   17.4443 C   0  0  2  0  0  0  0  0  0  0  0  0
   22.3939    3.1921   18.9311 C   0  0  2  0  0  0  0  0  0  0  0  0
   21.0578    2.9534   19.2381 O   0  0  0  0  0  0  0  0  0  0  0  0
   22.7699    4.7007   19.1868 C   0  0  1  0  0  0  0  0  0  0  0  0
   22.5131    5.0997   20.6099 N   0  0  0  0  0  0  0  0  0  0  0  0
   24.2923    4.9028   18.8142 C   0  0  2  0  0  0  0  0  0  0  0  0
   24.6955    6.2562   19.0333 O   0  0  0  0  0  0  0  0  0  0  0  0
   24.5009    4.4809   17.3205 C   0  0  2  0  0  0  0  0  0  0  0  0
   24.0769    3.0558   17.0988 O   0  0  0  0  0  0  0  0  0  0  0  0
   25.9355    4.6160   16.8994 C   0  0  0  0  0  0  0  0  0  0  0  0
   26.8077    3.8848   17.7766 O   0  0  0  0  0  0  0  0  0  0  0  0
   20.1559    7.3237   11.5092 O   0  0  0  0  0  0  0  0  0  0  0  0
   17.5711    8.5511   11.2854 O   0  0  0  0  0  0  0  0  0  0  0  0
   26.4767    1.5520   18.8641 N   0  0  0  0  0  0  0  0  0  0  0  0
   22.6481    0.1406   16.2149 C   0  0  0  0  0  0  0  0  0  0  0  0
   21.5874   -0.2961   16.6478 O   0  0  0  0  0  0  0  0  0  0  0  0
   24.0314   -0.4359   16.5953 C   0  0  1  0  0  0  0  0  0  0  0  0
   24.5965    0.3110   17.8204 C   0  0  0  0  0  0  0  0  0  0  0  0
   25.9573    0.9880   17.6199 C   0  0  0  0  0  0  0  0  0  0  0  0
   23.8961   -1.8487   16.8692 O   0  0  0  0  0  0  0  0  0  0  0  0
  1  2  1  1  0  0  0
  1  3  1  0  0  0  0
  1  8  1  0  0  0  0
  3  4  1  0  0  0  0
  3 32  1  1  0  0  0
  4  5  1  0  0  0  0
  4 33  1  6  0  0  0
  5  6  1  1  0  0  0
  5  7  1  0  0  0  0
  7  8  1  0  0  0  0
  7  9  1  6  0  0  0
  9 10  1  0  0  0  0
 11 12  1  6  0  0  0
 11 13  1  0  0  0  0
 11 19  1  0  0  0  0
 12 35  1  0  0  0  0
 13 14  1  0  0  0  0
 14 15  1  6  0  0  0
 14 16  1  0  0  0  0
 16  2  1  1  0  0  0
 16 17  1  0  0  0  0
 17 18  1  6  0  0  0
 17 19  1  0  0  0  0
 19 20  1  1  0  0  0
 21 20  1  6  0  0  0
 21 22  1  0  0  0  0
 21 29  1  0  0  0  0
 22 23  1  6  0  0  0
 22 24  1  0  0  0  0
 24 25  1  1  0  0  0
 24 26  1  0  0  0  0
 26 27  1  6  0  0  0
 26 28  1  0  0  0  0
 28 29  1  0  0  0  0
 28 30  1  1  0  0  0
 30 31  1  0  0  0  0
 34 39  1  0  0  0  0
 35 36  2  0  0  0  0
 37 35  1  1  0  0  0
 37 38  1  0  0  0  0
 37 40  1  0  0  0  0
 38 39  1  0  0  0  0
M  END
>  <CHROM.1>
-123.72602721,65.73859848,-116.43407727,-71.90605871,49.15944478,-178.58630466
54.80225981,87.90277317,-121.99765363,-174.16950801,21.32320266,3.72677236
14.92858435,3.01192160,-0.83678296,0.26096377

>  <Name>
2g5q_lig

>  <RI>
0

>  <Rbt.Current_Directory>
/home/itssahil/PROJECTS/Mol_Feturizer/New_Systems/rnas/2g5q

>  <Rbt.Executable>
rbdock ($Id: //depot/dev/client3/rdock/2013.1/src/exe/rbdock.cxx#4 $)

>  <Rbt.Library>
libRbt.so (2013.1, Build901 2013/11/27)

>  <Rbt.Parameter_File>
/export/apps/rDock/src/rDock_2013.1_src/data/scripts/dock_solv.prm

>  <Rbt.Receptor>
prm/blind_docking_80.prm

>  <SCORE>
24.9909

>  <SCORE.INTER>
12.2948

>  <SCORE.INTER.CONST>
1

>  <SCORE.INTER.POLAR>
0

>  <SCORE.INTER.ROT>
10

>  <SCORE.INTER.SOLV>
22.4705

>  <SCORE.INTER.VDW>
-9.56027

>  <SCORE.INTER.norm>
0.307371

>  <SCORE.INTRA>
1.38649

>  <SCORE.INTRA.DIHEDRAL>
-5.98313

>  <SCORE.INTRA.DIHEDRAL.0>
22.5778

>  <SCORE.INTRA.POLAR>
0

>  <SCORE.INTRA.POLAR.0>
0

>  <SCORE.INTRA.REPUL>
0

>  <SCORE.INTRA.REPUL.0>
0

>  <SCORE.INTRA.SOLV>
6.61012

>  <SCORE.INTRA.SOLV.lig_0>
-102.332

>  <SCORE.INTRA.VDW>
1.07299

>  <SCORE.INTRA.VDW.0>
-5.08747

>  <SCORE.INTRA.norm>
0.0346622

>  <SCORE.RESTR>
11.3095

>  <SCORE.RESTR.CAVITY>
11.3095

>  <SCORE.RESTR.norm>
0.282739

>  <SCORE.SYSTEM>
0

>  <SCORE.SYSTEM.CONST>
0

>  <SCORE.SYSTEM.DIHEDRAL>
0

>  <SCORE.SYSTEM.SOLV>
0

>  <SCORE.SYSTEM.norm>
0

>  <SCORE.heavy>
40

>  <SCORE.norm>
0.624772

>  <RMSD>
26.001

$$$$
2g5q_lig
 OpenBabel11021811433D
libRbt.so/2013.1/901 2013/11/27
 40 42  0  0  0  0  0  0  0  0999 V2000
   19.7878    6.3384   11.7563 C   0  0  2  0  0  0  0  0  0  0  0  0
   19.7056    6.0673   13.1380 O   0  0  0  0  0  0  0  0  0  0  0  0
   18.8763    5.3333   10.9924 C   0  0  1  0  0  0  0  0  0  0  0  0
   19.4066    3.8700   11.0989 C   0  0  2  0  0  0  0  0  0  0  0  0
   20.8362    3.8390   10.4987 C   0  0  2  0  0  0  0  0  0  0  0  0
   21.3522    2.4993   10.5574 O   0  0  0  0  0  0  0  0  0  0  0  0
   21.7437    4.8364   11.3268 C   0  0  2  0  0  0  0  0  0  0  0  0
   21.1823    6.2158   11.2559 O   0  0  0  0  0  0  0  0  0  0  0  0
   23.1775    4.8966   10.8108 C   0  0  0  0  0  0  0  0  0  0  0  0
   24.0179    5.8539   11.5976 N   0  0  0  0  0  0  0  0  0  0  0  0
   20.4656    2.9287   16.0789 C   0  0  2  0  0  0  0  0  0  0  0  0
   20.8476    1.6498   16.6657 N   0  0  0  0  0  0  0  0  0  0  0  0
   19.2909    2.7233   15.0331 C   0  0  0  0  0  0  0  0  0  0  0  0
   18.8690    4.1075   14.4001 C   0  0  2  0  0  0  0  0  0  0  0  0
   17.7596    3.9027   13.4298 N   0  0  0  0  0  0  0  0  0  0  0  0
   20.1233    4.7750   13.7078 C   0  0  2  0  0  0  0  0  0  0  0  0
   21.2714    4.9590   14.7777 C   0  0  2  0  0  0  0  0  0  0  0  0
   22.4081    5.5576   14.1473 O   0  0  0  0  0  0  0  0  0  0  0  0
   21.6876    3.5651   15.3850 C   0  0  1  0  0  0  0  0  0  0  0  0
   22.7365    3.7388   16.3789 O   0  0  0  0  0  0  0  0  0  0  0  0
   23.3090    2.6865   17.1157 C   0  0  2  0  0  0  0  0  0  0  0  0
   23.2716    3.0967   18.6269 C   0  0  2  0  0  0  0  0  0  0  0  0
   21.9530    3.3058   19.0193 O   0  0  0  0  0  0  0  0  0  0  0  0
   24.1479    4.3795   18.8902 C   0  0  1  0  0  0  0  0  0  0  0  0
   24.1222    4.7779   20.3362 N   0  0  0  0  0  0  0  0  0  0  0  0
   25.6255    4.0765   18.4187 C   0  0  2  0  0  0  0  0  0  0  0  0
   26.4730    5.2056   18.6402 O   0  0  0  0  0  0  0  0  0  0  0  0
   25.5942    3.6759   16.9050 C   0  0  2  0  0  0  0  0  0  0  0  0
   24.7029    2.4863   16.6808 O   0  0  0  0  0  0  0  0  0  0  0  0
   26.9640    3.3414   16.3897 C   0  0  0  0  0  0  0  0  0  0  0  0
   27.8256    4.4912   16.4137 O   0  0  0  0  0  0  0  0  0  0  0  0
   17.5144    5.4423   11.5324 O   0  0  0  0  0  0  0  0  0  0  0  0
   18.5727    3.0282   10.3965 O   0  0  0  0  0  0  0  0  0  0  0  0
   23.4852    0.3512   14.7076 N   0  0  0  0  0  0  0  0  0  0  0  0
   20.9447    0.4493   15.9761 C   0  0  0  0  0  0  0  0  0  0  0  0
   20.7089    0.3275   14.7791 O   0  0  0  0  0  0  0  0  0  0  0  0
   21.3673   -0.7238   16.8902 C   0  0  1  0  0  0  0  0  0  0  0  0
   22.8025   -1.1713   16.5461 C   0  0  0  0  0  0  0  0  0  0  0  0
   23.7544   -0.0623   16.0832 C   0  0  0  0  0  0  0  0  0  0  0  0
   21.2740   -0.3055   18.2706 O   0  0  0  0  0  0  0  0  0  0  0  0
  1  2  1  1  0  0  0
  1  3  1  0  0  0  0
  1  8  1  0  0  0  0
  3  4  1  0  0  0  0
  3 32  1  1  0  0  0
  4  5  1  0  0  0  0
  4 33  1  6  0  0  0
  5  6  1  1  0  0  0
  5  7  1  0  0  0  0
  7  8  1  0  0  0  0
  7  9  1  6  0  0  0
  9 10  1  0  0  0  0
 11 12  1  6  0  0  0
 11 13  1  0  0  0  0
 11 19  1  0  0  0  0
 12 35  1  0  0  0  0
 13 14  1  0  0  0  0
 14 15  1  6  0  0  0
 14 16  1  0  0  0  0
 16  2  1  1  0  0  0
 16 17  1  0  0  0  0
 17 18  1  6  0  0  0
 17 19  1  0  0  0  0
 19 20  1  1  0  0  0
 21 20  1  6  0  0  0
 21 22  1  0  0  0  0
 21 29  1  0  0  0  0
 22 23  1  6  0  0  0
 22 24  1  0  0  0  0
 24 25  1  1  0  0  0
 24 26  1  0  0  0  0
 26 27  1  6  0  0  0
 26 28  1  0  0  0  0
 28 29  1  0  0  0  0
 28 30  1  1  0  0  0
 30 31  1  0  0  0  0
 34 39  1  0  0  0  0
 35 36  2  0  0  0  0
 37 35  1  6  0  0  0
 37 38  1  0  0  0  0
 37 40  1  0  0  0  0
 38 39  1  0  0  0  0
M  END
>  <CHROM.1>
61.56995228,179.47921397,39.95662488,-118.94770944,59.59323961,-129.73690841
-64.88324559,-109.94169441,33.31138378,-75.67358509,22.01409250,3.42359740
14.88167582,-2.34079519,0.56820023,2.32822602

>  <Name>
2g5q_lig

>  <RI>
0

>  <Rbt.Current_Directory>
/home/itssahil/PROJECTS/Mol_Feturizer/New_Systems/rnas/2g5q

>  <Rbt.Executable>
rbdock ($Id: //depot/dev/client3/rdock/2013.1/src/exe/rbdock.cxx#4 $)

>  <Rbt.Library>
libRbt.so (2013.1, Build901 2013/11/27)

>  <Rbt.Parameter_File>
/export/apps/rDock/src/rDock_2013.1_src/data/scripts/dock_solv.prm

>  <Rbt.Receptor>
prm/blind_docking_80.prm

>  <SCORE>
53.4782

>  <SCORE.INTER>
32.1267

>  <SCORE.INTER.CONST>
1

>  <SCORE.INTER.POLAR>
-0.187733

>  <SCORE.INTER.ROT>
10

>  <SCORE.INTER.SOLV>
14.6956

>  <SCORE.INTER.VDW>
6.87837

>  <SCORE.INTER.norm>
0.803168

>  <SCORE.INTRA>
8.57837

>  <SCORE.INTRA.DIHEDRAL>
-2.90797

>  <SCORE.INTRA.DIHEDRAL.0>
22.5778

>  <SCORE.INTRA.POLAR>
0

>  <SCORE.INTRA.POLAR.0>
0

>  <SCORE.INTRA.REPUL>
0

>  <SCORE.INTRA.REPUL.0>
0

>  <SCORE.INTRA.SOLV>
13.0102

>  <SCORE.INTRA.SOLV.lig_0>
-102.332

>  <SCORE.INTRA.VDW>
3.52725

>  <SCORE.INTRA.VDW.0>
-5.08747

>  <SCORE.INTRA.norm>
0.214459

>  <SCORE.RESTR>
12.7731

>  <SCORE.RESTR.CAVITY>
12.7731

>  <SCORE.RESTR.norm>
0.319329

>  <SCORE.SYSTEM>
0

>  <SCORE.SYSTEM.CONST>
0

>  <SCORE.SYSTEM.DIHEDRAL>
0

>  <SCORE.SYSTEM.SOLV>
0

>  <SCORE.SYSTEM.norm>
0

>  <SCORE.heavy>
40

>  <SCORE.norm>
1.33696

>  <RMSD>
26.006

$$$$
2g5q_lig
 OpenBabel11021811433D
libRbt.so/2013.1/901 2013/11/27
 40 42  0  0  0  0  0  0  0  0999 V2000
   18.9100    5.1011   10.8345 C   0  0  2  0  0  0  0  0  0  0  0  0
   19.0943    4.4735   12.0841 O   0  0  0  0  0  0  0  0  0  0  0  0
   18.7649    6.6351   11.0596 C   0  0  1  0  0  0  0  0  0  0  0  0
   17.4557    6.9887   11.8307 C   0  0  2  0  0  0  0  0  0  0  0  0
   16.2578    6.4679   10.9949 C   0  0  2  0  0  0  0  0  0  0  0  0
   15.0285    6.7957   11.6625 O   0  0  0  0  0  0  0  0  0  0  0  0
   16.4147    4.9025   10.8250 C   0  0  2  0  0  0  0  0  0  0  0  0
   17.7003    4.5899   10.1377 O   0  0  0  0  0  0  0  0  0  0  0  0
   15.2907    4.2826   10.0016 C   0  0  0  0  0  0  0  0  0  0  0  0
   15.5950    2.8701    9.6091 N   0  0  0  0  0  0  0  0  0  0  0  0
   22.6172    3.8752   14.5958 C   0  0  2  0  0  0  0  0  0  0  0  0
   23.7774    4.1504   15.4347 N   0  0  0  0  0  0  0  0  0  0  0  0
   22.8052    4.5350   13.1657 C   0  0  0  0  0  0  0  0  0  0  0  0
   21.5535    4.2332   12.2511 C   0  0  2  0  0  0  0  0  0  0  0  0
   21.7473    4.8477   10.9099 N   0  0  0  0  0  0  0  0  0  0  0  0
   20.2454    4.7787   12.9506 C   0  0  2  0  0  0  0  0  0  0  0  0
   20.0948    4.1033   14.3711 C   0  0  2  0  0  0  0  0  0  0  0  0
   18.9133    4.6034   15.0051 O   0  0  0  0  0  0  0  0  0  0  0  0
   21.3464    4.4298   15.2722 C   0  0  1  0  0  0  0  0  0  0  0  0
   21.2108    3.7963   16.5755 O   0  0  0  0  0  0  0  0  0  0  0  0
   20.8269    2.4568   16.7670 C   0  0  2  0  0  0  0  0  0  0  0  0
   20.9197    2.1566   18.3014 C   0  0  2  0  0  0  0  0  0  0  0  0
   20.0684    3.0117   18.9947 O   0  0  0  0  0  0  0  0  0  0  0  0
   22.4013    2.2945   18.8197 C   0  0  1  0  0  0  0  0  0  0  0  0
   22.5013    2.0043   20.2881 N   0  0  0  0  0  0  0  0  0  0  0  0
   23.3117    1.3048   17.9896 C   0  0  2  0  0  0  0  0  0  0  0  0
   24.6718    1.3798   18.4213 O   0  0  0  0  0  0  0  0  0  0  0  0
   23.1761    1.6577   16.4699 C   0  0  2  0  0  0  0  0  0  0  0  0
   21.7432    1.5741   16.0230 O   0  0  0  0  0  0  0  0  0  0  0  0
   23.9916    0.7363   15.6099 C   0  0  0  0  0  0  0  0  0  0  0  0
   23.5246   -0.6191   15.7084 O   0  0  0  0  0  0  0  0  0  0  0  0
   19.9505    7.1094   11.7861 O   0  0  0  0  0  0  0  0  0  0  0  0
   17.3725    8.3545   11.9898 O   0  0  0  0  0  0  0  0  0  0  0  0
   27.7654    3.1991   16.9082 N   0  0  0  0  0  0  0  0  0  0  0  0
   23.7317    4.4751   16.7833 C   0  0  0  0  0  0  0  0  0  0  0  0
   22.6933    4.5755   17.4275 O   0  0  0  0  0  0  0  0  0  0  0  0
   25.1376    4.7137   17.3808 C   0  0  1  0  0  0  0  0  0  0  0  0
   26.1552    4.9711   16.2511 C   0  0  0  0  0  0  0  0  0  0  0  0
   26.9819    3.7582   15.8085 C   0  0  0  0  0  0  0  0  0  0  0  0
   25.0809    5.8359   18.2902 O   0  0  0  0  0  0  0  0  0  0  0  0
  1  2  1  1  0  0  0
  1  3  1  0  0  0  0
  1  8  1  0  0  0  0
  3  4  1  0  0  0  0
  3 32  1  1  0  0  0
  4  5  1  0  0  0  0
  4 33  1  6  0  0  0
  5  6  1  1  0  0  0
  5  7  1  0  0  0  0
  7  8  1  0  0  0  0
  7  9  1  6  0  0  0
  9 10  1  0  0  0  0
 11 12  1  1  0  0  0
 11 13  1  0  0  0  0
 11 19  1  0  0  0  0
 12 35  1  0  0  0  0
 13 14  1  0  0  0  0
 14 15  1  6  0  0  0
 14 16  1  0  0  0  0
 16  2  1  6  0  0  0
 16 17  1  0  0  0  0
 17 18  1  1  0  0  0
 17 19  1  0  0  0  0
 19 20  1  1  0  0  0
 21 20  1  1  0  0  0
 21 22  1  0  0  0  0
 21 29  1  0  0  0  0
 22 23  1  1  0  0  0
 22 24  1  0  0  0  0
 24 25  1  1  0  0  0
 24 26  1  0  0  0  0
 26 27  1  1  0  0  0
 26 28  1  0  0  0  0
 28 29  1  0  0  0  0
 28 30  1  6  0  0  0
 30 31  1  0  0  0  0
 34 39  1  0  0  0  0
 35 36  2  0  0  0  0
 37 35  1  6  0  0  0
 37 38  1  0  0  0  0
 37 40  1  0  0  0  0
 38 39  1  0  0  0  0
M  END
>  <CHROM.1>
-61.09363816,168.10232823,139.54293733,-68.27481654,-72.69815870,175.49479858
63.54995672,18.10404388,-97.29687293,-59.45082636,21.14958810,4.04157003
14.65153842,-2.38563504,0.24593496,2.23763701

>  <Name>
2g5q_lig

>  <RI>
0

>  <Rbt.Current_Directory>
/home/itssahil/PROJECTS/Mol_Feturizer/New_Systems/rnas/2g5q

>  <Rbt.Executable>
rbdock ($Id: //depot/dev/client3/rdock/2013.1/src/exe/rbdock.cxx#4 $)

>  <Rbt.Library>
libRbt.so (2013.1, Build901 2013/11/27)

>  <Rbt.Parameter_File>
/export/apps/rDock/src/rDock_2013.1_src/data/scripts/dock_solv.prm

>  <Rbt.Receptor>
prm/blind_docking_80.prm

>  <SCORE>
26.1205

>  <SCORE.INTER>
0.416612

>  <SCORE.INTER.CONST>
1

>  <SCORE.INTER.POLAR>
-1.32673

>  <SCORE.INTER.ROT>
10

>  <SCORE.INTER.SOLV>
23.0245

>  <SCORE.INTER.VDW>
-13.2414

>  <SCORE.INTER.norm>
0.0104153

>  <SCORE.INTRA>
16.1559

>  <SCORE.INTRA.DIHEDRAL>
-14.3012

>  <SCORE.INTRA.DIHEDRAL.0>
22.5778

>  <SCORE.INTRA.POLAR>
0

>  <SCORE.INTRA.POLAR.0>
0

>  <SCORE.INTRA.REPUL>
0

>  <SCORE.INTRA.REPUL.0>
0

>  <SCORE.INTRA.SOLV>
6.60654

>  <SCORE.INTRA.SOLV.lig_0>
-102.332

>  <SCORE.INTRA.VDW>
20.0032

>  <SCORE.INTRA.VDW.0>
-5.08747

>  <SCORE.INTRA.norm>
0.403897

>  <SCORE.RESTR>
9.54804

>  <SCORE.RESTR.CAVITY>
9.54804

>  <SCORE.RESTR.norm>
0.238701

>  <SCORE.SYSTEM>
0

>  <SCORE.SYSTEM.CONST>
0

>  <SCORE.SYSTEM.DIHEDRAL>
0

>  <SCORE.SYSTEM.SOLV>
0

>  <SCORE.SYSTEM.norm>
0

>  <SCORE.heavy>
40

>  <SCORE.norm>
0.653014

>  <RMSD>
26.017

$$$$
2g5q_lig
 OpenBabel11021811433D
libRbt.so/2013.1/901 2013/11/27
 40 42  0  0  0  0  0  0  0  0999 V2000
   18.6206    4.8965   12.2785 C   0  0  2  0  0  0  0  0  0  0  0  0
   19.7132    5.6952   11.8812 O   0  0  0  0  0  0  0  0  0  0  0  0
   18.0544    4.1624   11.0274 C   0  0  1  0  0  0  0  0  0  0  0  0
   17.4153    5.1565   10.0092 C   0  0  2  0  0  0  0  0  0  0  0  0
   16.2705    5.9090   10.7359 C   0  0  2  0  0  0  0  0  0  0  0  0
   15.6396    6.8207    9.8220 O   0  0  0  0  0  0  0  0  0  0  0  0
   16.8893    6.6783   11.9727 C   0  0  2  0  0  0  0  0  0  0  0  0
   17.5436    5.7113   12.8999 O   0  0  0  0  0  0  0  0  0  0  0  0
   15.8432    7.4467   12.7732 C   0  0  0  0  0  0  0  0  0  0  0  0
   14.8573    6.5327   13.4323 N   0  0  0  0  0  0  0  0  0  0  0  0
   23.1905    4.4775   14.2272 C   0  0  2  0  0  0  0  0  0  0  0  0
   24.4244    4.5405   15.0012 N   0  0  0  0  0  0  0  0  0  0  0  0
   23.4224    5.0730   12.7755 C   0  0  0  0  0  0  0  0  0  0  0  0
   22.0898    5.0002   11.9310 C   0  0  2  0  0  0  0  0  0  0  0  0
   22.3236    5.5511   10.5687 N   0  0  0  0  0  0  0  0  0  0  0  0
   20.9453    5.7897   12.6826 C   0  0  2  0  0  0  0  0  0  0  0  0
   20.7467    5.1718   14.1232 C   0  0  2  0  0  0  0  0  0  0  0  0
   19.7145    5.8922   14.8041 O   0  0  0  0  0  0  0  0  0  0  0  0
   22.0831    5.2687   14.9537 C   0  0  1  0  0  0  0  0  0  0  0  0
   21.9008    4.6877   16.2756 O   0  0  0  0  0  0  0  0  0  0  0  0
   20.7615    3.9635   16.6702 C   0  0  2  0  0  0  0  0  0  0  0  0
   20.9949    3.4877   18.1441 C   0  0  2  0  0  0  0  0  0  0  0  0
   21.1778    4.5951   18.9667 O   0  0  0  0  0  0  0  0  0  0  0  0
   22.2247    2.5071   18.2376 C   0  0  1  0  0  0  0  0  0  0  0  0
   22.4537    2.0420   19.6452 N   0  0  0  0  0  0  0  0  0  0  0  0
   21.9552    1.2801   17.2788 C   0  0  2  0  0  0  0  0  0  0  0  0
   23.0377    0.3485   17.3264 O   0  0  0  0  0  0  0  0  0  0  0  0
   21.7327    1.8212   15.8261 C   0  0  2  0  0  0  0  0  0  0  0  0
   20.5911    2.7983   15.7840 O   0  0  0  0  0  0  0  0  0  0  0  0
   21.4386    0.7119   14.8583 C   0  0  0  0  0  0  0  0  0  0  0  0
   22.3990   -0.3506   14.9750 O   0  0  0  0  0  0  0  0  0  0  0  0
   19.1452    3.3989   10.4067 O   0  0  0  0  0  0  0  0  0  0  0  0
   16.9205    4.4544    8.9323 O   0  0  0  0  0  0  0  0  0  0  0  0
   25.0542    5.4785   19.9690 N   0  0  0  0  0  0  0  0  0  0  0  0
   24.8301    3.6017   15.9394 C   0  0  0  0  0  0  0  0  0  0  0  0
   24.1818    2.6028   16.2316 O   0  0  0  0  0  0  0  0  0  0  0  0
   26.1852    3.9645   16.5895 C   0  0  1  0  0  0  0  0  0  0  0  0
   26.0116    4.1370   18.1120 C   0  0  0  0  0  0  0  0  0  0  0  0
   24.9388    5.1400   18.5519 C   0  0  0  0  0  0  0  0  0  0  0  0
   27.1452    2.9251   16.2938 O   0  0  0  0  0  0  0  0  0  0  0  0
  1  2  1  6  0  0  0
  1  3  1  0  0  0  0
  1  8  1  0  0  0  0
  3  4  1  0  0  0  0
  3 32  1  6  0  0  0
  4  5  1  0  0  0  0
  4 33  1  6  0  0  0
  5  6  1  6  0  0  0
  5  7  1  0  0  0  0
  7  8  1  0  0  0  0
  7  9  1  1  0  0  0
  9 10  1  0  0  0  0
 11 12  1  1  0  0  0
 11 13  1  0  0  0  0
 11 19  1  0  0  0  0
 12 35  1  0  0  0  0
 13 14  1  0  0  0  0
 14 15  1  6  0  0  0
 14 16  1  0  0  0  0
 16  2  1  6  0  0  0
 16 17  1  0  0  0  0
 17 18  1  1  0  0  0
 17 19  1  0  0  0  0
 19 20  1  1  0  0  0
 21 20  1  6  0  0  0
 21 22  1  0  0  0  0
 21 29  1  0  0  0  0
 22 23  1  1  0  0  0
 22 24  1  0  0  0  0
 24 25  1  1  0  0  0
 24 26  1  0  0  0  0
 26 27  1  6  0  0  0
 26 28  1  0  0  0  0
 28 29  1  0  0  0  0
 28 30  1  6  0  0  0
 30 31  1  0  0  0  0
 34 39  1  0  0  0  0
 35 36  2  0  0  0  0
 37 35  1  6  0  0  0
 37 38  1  0  0  0  0
 37 40  1  0  0  0  0
 38 39  1  0  0  0  0
M  END
>  <CHROM.1>
-138.46490030,65.43431834,-145.34169143,107.71022672,-110.38748692,178.38246628
-49.65891892,119.53427618,-54.73840424,-166.38437567,21.10322718,4.21423559
14.56245478,-2.38520358,-0.23913994,1.70984426

>  <Name>
2g5q_lig

>  <RI>
0

>  <Rbt.Current_Directory>
/home/itssahil/PROJECTS/Mol_Feturizer/New_Systems/rnas/2g5q

>  <Rbt.Executable>
rbdock ($Id: //depot/dev/client3/rdock/2013.1/src/exe/rbdock.cxx#4 $)

>  <Rbt.Library>
libRbt.so (2013.1, Build901 2013/11/27)

>  <Rbt.Parameter_File>
/export/apps/rDock/src/rDock_2013.1_src/data/scripts/dock_solv.prm

>  <Rbt.Receptor>
prm/blind_docking_80.prm

>  <SCORE>
11.2912

>  <SCORE.INTER>
-2.15655

>  <SCORE.INTER.CONST>
1

>  <SCORE.INTER.POLAR>
-0.724807

>  <SCORE.INTER.ROT>
10

>  <SCORE.INTER.SOLV>
16.2126

>  <SCORE.INTER.VDW>
-14.6925

>  <SCORE.INTER.norm>
-0.0539137

>  <SCORE.INTRA>
4.33097

>  <SCORE.INTRA.DIHEDRAL>
0.780893

>  <SCORE.INTRA.DIHEDRAL.0>
22.5778

>  <SCORE.INTRA.POLAR>
0

>  <SCORE.INTRA.POLAR.0>
0

>  <SCORE.INTRA.REPUL>
0

>  <SCORE.INTRA.REPUL.0>
0

>  <SCORE.INTRA.SOLV>
4.09326

>  <SCORE.INTRA.SOLV.lig_0>
-102.332

>  <SCORE.INTRA.VDW>
1.8939

>  <SCORE.INTRA.VDW.0>
-5.08747

>  <SCORE.INTRA.norm>
0.108274

>  <SCORE.RESTR>
9.11675

>  <SCORE.RESTR.CAVITY>
9.11675

>  <SCORE.RESTR.norm>
0.227919

>  <SCORE.SYSTEM>
0

>  <SCORE.SYSTEM.CONST>
0

>  <SCORE.SYSTEM.DIHEDRAL>
0

>  <SCORE.SYSTEM.SOLV>
0

>  <SCORE.SYSTEM.norm>
0

>  <SCORE.heavy>
40

>  <SCORE.norm>
0.282279

>  <RMSD>
26.056

$$$$
2g5q_lig
 OpenBabel11021811433D
libRbt.so/2013.1/901 2013/11/27
 40 42  0  0  0  0  0  0  0  0999 V2000
   19.6508    6.3617   11.9235 C   0  0  2  0  0  0  0  0  0  0  0  0
   19.5260    5.9987   13.2807 O   0  0  0  0  0  0  0  0  0  0  0  0
   19.0857    5.2095   11.0415 C   0  0  1  0  0  0  0  0  0  0  0  0
   19.9548    3.9181   11.1446 C   0  0  2  0  0  0  0  0  0  0  0  0
   21.3909    4.2747   10.6808 C   0  0  2  0  0  0  0  0  0  0  0  0
   22.2191    3.1021   10.7394 O   0  0  0  0  0  0  0  0  0  0  0  0
   21.9488    5.4147   11.6259 C   0  0  2  0  0  0  0  0  0  0  0  0
   21.0679    6.6153   11.5523 O   0  0  0  0  0  0  0  0  0  0  0  0
   23.3593    5.8558   11.2494 C   0  0  0  0  0  0  0  0  0  0  0  0
   24.4061    5.0762   11.9829 N   0  0  0  0  0  0  0  0  0  0  0  0
   20.4711    2.7819   16.0800 C   0  0  2  0  0  0  0  0  0  0  0  0
   20.9067    1.4943   16.6074 N   0  0  0  0  0  0  0  0  0  0  0  0
   19.2656    2.5812   15.0690 C   0  0  0  0  0  0  0  0  0  0  0  0
   18.7858    3.9745   14.5006 C   0  0  2  0  0  0  0  0  0  0  0  0
   17.6482    3.7734   13.5628 N   0  0  0  0  0  0  0  0  0  0  0  0
   19.9969    4.6992   13.7894 C   0  0  2  0  0  0  0  0  0  0  0  0
   21.1774    4.8771   14.8246 C   0  0  2  0  0  0  0  0  0  0  0  0
   22.2751    5.5277   14.1767 O   0  0  0  0  0  0  0  0  0  0  0  0
   21.6508    3.4748   15.3671 C   0  0  1  0  0  0  0  0  0  0  0  0
   22.7297    3.6424   16.3296 O   0  0  0  0  0  0  0  0  0  0  0  0
   22.7774    3.0042   17.5820 C   0  0  2  0  0  0  0  0  0  0  0  0
   22.4210    4.0748   18.6683 C   0  0  2  0  0  0  0  0  0  0  0  0
   21.1461    4.5770   18.4253 O   0  0  0  0  0  0  0  0  0  0  0  0
   23.4874    5.2343   18.6961 C   0  0  1  0  0  0  0  0  0  0  0  0
   23.1571    6.2628   19.7370 N   0  0  0  0  0  0  0  0  0  0  0  0
   24.9072    4.5963   18.9695 C   0  0  2  0  0  0  0  0  0  0  0  0
   25.9191    5.6044   19.0135 O   0  0  0  0  0  0  0  0  0  0  0  0
   25.2034    3.5401   17.8518 C   0  0  2  0  0  0  0  0  0  0  0  0
   24.1361    2.4822   17.8137 O   0  0  0  0  0  0  0  0  0  0  0  0
   26.5278    2.8650   18.0614 C   0  0  0  0  0  0  0  0  0  0  0  0
   27.6127    3.8020   17.9610 O   0  0  0  0  0  0  0  0  0  0  0  0
   17.7004    4.9485   11.4548 O   0  0  0  0  0  0  0  0  0  0  0  0
   19.4185    2.9394   10.3371 O   0  0  0  0  0  0  0  0  0  0  0  0
   25.0389   -0.0470   18.0152 N   0  0  0  0  0  0  0  0  0  0  0  0
   21.4731    0.4723   15.8585 C   0  0  0  0  0  0  0  0  0  0  0  0
   21.6663    0.5369   14.6495 O   0  0  0  0  0  0  0  0  0  0  0  0
   21.8186   -0.7665   16.7167 C   0  0  1  0  0  0  0  0  0  0  0  0
   23.3161   -1.1066   16.5751 C   0  0  0  0  0  0  0  0  0  0  0  0
   24.2872    0.0641   16.7668 C   0  0  0  0  0  0  0  0  0  0  0  0
   21.4785   -0.4968   18.0954 O   0  0  0  0  0  0  0  0  0  0  0  0
  1  2  1  1  0  0  0
  1  3  1  0  0  0  0
  1  8  1  0  0  0  0
  3  4  1  0  0  0  0
  3 32  1  1  0  0  0
  4  5  1  0  0  0  0
  4 33  1  6  0  0  0
  5  6  1  1  0  0  0
  5  7  1  0  0  0  0
  7  8  1  0  0  0  0
  7  9  1  6  0  0  0
  9 10  1  0  0  0  0
 11 12  1  6  0  0  0
 11 13  1  0  0  0  0
 11 19  1  0  0  0  0
 12 35  1  0  0  0  0
 13 14  1  0  0  0  0
 14 15  1  6  0  0  0
 14 16  1  0  0  0  0
 16  2  1  1  0  0  0
 16 17  1  0  0  0  0
 17 18  1  6  0  0  0
 17 19  1  0  0  0  0
 19 20  1  1  0  0  0
 21 20  1  6  0  0  0
 21 22  1  0  0  0  0
 21 29  1  0  0  0  0
 22 23  1  6  0  0  0
 22 24  1  0  0  0  0
 24 25  1  1  0  0  0
 24 26  1  0  0  0  0
 26 27  1  6  0  0  0
 26 28  1  0  0  0  0
 28 29  1  0  0  0  0
 28 30  1  1  0  0  0
 30 31  1  0  0  0  0
 34 39  1  0  0  0  0
 35 36  2  0  0  0  0
 37 35  1  6  0  0  0
 37 38  1  0  0  0  0
 37 40  1  0  0  0  0
 38 39  1  0  0  0  0
M  END
>  <CHROM.1>
50.28689220,-91.26040030,64.77627047,-124.16551328,13.14616703,-104.69656401
-63.83501159,-123.35412355,49.42895762,109.21472127,22.04274449,3.53912440
15.16089269,-2.44581395,0.78400015,2.58175590

>  <Name>
2g5q_lig

>  <RI>
0

>  <Rbt.Current_Directory>
/home/itssahil/PROJECTS/Mol_Feturizer/New_Systems/rnas/2g5q

>  <Rbt.Executable>
rbdock ($Id: //depot/dev/client3/rdock/2013.1/src/exe/rbdock.cxx#4 $)

>  <Rbt.Library>
libRbt.so (2013.1, Build901 2013/11/27)

>  <Rbt.Parameter_File>
/export/apps/rDock/src/rDock_2013.1_src/data/scripts/dock_solv.prm

>  <Rbt.Receptor>
prm/blind_docking_80.prm

>  <SCORE>
65.9417

>  <SCORE.INTER>
36.9175

>  <SCORE.INTER.CONST>
1

>  <SCORE.INTER.POLAR>
-0.0780098

>  <SCORE.INTER.ROT>
10

>  <SCORE.INTER.SOLV>
17.9589

>  <SCORE.INTER.VDW>
8.61871

>  <SCORE.INTER.norm>
0.922937

>  <SCORE.INTRA>
16.1115

>  <SCORE.INTRA.DIHEDRAL>
8.26961

>  <SCORE.INTRA.DIHEDRAL.0>
22.5778

>  <SCORE.INTRA.POLAR>
0

>  <SCORE.INTRA.POLAR.0>
0

>  <SCORE.INTRA.REPUL>
0

>  <SCORE.INTRA.REPUL.0>
0

>  <SCORE.INTRA.SOLV>
11.3036

>  <SCORE.INTRA.SOLV.lig_0>
-102.332

>  <SCORE.INTRA.VDW>
6.32483

>  <SCORE.INTRA.VDW.0>
-5.08747

>  <SCORE.INTRA.norm>
0.402786

>  <SCORE.RESTR>
12.9128

>  <SCORE.RESTR.CAVITY>
12.9128

>  <SCORE.RESTR.norm>
0.32282

>  <SCORE.SYSTEM>
0

>  <SCORE.SYSTEM.CONST>
0

>  <SCORE.SYSTEM.DIHEDRAL>
0

>  <SCORE.SYSTEM.SOLV>
0

>  <SCORE.SYSTEM.norm>
0

>  <SCORE.heavy>
40

>  <SCORE.norm>
1.64854

>  <RMSD>
26.110

$$$$
2g5q_lig
 OpenBabel11021811433D
libRbt.so/2013.1/901 2013/11/27
 40 42  0  0  0  0  0  0  0  0999 V2000
   18.5823    4.6651   12.3218 C   0  0  2  0  0  0  0  0  0  0  0  0
   19.6031    5.5566   11.9312 O   0  0  0  0  0  0  0  0  0  0  0  0
   18.2033    3.7713   11.1043 C   0  0  1  0  0  0  0  0  0  0  0  0
   17.5350    4.5972    9.9619 C   0  0  2  0  0  0  0  0  0  0  0  0
   16.2581    5.2602   10.5408 C   0  0  2  0  0  0  0  0  0  0  0  0
   15.5994    6.0136    9.5098 O   0  0  0  0  0  0  0  0  0  0  0  0
   16.6862    6.1939   11.7445 C   0  0  2  0  0  0  0  0  0  0  0  0
   17.3735    5.3897   12.7950 O   0  0  0  0  0  0  0  0  0  0  0  0
   15.4995    6.8905   12.4019 C   0  0  0  0  0  0  0  0  0  0  0  0
   15.9208    7.7552   13.5493 N   0  0  0  0  0  0  0  0  0  0  0  0
   23.3274    4.5273   13.9675 C   0  0  2  0  0  0  0  0  0  0  0  0
   24.5755    4.6546   14.7104 N   0  0  0  0  0  0  0  0  0  0  0  0
   23.4018    5.3643   12.6222 C   0  0  0  0  0  0  0  0  0  0  0  0
   22.0542    5.2233   11.8108 C   0  0  2  0  0  0  0  0  0  0  0  0
   22.1410    6.0035   10.5467 N   0  0  0  0  0  0  0  0  0  0  0  0
   20.8461    5.7104   12.7060 C   0  0  2  0  0  0  0  0  0  0  0  0
   20.8074    4.8581   14.0360 C   0  0  2  0  0  0  0  0  0  0  0  0
   19.7168    5.3051   14.8476 O   0  0  0  0  0  0  0  0  0  0  0  0
   22.1546    5.0252   14.8372 C   0  0  1  0  0  0  0  0  0  0  0  0
   22.1210    4.2296   16.0555 O   0  0  0  0  0  0  0  0  0  0  0  0
   21.1078    3.3055   16.3681 C   0  0  2  0  0  0  0  0  0  0  0  0
   21.2392    2.9619   17.8905 C   0  0  2  0  0  0  0  0  0  0  0  0
   21.0899    4.1226   18.6436 O   0  0  0  0  0  0  0  0  0  0  0  0
   22.6173    2.2633   18.1994 C   0  0  1  0  0  0  0  0  0  0  0  0
   22.7508    1.9259   19.6550 N   0  0  0  0  0  0  0  0  0  0  0  0
   22.7239    0.9611   17.3104 C   0  0  2  0  0  0  0  0  0  0  0  0
   23.9551    0.2774   17.5531 O   0  0  0  0  0  0  0  0  0  0  0  0
   22.5874    1.3717   15.8053 C   0  0  2  0  0  0  0  0  0  0  0  0
   21.2890    2.0879   15.5577 O   0  0  0  0  0  0  0  0  0  0  0  0
   22.6478    0.1790   14.8956 C   0  0  0  0  0  0  0  0  0  0  0  0
   21.6743   -0.8104   15.2673 O   0  0  0  0  0  0  0  0  0  0  0  0
   19.4198    3.0992   10.6282 O   0  0  0  0  0  0  0  0  0  0  0  0
   17.2095    3.7574    8.9196 O   0  0  0  0  0  0  0  0  0  0  0  0
   25.5068    3.0138   19.0713 N   0  0  0  0  0  0  0  0  0  0  0  0
   24.9021    3.9421   15.8557 C   0  0  0  0  0  0  0  0  0  0  0  0
   24.1623    3.1186   16.3828 O   0  0  0  0  0  0  0  0  0  0  0  0
   26.2985    4.3152   16.4047 C   0  0  1  0  0  0  0  0  0  0  0  0
   26.9566    3.0824   17.0569 C   0  0  0  0  0  0  0  0  0  0  0  0
   26.8857    3.0192   18.5870 C   0  0  0  0  0  0  0  0  0  0  0  0
   27.1119    4.8231   15.3232 O   0  0  0  0  0  0  0  0  0  0  0  0
  1  2  1  6  0  0  0
  1  3  1  0  0  0  0
  1  8  1  0  0  0  0
  3  4  1  0  0  0  0
  3 32  1  6  0  0  0
  4  5  1  0  0  0  0
  4 33  1  6  0  0  0
  5  6  1  6  0  0  0
  5  7  1  0  0  0  0
  7  8  1  0  0  0  0
  7  9  1  1  0  0  0
  9 10  1  0  0  0  0
 11 12  1  1  0  0  0
 11 13  1  0  0  0  0
 11 19  1  0  0  0  0
 12 35  1  0  0  0  0
 13 14  1  0  0  0  0
 14 15  1  6  0  0  0
 14 16  1  0  0  0  0
 16  2  1  6  0  0  0
 16 17  1  0  0  0  0
 17 18  1  1  0  0  0
 17 19  1  0  0  0  0
 19 20  1  1  0  0  0
 21 20  1  6  0  0  0
 21 22  1  0  0  0  0
 21 29  1  0  0  0  0
 22 23  1  1  0  0  0
 22 24  1  0  0  0  0
 24 25  1  1  0  0  0
 24 26  1  0  0  0  0
 26 27  1  6  0  0  0
 26 28  1  0  0  0  0
 28 29  1  0  0  0  0
 28 30  1  6  0  0  0
 30 31  1  0  0  0  0
 34 39  1  0  0  0  0
 35 36  2  0  0  0  0
 37 35  1  6  0  0  0
 37 38  1  0  0  0  0
 37 40  1  0  0  0  0
 38 39  1  0  0  0  0
M  END
>  <CHROM.1>
-129.06210182,179.25424131,-172.78290237,115.63644444,-111.27456337,-165.24459434
54.33253814,-147.09482997,-100.45617106,59.58749040,21.34076932,3.92683870
14.42500714,2.39647246,-0.14357737,-0.99424782

>  <Name>
2g5q_lig

>  <RI>
0

>  <Rbt.Current_Directory>
/home/itssahil/PROJECTS/Mol_Feturizer/New_Systems/rnas/2g5q

>  <Rbt.Executable>
rbdock ($Id: //depot/dev/client3/rdock/2013.1/src/exe/rbdock.cxx#4 $)

>  <Rbt.Library>
libRbt.so (2013.1, Build901 2013/11/27)

>  <Rbt.Parameter_File>
/export/apps/rDock/src/rDock_2013.1_src/data/scripts/dock_solv.prm

>  <Rbt.Receptor>
prm/blind_docking_80.prm

>  <SCORE>
22.2531

>  <SCORE.INTER>
0.349764

>  <SCORE.INTER.CONST>
1

>  <SCORE.INTER.POLAR>
-0.33654

>  <SCORE.INTER.ROT>
10

>  <SCORE.INTER.SOLV>
18.9899

>  <SCORE.INTER.VDW>
-15.2417

>  <SCORE.INTER.norm>
0.00874409

>  <SCORE.INTRA>
14.1589

>  <SCORE.INTRA.DIHEDRAL>
5.01385

>  <SCORE.INTRA.DIHEDRAL.0>
22.5778

>  <SCORE.INTRA.POLAR>
0

>  <SCORE.INTRA.POLAR.0>
0

>  <SCORE.INTRA.REPUL>
0

>  <SCORE.INTRA.REPUL.0>
0

>  <SCORE.INTRA.SOLV>
8.15421

>  <SCORE.INTRA.SOLV.lig_0>
-102.332

>  <SCORE.INTRA.VDW>
7.57492

>  <SCORE.INTRA.VDW.0>
-5.08747

>  <SCORE.INTRA.norm>
0.353974

>  <SCORE.RESTR>
7.74438

>  <SCORE.RESTR.CAVITY>
7.74438

>  <SCORE.RESTR.norm>
0.19361

>  <SCORE.SYSTEM>
0

>  <SCORE.SYSTEM.CONST>
0

>  <SCORE.SYSTEM.DIHEDRAL>
0

>  <SCORE.SYSTEM.SOLV>
0

>  <SCORE.SYSTEM.norm>
0

>  <SCORE.heavy>
40

>  <SCORE.norm>
0.556327

>  <RMSD>
26.125

$$$$
2g5q_lig
 OpenBabel11021811433D
libRbt.so/2013.1/901 2013/11/27
 40 42  0  0  0  0  0  0  0  0999 V2000
   18.8153    5.1632   10.8154 C   0  0  2  0  0  0  0  0  0  0  0  0
   19.1586    4.6180   12.0702 O   0  0  0  0  0  0  0  0  0  0  0  0
   18.6582    6.7052   10.9640 C   0  0  1  0  0  0  0  0  0  0  0  0
   17.4383    7.0821   11.8603 C   0  0  2  0  0  0  0  0  0  0  0  0
   16.1654    6.4884   11.2028 C   0  0  2  0  0  0  0  0  0  0  0  0
   15.0135    6.8345   11.9887 O   0  0  0  0  0  0  0  0  0  0  0  0
   16.3415    4.9185   11.1096 C   0  0  2  0  0  0  0  0  0  0  0  0
   17.5466    4.5874   10.2966 O   0  0  0  0  0  0  0  0  0  0  0  0
   15.1461    4.2281   10.4616 C   0  0  0  0  0  0  0  0  0  0  0  0
   15.4004    2.7722   10.2216 N   0  0  0  0  0  0  0  0  0  0  0  0
   22.7413    4.1691   14.5279 C   0  0  2  0  0  0  0  0  0  0  0  0
   24.0079    4.4611   15.1884 N   0  0  0  0  0  0  0  0  0  0  0  0
   22.9064    4.2741   12.9538 C   0  0  0  0  0  0  0  0  0  0  0  0
   21.5382    3.9514   12.2339 C   0  0  2  0  0  0  0  0  0  0  0  0
   21.7093    4.0424   10.7586 N   0  0  0  0  0  0  0  0  0  0  0  0
   20.4244    4.9486   12.7467 C   0  0  2  0  0  0  0  0  0  0  0  0
   20.2922    4.8185   14.3159 C   0  0  2  0  0  0  0  0  0  0  0  0
   19.2877    5.7268   14.7787 O   0  0  0  0  0  0  0  0  0  0  0  0
   21.6634    5.1595   15.0148 C   0  0  1  0  0  0  0  0  0  0  0  0
   21.5422    5.0269   16.4591 O   0  0  0  0  0  0  0  0  0  0  0  0
   20.6269    4.1728   17.1001 C   0  0  2  0  0  0  0  0  0  0  0  0
   21.0365    4.0939   18.6098 C   0  0  2  0  0  0  0  0  0  0  0  0
   20.9911    5.3665   19.1709 O   0  0  0  0  0  0  0  0  0  0  0  0
   22.4665    3.4543   18.7789 C   0  0  1  0  0  0  0  0  0  0  0  0
   22.8660    3.3701   20.2223 N   0  0  0  0  0  0  0  0  0  0  0  0
   22.4496    2.0191   18.1175 C   0  0  2  0  0  0  0  0  0  0  0  0
   23.7229    1.3834   18.2464 O   0  0  0  0  0  0  0  0  0  0  0  0
   22.0362    2.1670   16.6143 C   0  0  2  0  0  0  0  0  0  0  0  0
   20.6951    2.8341   16.4874 O   0  0  0  0  0  0  0  0  0  0  0  0
   21.9672    0.8363   15.9228 C   0  0  0  0  0  0  0  0  0  0  0  0
   21.9040    0.9926   14.4957 O   0  0  0  0  0  0  0  0  0  0  0  0
   19.9072    7.2456   11.5172 O   0  0  0  0  0  0  0  0  0  0  0  0
   17.3392    8.4534   11.9462 O   0  0  0  0  0  0  0  0  0  0  0  0
   26.0980    2.6558   18.9265 N   0  0  0  0  0  0  0  0  0  0  0  0
   24.8091    3.5285   15.8321 C   0  0  0  0  0  0  0  0  0  0  0  0
   24.5327    2.3376   15.9248 O   0  0  0  0  0  0  0  0  0  0  0  0
   26.0837    4.1621   16.4359 C   0  0  1  0  0  0  0  0  0  0  0  0
   27.1376    3.0702   16.7102 C   0  0  0  0  0  0  0  0  0  0  0  0
   26.7670    2.0394   17.7827 C   0  0  0  0  0  0  0  0  0  0  0  0
   26.5967    5.1566   15.5211 O   0  0  0  0  0  0  0  0  0  0  0  0
  1  2  1  1  0  0  0
  1  3  1  0  0  0  0
  1  8  1  0  0  0  0
  3  4  1  0  0  0  0
  3 32  1  1  0  0  0
  4  5  1  0  0  0  0
  4 33  1  6  0  0  0
  5  6  1  1  0  0  0
  5  7  1  0  0  0  0
  7  8  1  0  0  0  0
  7  9  1  6  0  0  0
  9 10  1  0  0  0  0
 11 12  1  1  0  0  0
 11 13  1  0  0  0  0
 11 19  1  0  0  0  0
 12 35  1  0  0  0  0
 13 14  1  0  0  0  0
 14 15  1  6  0  0  0
 14 16  1  0  0  0  0
 16  2  1  6  0  0  0
 16 17  1  0  0  0  0
 17 18  1  1  0  0  0
 17 19  1  0  0  0  0
 19 20  1  1  0  0  0
 21 20  1  6  0  0  0
 21 22  1  0  0  0  0
 21 29  1  0  0  0  0
 22 23  1  6  0  0  0
 22 24  1  0  0  0  0
 24 25  1  1  0  0  0
 24 26  1  0  0  0  0
 26 27  1  6  0  0  0
 26 28  1  0  0  0  0
 28 29  1  0  0  0  0
 28 30  1  1  0  0  0
 30 31  1  0  0  0  0
 34 39  1  0  0  0  0
 35 36  2  0  0  0  0
 37 35  1  6  0  0  0
 37 38  1  0  0  0  0
 37 40  1  0  0  0  0
 38 39  1  0  0  0  0
M  END
>  <CHROM.1>
-64.07471368,172.68031337,-108.65478999,-87.11055630,-92.39425264,167.63833181
-166.24682538,-161.20416208,-65.49755890,-40.43668800,21.12644248,4.24453958
14.60620868,-2.40682170,-0.17838216,1.77921340

>  <Name>
2g5q_lig

>  <RI>
0

>  <Rbt.Current_Directory>
/home/itssahil/PROJECTS/Mol_Feturizer/New_Systems/rnas/2g5q

>  <Rbt.Executable>
rbdock ($Id: //depot/dev/client3/rdock/2013.1/src/exe/rbdock.cxx#4 $)

>  <Rbt.Library>
libRbt.so (2013.1, Build901 2013/11/27)

>  <Rbt.Parameter_File>
/export/apps/rDock/src/rDock_2013.1_src/data/scripts/dock_solv.prm

>  <Rbt.Receptor>
prm/blind_docking_80.prm

>  <SCORE>
14.5149

>  <SCORE.INTER>
1.80197

>  <SCORE.INTER.CONST>
1

>  <SCORE.INTER.POLAR>
-0.839695

>  <SCORE.INTER.ROT>
10

>  <SCORE.INTER.SOLV>
15.3492

>  <SCORE.INTER.VDW>
-11.3828

>  <SCORE.INTER.norm>
0.0450491

>  <SCORE.INTRA>
0.677715

>  <SCORE.INTRA.DIHEDRAL>
-10.0847

>  <SCORE.INTRA.DIHEDRAL.0>
22.5778

>  <SCORE.INTRA.POLAR>
0

>  <SCORE.INTRA.POLAR.0>
0

>  <SCORE.INTRA.REPUL>
0

>  <SCORE.INTRA.REPUL.0>
0

>  <SCORE.INTRA.SOLV>
8.86688

>  <SCORE.INTRA.SOLV.lig_0>
-102.332

>  <SCORE.INTRA.VDW>
1.28664

>  <SCORE.INTRA.VDW.0>
-5.08747

>  <SCORE.INTRA.norm>
0.0169429

>  <SCORE.RESTR>
12.0352

>  <SCORE.RESTR.CAVITY>
12.0352

>  <SCORE.RESTR.norm>
0.30088

>  <SCORE.SYSTEM>
0

>  <SCORE.SYSTEM.CONST>
0

>  <SCORE.SYSTEM.DIHEDRAL>
0

>  <SCORE.SYSTEM.SOLV>
0

>  <SCORE.SYSTEM.norm>
0

>  <SCORE.heavy>
40

>  <SCORE.norm>
0.362873

>  <RMSD>
26.152

$$$$
2g5q_lig
 OpenBabel11021811433D
libRbt.so/2013.1/901 2013/11/27
 40 42  0  0  0  0  0  0  0  0999 V2000
   18.9182    5.1605   10.8919 C   0  0  2  0  0  0  0  0  0  0  0  0
   19.2550    4.6725   12.1717 O   0  0  0  0  0  0  0  0  0  0  0  0
   18.7187    6.7024   10.9791 C   0  0  1  0  0  0  0  0  0  0  0  0
   17.4749    7.0803   11.8415 C   0  0  2  0  0  0  0  0  0  0  0  0
   16.2289    6.4285   11.1876 C   0  0  2  0  0  0  0  0  0  0  0  0
   15.0556    6.7733   11.9419 O   0  0  0  0  0  0  0  0  0  0  0  0
   16.4472    4.8615   11.1570 C   0  0  2  0  0  0  0  0  0  0  0  0
   17.6737    4.5321   10.3760 O   0  0  0  0  0  0  0  0  0  0  0  0
   15.2809    4.1156   10.5175 C   0  0  0  0  0  0  0  0  0  0  0  0
   15.2577    4.2791    9.0294 N   0  0  0  0  0  0  0  0  0  0  0  0
   22.9916    4.2094   14.3856 C   0  0  2  0  0  0  0  0  0  0  0  0
   24.2656    4.5185   15.0236 N   0  0  0  0  0  0  0  0  0  0  0  0
   23.0611    4.5357   12.8349 C   0  0  0  0  0  0  0  0  0  0  0  0
   21.6851    4.1956   12.1383 C   0  0  2  0  0  0  0  0  0  0  0  0
   21.7671    4.4953   10.6832 N   0  0  0  0  0  0  0  0  0  0  0  0
   20.5261    5.0174   12.8308 C   0  0  2  0  0  0  0  0  0  0  0  0
   20.4910    4.6698   14.3719 C   0  0  2  0  0  0  0  0  0  0  0  0
   19.4452    5.4197   14.9979 O   0  0  0  0  0  0  0  0  0  0  0  0
   21.8675    5.0311   15.0500 C   0  0  1  0  0  0  0  0  0  0  0  0
   21.8366    4.6985   16.4666 O   0  0  0  0  0  0  0  0  0  0  0  0
   20.8751    3.8617   17.0610 C   0  0  2  0  0  0  0  0  0  0  0  0
   21.3606    3.5491   18.5169 C   0  0  2  0  0  0  0  0  0  0  0  0
   21.4819    4.7370   19.2316 O   0  0  0  0  0  0  0  0  0  0  0  0
   22.7226    2.7571   18.5049 C   0  0  1  0  0  0  0  0  0  0  0  0
   23.1938    2.4489   19.8954 N   0  0  0  0  0  0  0  0  0  0  0  0
   22.5166    1.4279   17.6755 C   0  0  2  0  0  0  0  0  0  0  0  0
   23.7212    0.6602   17.6352 O   0  0  0  0  0  0  0  0  0  0  0  0
   22.0350    1.8082   16.2347 C   0  0  2  0  0  0  0  0  0  0  0  0
   20.7664    2.6132   16.2855 O   0  0  0  0  0  0  0  0  0  0  0  0
   21.7864    0.5910   15.3919 C   0  0  0  0  0  0  0  0  0  0  0  0
   20.6329   -0.1336   15.8492 O   0  0  0  0  0  0  0  0  0  0  0  0
   19.9441    7.2962   11.5305 O   0  0  0  0  0  0  0  0  0  0  0  0
   17.3388    8.4506   11.8735 O   0  0  0  0  0  0  0  0  0  0  0  0
   25.5170    4.4506   20.2051 N   0  0  0  0  0  0  0  0  0  0  0  0
   24.9506    3.6801   15.8919 C   0  0  0  0  0  0  0  0  0  0  0  0
   24.5503    2.5717   16.2303 O   0  0  0  0  0  0  0  0  0  0  0  0
   26.2693    4.3071   16.4003 C   0  0  1  0  0  0  0  0  0  0  0  0
   26.0727    4.8711   17.8220 C   0  0  0  0  0  0  0  0  0  0  0  0
   25.8768    3.8311   18.9313 C   0  0  0  0  0  0  0  0  0  0  0  0
   27.3086    3.3027   16.3825 O   0  0  0  0  0  0  0  0  0  0  0  0
  1  2  1  1  0  0  0
  1  3  1  0  0  0  0
  1  8  1  0  0  0  0
  3  4  1  0  0  0  0
  3 32  1  1  0  0  0
  4  5  1  0  0  0  0
  4 33  1  6  0  0  0
  5  6  1  1  0  0  0
  5  7  1  0  0  0  0
  7  8  1  0  0  0  0
  7  9  1  6  0  0  0
  9 10  1  0  0  0  0
 11 12  1  1  0  0  0
 11 13  1  0  0  0  0
 11 19  1  0  0  0  0
 12 35  1  0  0  0  0
 13 14  1  0  0  0  0
 14 15  1  6  0  0  0
 14 16  1  0  0  0  0
 16  2  1  6  0  0  0
 16 17  1  0  0  0  0
 17 18  1  1  0  0  0
 17 19  1  0  0  0  0
 19 20  1  1  0  0  0
 21 20  1  6  0  0  0
 21 22  1  0  0  0  0
 21 29  1  0  0  0  0
 22 23  1  1  0  0  0
 22 24  1  0  0  0  0
 24 25  1  1  0  0  0
 24 26  1  0  0  0  0
 26 27  1  6  0  0  0
 26 28  1  0  0  0  0
 28 29  1  0  0  0  0
 28 30  1  6  0  0  0
 30 31  1  0  0  0  0
 34 39  1  0  0  0  0
 35 36  2  0  0  0  0
 37 35  1  1  0  0  0
 37 38  1  0  0  0  0
 37 40  1  0  0  0  0
 38 39  1  0  0  0  0
M  END
>  <CHROM.1>
-66.67198122,73.95385897,-132.19519769,-74.87434958,-103.80469280,169.25729499
69.51137904,100.76538725,69.56107024,-172.16291185,21.15749084,4.21026688
14.66702696,-2.38626250,0.27127324,2.22073450

>  <Name>
2g5q_lig

>  <RI>
0

>  <Rbt.Current_Directory>
/home/itssahil/PROJECTS/Mol_Feturizer/New_Systems/rnas/2g5q

>  <Rbt.Executable>
rbdock ($Id: //depot/dev/client3/rdock/2013.1/src/exe/rbdock.cxx#4 $)

>  <Rbt.Library>
libRbt.so (2013.1, Build901 2013/11/27)

>  <Rbt.Parameter_File>
/export/apps/rDock/src/rDock_2013.1_src/data/scripts/dock_solv.prm

>  <Rbt.Receptor>
prm/blind_docking_80.prm

>  <SCORE>
13.366

>  <SCORE.INTER>
4.45956

>  <SCORE.INTER.CONST>
1

>  <SCORE.INTER.POLAR>
-0.420616

>  <SCORE.INTER.ROT>
10

>  <SCORE.INTER.SOLV>
15.8346

>  <SCORE.INTER.VDW>
-11.1698

>  <SCORE.INTER.norm>
0.111489

>  <SCORE.INTRA>
0.466427

>  <SCORE.INTRA.DIHEDRAL>
-10.0579

>  <SCORE.INTRA.DIHEDRAL.0>
22.5778

>  <SCORE.INTRA.POLAR>
0

>  <SCORE.INTRA.POLAR.0>
0

>  <SCORE.INTRA.REPUL>
0

>  <SCORE.INTRA.REPUL.0>
0

>  <SCORE.INTRA.SOLV>
8.31214

>  <SCORE.INTRA.SOLV.lig_0>
-102.332

>  <SCORE.INTRA.VDW>
1.33933

>  <SCORE.INTRA.VDW.0>
-5.08747

>  <SCORE.INTRA.norm>
0.0116607

>  <SCORE.RESTR>
8.43997

>  <SCORE.RESTR.CAVITY>
8.43997

>  <SCORE.RESTR.norm>
0.210999

>  <SCORE.SYSTEM>
0

>  <SCORE.SYSTEM.CONST>
0

>  <SCORE.SYSTEM.DIHEDRAL>
0

>  <SCORE.SYSTEM.SOLV>
0

>  <SCORE.SYSTEM.norm>
0

>  <SCORE.heavy>
40

>  <SCORE.norm>
0.334149

>  <RMSD>
26.161

$$$$
2g5q_lig
 OpenBabel11021811433D
libRbt.so/2013.1/901 2013/11/27
 40 42  0  0  0  0  0  0  0  0999 V2000
   19.5963    6.1551   11.3432 C   0  0  2  0  0  0  0  0  0  0  0  0
   19.6055    6.3180   12.7443 O   0  0  0  0  0  0  0  0  0  0  0  0
   18.2100    6.6045   10.7946 C   0  0  1  0  0  0  0  0  0  0  0  0
   17.0626    5.6601   11.2691 C   0  0  2  0  0  0  0  0  0  0  0  0
   17.3858    4.2301   10.7635 C   0  0  2  0  0  0  0  0  0  0  0  0
   16.3373    3.3321   11.1617 O   0  0  0  0  0  0  0  0  0  0  0  0
   18.7769    3.7900   11.3760 C   0  0  2  0  0  0  0  0  0  0  0  0
   19.8443    4.7418   10.9544 O   0  0  0  0  0  0  0  0  0  0  0  0
   19.2029    2.3951   10.9308 C   0  0  0  0  0  0  0  0  0  0  0  0
   18.7633    1.3385   11.8963 N   0  0  0  0  0  0  0  0  0  0  0  0
   22.7957    4.3709   15.0045 C   0  0  2  0  0  0  0  0  0  0  0  0
   24.0170    4.1694   15.7750 N   0  0  0  0  0  0  0  0  0  0  0  0
   23.1382    4.9926   13.5861 C   0  0  0  0  0  0  0  0  0  0  0  0
   21.8184    5.2059   12.7452 C   0  0  2  0  0  0  0  0  0  0  0  0
   22.1542    5.7787   11.4136 N   0  0  0  0  0  0  0  0  0  0  0  0
   20.8305    6.1463   13.5437 C   0  0  2  0  0  0  0  0  0  0  0  0
   20.5168    5.4972   14.9498 C   0  0  2  0  0  0  0  0  0  0  0  0
   19.6273    6.3534   15.6735 O   0  0  0  0  0  0  0  0  0  0  0  0
   21.8447    5.3076   15.7779 C   0  0  1  0  0  0  0  0  0  0  0  0
   21.5543    4.6983   17.0674 O   0  0  0  0  0  0  0  0  0  0  0  0
   20.5969    3.6873   17.2660 C   0  0  2  0  0  0  0  0  0  0  0  0
   20.8473    3.0761   18.6862 C   0  0  2  0  0  0  0  0  0  0  0  0
   20.7135    4.0705   19.6504 O   0  0  0  0  0  0  0  0  0  0  0  0
   22.2661    2.3961   18.7711 C   0  0  1  0  0  0  0  0  0  0  0  0
   22.5136    1.8035   20.1268 N   0  0  0  0  0  0  0  0  0  0  0  0
   22.3522    1.2858   17.6499 C   0  0  2  0  0  0  0  0  0  0  0  0
   23.6194    0.6260   17.6821 O   0  0  0  0  0  0  0  0  0  0  0  0
   22.0958    1.9594   16.2595 C   0  0  2  0  0  0  0  0  0  0  0  0
   20.7602    2.6489   16.2330 O   0  0  0  0  0  0  0  0  0  0  0  0
   22.1308    0.9583   15.1415 C   0  0  0  0  0  0  0  0  0  0  0  0
   23.4102    0.3088   15.0626 O   0  0  0  0  0  0  0  0  0  0  0  0
   17.9686    7.9877   11.2268 O   0  0  0  0  0  0  0  0  0  0  0  0
   15.8651    6.0953   10.7455 O   0  0  0  0  0  0  0  0  0  0  0  0
   26.2998    4.3552   20.2228 N   0  0  0  0  0  0  0  0  0  0  0  0
   24.9459    3.1621   15.5547 C   0  0  0  0  0  0  0  0  0  0  0  0
   24.8371    2.3115   14.6783 O   0  0  0  0  0  0  0  0  0  0  0  0
   26.1274    3.2208   16.5501 C   0  0  1  0  0  0  0  0  0  0  0  0
   25.6788    3.8926   17.8638 C   0  0  0  0  0  0  0  0  0  0  0  0
   26.7978    4.2353   18.8541 C   0  0  0  0  0  0  0  0  0  0  0  0
   26.6078    1.8795   16.7940 O   0  0  0  0  0  0  0  0  0  0  0  0
  1  2  1  1  0  0  0
  1  3  1  0  0  0  0
  1  8  1  0  0  0  0
  3  4  1  0  0  0  0
  3 32  1  1  0  0  0
  4  5  1  0  0  0  0
  4 33  1  6  0  0  0
  5  6  1  1  0  0  0
  5  7  1  0  0  0  0
  7  8  1  0  0  0  0
  7  9  1  6  0  0  0
  9 10  1  0  0  0  0
 11 12  1  1  0  0  0
 11 13  1  0  0  0  0
 11 19  1  0  0  0  0
 12 35  1  0  0  0  0
 13 14  1  0  0  0  0
 14 15  1  6  0  0  0
 14 16  1  0  0  0  0
 16  2  1  6  0  0  0
 16 17  1  0  0  0  0
 17 18  1  1  0  0  0
 17 19  1  0  0  0  0
 19 20  1  1  0  0  0
 21 20  1  6  0  0  0
 21 22  1  0  0  0  0
 21 29  1  0  0  0  0
 22 23  1  1  0  0  0
 22 24  1  0  0  0  0
 24 25  1  1  0  0  0
 24 26  1  0  0  0  0
 26 27  1  6  0  0  0
 26 28  1  0  0  0  0
 28 29  1  0  0  0  0
 28 30  1  6  0  0  0
 30 31  1  0  0  0  0
 34 39  1  0  0  0  0
 35 36  2  0  0  0  0
 37 35  1  6  0  0  0
 37 38  1  0  0  0  0
 37 40  1  0  0  0  0
 38 39  1  0  0  0  0
M  END
>  <CHROM.1>
-171.92614737,-92.85476687,-74.74663581,-24.14791137,-81.08191790,166.19678903
-60.51036256,26.52527260,-170.03648764,-157.21812419,21.46454236,3.91986283
14.83901011,-2.30981270,0.21425332,2.12508088

>  <Name>
2g5q_lig

>  <RI>
0

>  <Rbt.Current_Directory>
/home/itssahil/PROJECTS/Mol_Feturizer/New_Systems/rnas/2g5q

>  <Rbt.Executable>
rbdock ($Id: //depot/dev/client3/rdock/2013.1/src/exe/rbdock.cxx#4 $)

>  <Rbt.Library>
libRbt.so (2013.1, Build901 2013/11/27)

>  <Rbt.Parameter_File>
/export/apps/rDock/src/rDock_2013.1_src/data/scripts/dock_solv.prm

>  <Rbt.Receptor>
prm/blind_docking_80.prm

>  <SCORE>
34.2466

>  <SCORE.INTER>
18.0828

>  <SCORE.INTER.CONST>
1

>  <SCORE.INTER.POLAR>
-0.844788

>  <SCORE.INTER.ROT>
10

>  <SCORE.INTER.SOLV>
19.2483

>  <SCORE.INTER.VDW>
-1.81164

>  <SCORE.INTER.norm>
0.452069

>  <SCORE.INTRA>
2.94044

>  <SCORE.INTRA.DIHEDRAL>
-7.65173

>  <SCORE.INTRA.DIHEDRAL.0>
22.5778

>  <SCORE.INTRA.POLAR>
0

>  <SCORE.INTRA.POLAR.0>
0

>  <SCORE.INTRA.REPUL>
0

>  <SCORE.INTRA.REPUL.0>
0

>  <SCORE.INTRA.SOLV>
4.88997

>  <SCORE.INTRA.SOLV.lig_0>
-102.332

>  <SCORE.INTRA.VDW>
4.32132

>  <SCORE.INTRA.VDW.0>
-5.08747

>  <SCORE.INTRA.norm>
0.073511

>  <SCORE.RESTR>
13.2234

>  <SCORE.RESTR.CAVITY>
13.2234

>  <SCORE.RESTR.norm>
0.330586

>  <SCORE.SYSTEM>
0

>  <SCORE.SYSTEM.CONST>
0

>  <SCORE.SYSTEM.DIHEDRAL>
0

>  <SCORE.SYSTEM.SOLV>
0

>  <SCORE.SYSTEM.norm>
0

>  <SCORE.heavy>
40

>  <SCORE.norm>
0.856166

>  <RMSD>
26.200

$$$$
2g5q_lig
 OpenBabel11021811433D
libRbt.so/2013.1/901 2013/11/27
 40 42  0  0  0  0  0  0  0  0999 V2000
   18.4969    4.6683   12.2805 C   0  0  2  0  0  0  0  0  0  0  0  0
   19.4909    5.6611   12.1552 O   0  0  0  0  0  0  0  0  0  0  0  0
   18.0839    4.1889   10.8577 C   0  0  1  0  0  0  0  0  0  0  0  0
   17.3628    5.3130   10.0515 C   0  0  2  0  0  0  0  0  0  0  0  0
   16.1002    5.7326   10.8483 C   0  0  2  0  0  0  0  0  0  0  0  0
   15.3937    6.7534   10.1250 O   0  0  0  0  0  0  0  0  0  0  0  0
   16.5612    6.2554   12.2690 C   0  0  2  0  0  0  0  0  0  0  0  0
   17.2976    5.1808   12.9941 O   0  0  0  0  0  0  0  0  0  0  0  0
   15.3912    6.6844   13.1480 C   0  0  0  0  0  0  0  0  0  0  0  0
   14.7725    7.9631   12.6749 N   0  0  0  0  0  0  0  0  0  0  0  0
   22.8446    4.4387   14.6722 C   0  0  2  0  0  0  0  0  0  0  0  0
   23.9898    4.5014   15.5724 N   0  0  0  0  0  0  0  0  0  0  0  0
   23.1467    5.2496   13.3429 C   0  0  0  0  0  0  0  0  0  0  0  0
   21.9112    5.1783   12.3616 C   0  0  2  0  0  0  0  0  0  0  0  0
   22.2114    5.9329   11.1148 N   0  0  0  0  0  0  0  0  0  0  0  0
   20.6286    5.7509   13.0862 C   0  0  2  0  0  0  0  0  0  0  0  0
   20.3628    4.9224   14.4052 C   0  0  2  0  0  0  0  0  0  0  0  0
   19.2049    5.4466   15.0628 O   0  0  0  0  0  0  0  0  0  0  0  0
   21.6009    5.0197   15.3761 C   0  0  1  0  0  0  0  0  0  0  0  0
   21.3584    4.2457   16.5847 O   0  0  0  0  0  0  0  0  0  0  0  0
   20.8714    2.9263   16.5936 C   0  0  2  0  0  0  0  0  0  0  0  0
   20.8006    2.4621   18.0878 C   0  0  2  0  0  0  0  0  0  0  0  0
   19.9461    3.3020   18.7955 O   0  0  0  0  0  0  0  0  0  0  0  0
   22.2331    2.4336   18.7434 C   0  0  1  0  0  0  0  0  0  0  0  0
   22.1763    1.9857   20.1740 N   0  0  0  0  0  0  0  0  0  0  0  0
   23.1502    1.4699   17.8905 C   0  0  2  0  0  0  0  0  0  0  0  0
   24.4661    1.3972   18.4431 O   0  0  0  0  0  0  0  0  0  0  0  0
   23.1806    1.9880   16.4129 C   0  0  2  0  0  0  0  0  0  0  0  0
   21.7934    2.0593   15.8383 O   0  0  0  0  0  0  0  0  0  0  0  0
   24.0109    1.1023   15.5299 C   0  0  0  0  0  0  0  0  0  0  0  0
   23.4586   -0.2220   15.4520 O   0  0  0  0  0  0  0  0  0  0  0  0
   19.2901    3.7274   10.1576 O   0  0  0  0  0  0  0  0  0  0  0  0
   17.0092    4.8318    8.8102 O   0  0  0  0  0  0  0  0  0  0  0  0
   27.0209    3.8245   19.3191 N   0  0  0  0  0  0  0  0  0  0  0  0
   25.2966    4.1838   15.2293 C   0  0  0  0  0  0  0  0  0  0  0  0
   25.6373    3.8019   14.1151 O   0  0  0  0  0  0  0  0  0  0  0  0
   26.2748    4.3487   16.4151 C   0  0  1  0  0  0  0  0  0  0  0  0
   25.5236    4.8888   17.6488 C   0  0  0  0  0  0  0  0  0  0  0  0
   26.3655    5.0675   18.9175 C   0  0  0  0  0  0  0  0  0  0  0  0
   26.8892    3.0723   16.7027 O   0  0  0  0  0  0  0  0  0  0  0  0
  1  2  1  6  0  0  0
  1  3  1  0  0  0  0
  1  8  1  0  0  0  0
  3  4  1  0  0  0  0
  3 32  1  6  0  0  0
  4  5  1  0  0  0  0
  4 33  1  6  0  0  0
  5  6  1  6  0  0  0
  5  7  1  0  0  0  0
  7  8  1  0  0  0  0
  7  9  1  1  0  0  0
  9 10  1  0  0  0  0
 11 12  1  1  0  0  0
 11 13  1  0  0  0  0
 11 19  1  0  0  0  0
 12 35  1  0  0  0  0
 13 14  1  0  0  0  0
 14 15  1  6  0  0  0
 14 16  1  0  0  0  0
 16  2  1  6  0  0  0
 16 17  1  0  0  0  0
 17 18  1  1  0  0  0
 17 19  1  0  0  0  0
 19 20  1  1  0  0  0
 21 20  1  1  0  0  0
 21 22  1  0  0  0  0
 21 29  1  0  0  0  0
 22 23  1  1  0  0  0
 22 24  1  0  0  0  0
 24 25  1  1  0  0  0
 24 26  1  0  0  0  0
 26 27  1  1  0  0  0
 26 28  1  0  0  0  0
 28 29  1  0  0  0  0
 28 30  1  6  0  0  0
 30 31  1  0  0  0  0
 34 39  1  0  0  0  0
 35 36  2  0  0  0  0
 37 35  1  6  0  0  0
 37 38  1  0  0  0  0
 37 40  1  0  0  0  0
 38 39  1  0  0  0  0
M  END
>  <CHROM.1>
-141.76493671,-71.79087894,-52.25095249,103.69198981,-71.67410405,178.31167084
62.78333092,-2.56646013,178.43199645,-56.59802390,21.27460912,4.17513071
14.69258052,2.41197548,0.10074747,-1.25789157

>  <Name>
2g5q_lig

>  <RI>
0

>  <Rbt.Current_Directory>
/home/itssahil/PROJECTS/Mol_Feturizer/New_Systems/rnas/2g5q

>  <Rbt.Executable>
rbdock ($Id: //depot/dev/client3/rdock/2013.1/src/exe/rbdock.cxx#4 $)

>  <Rbt.Library>
libRbt.so (2013.1, Build901 2013/11/27)

>  <Rbt.Parameter_File>
/export/apps/rDock/src/rDock_2013.1_src/data/scripts/dock_solv.prm

>  <Rbt.Receptor>
prm/blind_docking_80.prm

>  <SCORE>
8.48159

>  <SCORE.INTER>
-2.05509

>  <SCORE.INTER.CONST>
1

>  <SCORE.INTER.POLAR>
-0.862628

>  <SCORE.INTER.ROT>
10

>  <SCORE.INTER.SOLV>
18.1183

>  <SCORE.INTER.VDW>
-14.8007

>  <SCORE.INTER.norm>
-0.0513772

>  <SCORE.INTRA>
0.384239

>  <SCORE.INTRA.DIHEDRAL>
-7.77163

>  <SCORE.INTRA.DIHEDRAL.0>
22.5778

>  <SCORE.INTRA.POLAR>
0

>  <SCORE.INTRA.POLAR.0>
0

>  <SCORE.INTRA.REPUL>
0

>  <SCORE.INTRA.REPUL.0>
0

>  <SCORE.INTRA.SOLV>
4.54684

>  <SCORE.INTRA.SOLV.lig_0>
-102.332

>  <SCORE.INTRA.VDW>
1.99663

>  <SCORE.INTRA.VDW.0>
-5.08747

>  <SCORE.INTRA.norm>
0.00960598

>  <SCORE.RESTR>
10.1524

>  <SCORE.RESTR.CAVITY>
10.1524

>  <SCORE.RESTR.norm>
0.253811

>  <SCORE.SYSTEM>
0

>  <SCORE.SYSTEM.CONST>
0

>  <SCORE.SYSTEM.DIHEDRAL>
0

>  <SCORE.SYSTEM.SOLV>
0

>  <SCORE.SYSTEM.norm>
0

>  <SCORE.heavy>
40

>  <SCORE.norm>
0.21204

>  <RMSD>
26.203

$$$$
2g5q_lig
 OpenBabel11021811433D
libRbt.so/2013.1/901 2013/11/27
 40 42  0  0  0  0  0  0  0  0999 V2000
   18.8627    5.2164   10.8749 C   0  0  2  0  0  0  0  0  0  0  0  0
   19.2286    4.7154   12.1416 O   0  0  0  0  0  0  0  0  0  0  0  0
   18.6725    6.7583   10.9807 C   0  0  1  0  0  0  0  0  0  0  0  0
   17.4520    7.1339   11.8768 C   0  0  2  0  0  0  0  0  0  0  0  0
   16.1873    6.4934   11.2480 C   0  0  2  0  0  0  0  0  0  0  0  0
   15.0345    6.8365   12.0341 O   0  0  0  0  0  0  0  0  0  0  0  0
   16.3975    4.9258   11.1981 C   0  0  2  0  0  0  0  0  0  0  0  0
   17.6029    4.5981   10.3842 O   0  0  0  0  0  0  0  0  0  0  0  0
   15.2124    4.1908   10.5810 C   0  0  0  0  0  0  0  0  0  0  0  0
   15.4465    2.7141   10.5024 N   0  0  0  0  0  0  0  0  0  0  0  0
   23.0075    4.2806   14.2883 C   0  0  2  0  0  0  0  0  0  0  0  0
   24.2871    4.6007   14.9096 N   0  0  0  0  0  0  0  0  0  0  0  0
   23.0467    4.6278   12.7411 C   0  0  0  0  0  0  0  0  0  0  0  0
   21.6646    4.2759   12.0626 C   0  0  2  0  0  0  0  0  0  0  0  0
   21.7183    4.5956   10.6104 N   0  0  0  0  0  0  0  0  0  0  0  0
   20.5051    5.0710   12.7845 C   0  0  2  0  0  0  0  0  0  0  0  0
   20.5005    4.7031   14.3212 C   0  0  2  0  0  0  0  0  0  0  0  0
   19.4539    5.4290   14.9739 O   0  0  0  0  0  0  0  0  0  0  0  0
   21.8823    5.0765   14.9816 C   0  0  1  0  0  0  0  0  0  0  0  0
   21.8797    4.7253   16.3940 O   0  0  0  0  0  0  0  0  0  0  0  0
   20.8908    3.9379   17.0106 C   0  0  2  0  0  0  0  0  0  0  0  0
   21.3754    3.6322   18.4683 C   0  0  2  0  0  0  0  0  0  0  0  0
   21.5492    4.8268   19.1605 O   0  0  0  0  0  0  0  0  0  0  0  0
   22.7050    2.7869   18.4605 C   0  0  1  0  0  0  0  0  0  0  0  0
   23.1750    2.4849   19.8527 N   0  0  0  0  0  0  0  0  0  0  0  0
   22.4401    1.4523   17.6567 C   0  0  2  0  0  0  0  0  0  0  0  0
   23.6132    0.6370   17.6214 O   0  0  0  0  0  0  0  0  0  0  0  0
   21.9621    1.8257   16.2129 C   0  0  2  0  0  0  0  0  0  0  0  0
   20.7267    2.6810   16.2586 O   0  0  0  0  0  0  0  0  0  0  0  0
   21.6590    0.6045   15.3940 C   0  0  0  0  0  0  0  0  0  0  0  0
   20.5515   -0.1292   15.9418 O   0  0  0  0  0  0  0  0  0  0  0  0
   19.9138    7.3418   11.5070 O   0  0  0  0  0  0  0  0  0  0  0  0
   17.3231    8.5045   11.9243 O   0  0  0  0  0  0  0  0  0  0  0  0
   27.2680    2.8947   18.8760 N   0  0  0  0  0  0  0  0  0  0  0  0
   24.8988    3.8596   15.9110 C   0  0  0  0  0  0  0  0  0  0  0  0
   24.4197    2.8412   16.3975 O   0  0  0  0  0  0  0  0  0  0  0  0
   26.2463    4.4714   16.3585 C   0  0  1  0  0  0  0  0  0  0  0  0
   27.3247    3.3721   16.4401 C   0  0  0  0  0  0  0  0  0  0  0  0
   27.1252    2.3219   17.5391 C   0  0  0  0  0  0  0  0  0  0  0  0
   26.6313    5.5037   15.4228 O   0  0  0  0  0  0  0  0  0  0  0  0
  1  2  1  1  0  0  0
  1  3  1  0  0  0  0
  1  8  1  0  0  0  0
  3  4  1  0  0  0  0
  3 32  1  1  0  0  0
  4  5  1  0  0  0  0
  4 33  1  6  0  0  0
  5  6  1  1  0  0  0
  5  7  1  0  0  0  0
  7  8  1  0  0  0  0
  7  9  1  6  0  0  0
  9 10  1  0  0  0  0
 11 12  1  1  0  0  0
 11 13  1  0  0  0  0
 11 19  1  0  0  0  0
 12 35  1  0  0  0  0
 13 14  1  0  0  0  0
 14 15  1  6  0  0  0
 14 16  1  0  0  0  0
 16  2  1  6  0  0  0
 16 17  1  0  0  0  0
 17 18  1  1  0  0  0
 17 19  1  0  0  0  0
 19 20  1  1  0  0  0
 21 20  1  6  0  0  0
 21 22  1  0  0  0  0
 21 29  1  0  0  0  0
 22 23  1  6  0  0  0
 22 24  1  0  0  0  0
 24 25  1  1  0  0  0
 24 26  1  0  0  0  0
 26 27  1  6  0  0  0
 26 28  1  0  0  0  0
 28 29  1  0  0  0  0
 28 30  1  6  0  0  0
 30 31  1  0  0  0  0
 34 39  1  0  0  0  0
 35 36  2  0  0  0  0
 37 35  1  6  0  0  0
 37 38  1  0  0  0  0
 37 40  1  0  0  0  0
 38 39  1  0  0  0  0
M  END
>  <CHROM.1>
-65.38046099,178.19804021,-142.77772643,-74.97802284,-108.18178845,171.88255052
64.50592077,-133.36883194,-67.31587352,-67.03638307,21.22046135,4.17719647
14.56320839,-2.44093193,0.23437331,2.26797491

>  <Name>
2g5q_lig

>  <RI>
0

>  <Rbt.Current_Directory>
/home/itssahil/PROJECTS/Mol_Feturizer/New_Systems/rnas/2g5q

>  <Rbt.Executable>
rbdock ($Id: //depot/dev/client3/rdock/2013.1/src/exe/rbdock.cxx#4 $)

>  <Rbt.Library>
libRbt.so (2013.1, Build901 2013/11/27)

>  <Rbt.Parameter_File>
/export/apps/rDock/src/rDock_2013.1_src/data/scripts/dock_solv.prm

>  <Rbt.Receptor>
prm/blind_docking_80.prm

>  <SCORE>
13.6446

>  <SCORE.INTER>
3.62115

>  <SCORE.INTER.CONST>
1

>  <SCORE.INTER.POLAR>
-1.19827

>  <SCORE.INTER.ROT>
10

>  <SCORE.INTER.SOLV>
18.6118

>  <SCORE.INTER.VDW>
-10.0623

>  <SCORE.INTER.norm>
0.0905288

>  <SCORE.INTRA>
-0.108859

>  <SCORE.INTRA.DIHEDRAL>
-10.9718

>  <SCORE.INTRA.DIHEDRAL.0>
22.5778

>  <SCORE.INTRA.POLAR>
0

>  <SCORE.INTRA.POLAR.0>
0

>  <SCORE.INTRA.REPUL>
0

>  <SCORE.INTRA.REPUL.0>
0

>  <SCORE.INTRA.SOLV>
5.28806

>  <SCORE.INTRA.SOLV.lig_0>
-102.332

>  <SCORE.INTRA.VDW>
2.73302

>  <SCORE.INTRA.VDW.0>
-5.08747

>  <SCORE.INTRA.norm>
-0.00272147

>  <SCORE.RESTR>
10.1323

>  <SCORE.RESTR.CAVITY>
10.1323

>  <SCORE.RESTR.norm>
0.253308

>  <SCORE.SYSTEM>
0

>  <SCORE.SYSTEM.CONST>
0

>  <SCORE.SYSTEM.DIHEDRAL>
0

>  <SCORE.SYSTEM.SOLV>
0

>  <SCORE.SYSTEM.norm>
0

>  <SCORE.heavy>
40

>  <SCORE.norm>
0.341115

>  <RMSD>
26.209

$$$$
2g5q_lig
 OpenBabel11021811433D
libRbt.so/2013.1/901 2013/11/27
 40 42  0  0  0  0  0  0  0  0999 V2000
   20.9706    6.6908   11.2672 C   0  0  2  0  0  0  0  0  0  0  0  0
   21.2223    7.0772   12.6002 O   0  0  0  0  0  0  0  0  0  0  0  0
   19.5000    7.0554   10.9080 C   0  0  1  0  0  0  0  0  0  0  0  0
   18.4748    6.2075   11.7227 C   0  0  2  0  0  0  0  0  0  0  0  0
   18.7354    4.7127   11.4028 C   0  0  2  0  0  0  0  0  0  0  0  0
   17.7932    3.8976   12.1185 O   0  0  0  0  0  0  0  0  0  0  0  0
   20.2218    4.3675   11.8217 C   0  0  2  0  0  0  0  0  0  0  0  0
   21.1773    5.2317   11.0714 O   0  0  0  0  0  0  0  0  0  0  0  0
   20.5934    2.9162   11.5367 C   0  0  0  0  0  0  0  0  0  0  0  0
   19.7406    1.9564   12.3068 N   0  0  0  0  0  0  0  0  0  0  0  0
   23.2336    3.6064   14.3281 C   0  0  2  0  0  0  0  0  0  0  0  0
   24.0736    2.7863   15.1928 N   0  0  0  0  0  0  0  0  0  0  0  0
   24.1099    4.7077   13.5964 C   0  0  0  0  0  0  0  0  0  0  0  0
   23.2050    5.5940   12.6530 C   0  0  2  0  0  0  0  0  0  0  0  0
   24.0401    6.6151   11.9646 N   0  0  0  0  0  0  0  0  0  0  0  0
   22.0570    6.2684   13.5047 C   0  0  2  0  0  0  0  0  0  0  0  0
   21.2103    5.1424   14.2204 C   0  0  2  0  0  0  0  0  0  0  0  0
   20.1756    5.7556   14.9959 O   0  0  0  0  0  0  0  0  0  0  0  0
   22.1289    4.2803   15.1680 C   0  0  1  0  0  0  0  0  0  0  0  0
   21.3490    3.2364   15.8163 O   0  0  0  0  0  0  0  0  0  0  0  0
   20.1231    3.4564   16.4696 C   0  0  2  0  0  0  0  0  0  0  0  0
   20.4092    4.3691   17.7099 C   0  0  2  0  0  0  0  0  0  0  0  0
   20.9576    5.5748   17.2832 O   0  0  0  0  0  0  0  0  0  0  0  0
   21.3617    3.6495   18.7383 C   0  0  1  0  0  0  0  0  0  0  0  0
   21.6382    4.5143   19.9325 N   0  0  0  0  0  0  0  0  0  0  0  0
   20.6841    2.2905   19.1755 C   0  0  2  0  0  0  0  0  0  0  0  0
   21.5014    1.5932   20.1177 O   0  0  0  0  0  0  0  0  0  0  0  0
   20.4271    1.4263   17.8949 C   0  0  2  0  0  0  0  0  0  0  0  0
   19.5648    2.1655   16.9101 O   0  0  0  0  0  0  0  0  0  0  0  0
   19.7537    0.1263   18.2271 C   0  0  0  0  0  0  0  0  0  0  0  0
   20.3004   -0.9563   17.4563 O   0  0  0  0  0  0  0  0  0  0  0  0
   19.3080    8.4917   11.1495 O   0  0  0  0  0  0  0  0  0  0  0  0
   17.1947    6.5608   11.3566 O   0  0  0  0  0  0  0  0  0  0  0  0
   25.8713    4.4894   19.0196 N   0  0  0  0  0  0  0  0  0  0  0  0
   24.5685    3.1739   16.4300 C   0  0  0  0  0  0  0  0  0  0  0  0
   24.3572    4.2696   16.9382 O   0  0  0  0  0  0  0  0  0  0  0  0
   25.4323    2.0749   17.0908 C   0  0  1  0  0  0  0  0  0  0  0  0
   25.2591    2.1162   18.6226 C   0  0  0  0  0  0  0  0  0  0  0  0
   26.1649    3.1014   19.3703 C   0  0  0  0  0  0  0  0  0  0  0  0
   25.0448    0.7867   16.5619 O   0  0  0  0  0  0  0  0  0  0  0  0
  1  2  1  1  0  0  0
  1  3  1  0  0  0  0
  1  8  1  0  0  0  0
  3  4  1  0  0  0  0
  3 32  1  1  0  0  0
  4  5  1  0  0  0  0
  4 33  1  6  0  0  0
  5  6  1  1  0  0  0
  5  7  1  0  0  0  0
  7  8  1  0  0  0  0
  7  9  1  6  0  0  0
  9 10  1  0  0  0  0
 11 12  1  1  0  0  0
 11 13  1  0  0  0  0
 11 19  1  0  0  0  0
 12 35  1  0  0  0  0
 13 14  1  0  0  0  0
 14 15  1  1  0  0  0
 14 16  1  0  0  0  0
 16  2  1  6  0  0  0
 16 17  1  0  0  0  0
 17 18  1  1  0  0  0
 17 19  1  0  0  0  0
 19 20  1  6  0  0  0
 21 20  1  1  0  0  0
 21 22  1  0  0  0  0
 21 29  1  0  0  0  0
 22 23  1  6  0  0  0
 22 24  1  0  0  0  0
 24 25  1  1  0  0  0
 24 26  1  0  0  0  0
 26 27  1  1  0  0  0
 26 28  1  0  0  0  0
 28 29  1  0  0  0  0
 28 30  1  1  0  0  0
 30 31  1  0  0  0  0
 34 39  1  0  0  0  0
 35 36  2  0  0  0  0
 37 35  1  6  0  0  0
 37 38  1  0  0  0  0
 37 40  1  0  0  0  0
 38 39  1  0  0  0  0
M  END
>  <CHROM.1>
142.26087173,-61.77525683,76.46845946,34.35936732,-168.36803482,-65.16703355
-139.42115419,-146.26918719,-85.42955028,64.95019110,21.56309528,4.03005591
15.11790624,-1.98713528,0.25753348,2.18388054

>  <Name>
2g5q_lig

>  <RI>
0

>  <Rbt.Current_Directory>
/home/itssahil/PROJECTS/Mol_Feturizer/New_Systems/rnas/2g5q

>  <Rbt.Executable>
rbdock ($Id: //depot/dev/client3/rdock/2013.1/src/exe/rbdock.cxx#4 $)

>  <Rbt.Library>
libRbt.so (2013.1, Build901 2013/11/27)

>  <Rbt.Parameter_File>
/export/apps/rDock/src/rDock_2013.1_src/data/scripts/dock_solv.prm

>  <Rbt.Receptor>
prm/blind_docking_80.prm

>  <SCORE>
25.7177

>  <SCORE.INTER>
6.95552

>  <SCORE.INTER.CONST>
1

>  <SCORE.INTER.POLAR>
-0.484973

>  <SCORE.INTER.ROT>
10

>  <SCORE.INTER.SOLV>
17.982

>  <SCORE.INTER.VDW>
-10.0071

>  <SCORE.INTER.norm>
0.173888

>  <SCORE.INTRA>
5.70731

>  <SCORE.INTRA.DIHEDRAL>
-5.89499

>  <SCORE.INTRA.DIHEDRAL.0>
22.5778

>  <SCORE.INTRA.POLAR>
0

>  <SCORE.INTRA.POLAR.0>
0

>  <SCORE.INTRA.REPUL>
0

>  <SCORE.INTRA.REPUL.0>
0

>  <SCORE.INTRA.SOLV>
7.36122

>  <SCORE.INTRA.SOLV.lig_0>
-102.332

>  <SCORE.INTRA.VDW>
4.97419

>  <SCORE.INTRA.VDW.0>
-5.08747

>  <SCORE.INTRA.norm>
0.142683

>  <SCORE.RESTR>
13.0549

>  <SCORE.RESTR.CAVITY>
13.0549

>  <SCORE.RESTR.norm>
0.326372

>  <SCORE.SYSTEM>
0

>  <SCORE.SYSTEM.CONST>
0

>  <SCORE.SYSTEM.DIHEDRAL>
0

>  <SCORE.SYSTEM.SOLV>
0

>  <SCORE.SYSTEM.norm>
0

>  <SCORE.heavy>
40

>  <SCORE.norm>
0.642943

>  <RMSD>
26.240

$$$$
2g5q_lig
 OpenBabel11021811433D
libRbt.so/2013.1/901 2013/11/27
 40 42  0  0  0  0  0  0  0  0999 V2000
   19.1058    5.0022   11.1642 C   0  0  2  0  0  0  0  0  0  0  0  0
   19.2629    4.7177   12.5368 O   0  0  0  0  0  0  0  0  0  0  0  0
   18.9732    6.5431   10.9829 C   0  0  1  0  0  0  0  0  0  0  0  0
   17.6553    7.0917   11.6119 C   0  0  2  0  0  0  0  0  0  0  0  0
   16.4659    6.3797   10.9168 C   0  0  2  0  0  0  0  0  0  0  0  0
   15.2292    6.8761   11.4541 O   0  0  0  0  0  0  0  0  0  0  0  0
   16.6091    4.8226   11.1599 C   0  0  2  0  0  0  0  0  0  0  0  0
   17.9025    4.3355   10.6007 O   0  0  0  0  0  0  0  0  0  0  0  0
   15.4924    4.0177   10.5037 C   0  0  0  0  0  0  0  0  0  0  0  0
   15.4286    4.2471    9.0255 N   0  0  0  0  0  0  0  0  0  0  0  0
   23.0092    3.6900   14.5334 C   0  0  2  0  0  0  0  0  0  0  0  0
   24.3020    3.8203   15.1948 N   0  0  0  0  0  0  0  0  0  0  0  0
   23.0700    4.3233   13.0805 C   0  0  0  0  0  0  0  0  0  0  0  0
   21.6733    4.1779   12.3575 C   0  0  2  0  0  0  0  0  0  0  0  0
   21.7469    4.7654   10.9924 N   0  0  0  0  0  0  0  0  0  0  0  0
   20.5544    4.8789   13.2262 C   0  0  2  0  0  0  0  0  0  0  0  0
   20.5271    4.2256   14.6647 C   0  0  2  0  0  0  0  0  0  0  0  0
   19.5176    4.8660   15.4514 O   0  0  0  0  0  0  0  0  0  0  0  0
   21.9247    4.3954   15.3739 C   0  0  1  0  0  0  0  0  0  0  0  0
   21.9005    3.7821   16.6935 O   0  0  0  0  0  0  0  0  0  0  0  0
   21.2037    2.6001   17.0029 C   0  0  2  0  0  0  0  0  0  0  0  0
   21.6625    2.1444   18.4295 C   0  0  2  0  0  0  0  0  0  0  0  0
   21.3659    3.1415   19.3538 O   0  0  0  0  0  0  0  0  0  0  0  0
   23.1993    1.7971   18.4491 C   0  0  1  0  0  0  0  0  0  0  0  0
   23.6476    1.3550   19.8107 N   0  0  0  0  0  0  0  0  0  0  0  0
   23.4665    0.6673   17.3770 C   0  0  2  0  0  0  0  0  0  0  0  0
   24.8482    0.3034   17.3534 O   0  0  0  0  0  0  0  0  0  0  0  0
   22.9897    1.1843   15.9777 C   0  0  2  0  0  0  0  0  0  0  0  0
   21.5351    1.5626   16.0101 O   0  0  0  0  0  0  0  0  0  0  0  0
   23.1831    0.1499   14.9070 C   0  0  0  0  0  0  0  0  0  0  0  0
   24.5774   -0.1220   14.6901 O   0  0  0  0  0  0  0  0  0  0  0  0
   20.1516    7.1820   11.5841 O   0  0  0  0  0  0  0  0  0  0  0  0
   17.5838    8.4526   11.4114 O   0  0  0  0  0  0  0  0  0  0  0  0
   27.2444    3.8670   19.5608 N   0  0  0  0  0  0  0  0  0  0  0  0
   24.5222    4.4686   16.4020 C   0  0  0  0  0  0  0  0  0  0  0  0
   23.6412    5.0192   17.0531 O   0  0  0  0  0  0  0  0  0  0  0  0
   26.0083    4.4346   16.8276 C   0  0  1  0  0  0  0  0  0  0  0  0
   26.3654    3.0437   17.3896 C   0  0  0  0  0  0  0  0  0  0  0  0
   27.5110    3.0094   18.4078 C   0  0  0  0  0  0  0  0  0  0  0  0
   26.8347    4.7582   15.6867 O   0  0  0  0  0  0  0  0  0  0  0  0
  1  2  1  1  0  0  0
  1  3  1  0  0  0  0
  1  8  1  0  0  0  0
  3  4  1  0  0  0  0
  3 32  1  1  0  0  0
  4  5  1  0  0  0  0
  4 33  1  6  0  0  0
  5  6  1  1  0  0  0
  5  7  1  0  0  0  0
  7  8  1  0  0  0  0
  7  9  1  6  0  0  0
  9 10  1  0  0  0  0
 11 12  1  1  0  0  0
 11 13  1  0  0  0  0
 11 19  1  0  0  0  0
 12 35  1  0  0  0  0
 13 14  1  0  0  0  0
 14 15  1  6  0  0  0
 14 16  1  0  0  0  0
 16  2  1  6  0  0  0
 16 17  1  0  0  0  0
 17 18  1  1  0  0  0
 17 19  1  0  0  0  0
 19 20  1  1  0  0  0
 21 20  1  6  0  0  0
 21 22  1  0  0  0  0
 21 29  1  0  0  0  0
 22 23  1  1  0  0  0
 22 24  1  0  0  0  0
 24 25  1  1  0  0  0
 24 26  1  0  0  0  0
 26 27  1  6  0  0  0
 26 28  1  0  0  0  0
 28 29  1  0  0  0  0
 28 30  1  6  0  0  0
 30 31  1  0  0  0  0
 34 39  1  0  0  0  0
 35 36  2  0  0  0  0
 37 35  1  6  0  0  0
 37 38  1  0  0  0  0
 37 40  1  0  0  0  0
 38 39  1  0  0  0  0
M  END
>  <CHROM.1>
-79.19849292,58.11263020,121.87037637,-48.40758872,-83.27986281,169.17570982
-65.59848652,-76.79323270,-152.81161003,57.62243100,21.53382946,3.90906154
14.62995126,-2.44234416,0.37179339,2.44299820

>  <Name>
2g5q_lig

>  <RI>
0

>  <Rbt.Current_Directory>
/home/itssahil/PROJECTS/Mol_Feturizer/New_Systems/rnas/2g5q

>  <Rbt.Executable>
rbdock ($Id: //depot/dev/client3/rdock/2013.1/src/exe/rbdock.cxx#4 $)

>  <Rbt.Library>
libRbt.so (2013.1, Build901 2013/11/27)

>  <Rbt.Parameter_File>
/export/apps/rDock/src/rDock_2013.1_src/data/scripts/dock_solv.prm

>  <Rbt.Receptor>
prm/blind_docking_80.prm

>  <SCORE>
21.3042

>  <SCORE.INTER>
5.28308

>  <SCORE.INTER.CONST>
1

>  <SCORE.INTER.POLAR>
-0.449516

>  <SCORE.INTER.ROT>
10

>  <SCORE.INTER.SOLV>
20.55

>  <SCORE.INTER.VDW>
-12.0962

>  <SCORE.INTER.norm>
0.132077

>  <SCORE.INTRA>
5.68991

>  <SCORE.INTRA.DIHEDRAL>
-12.7133

>  <SCORE.INTRA.DIHEDRAL.0>
22.5778

>  <SCORE.INTRA.POLAR>
0

>  <SCORE.INTRA.POLAR.0>
0

>  <SCORE.INTRA.REPUL>
0

>  <SCORE.INTRA.REPUL.0>
0

>  <SCORE.INTRA.SOLV>
7.17465

>  <SCORE.INTRA.SOLV.lig_0>
-102.332

>  <SCORE.INTRA.VDW>
8.45924

>  <SCORE.INTRA.VDW.0>
-5.08747

>  <SCORE.INTRA.norm>
0.142248

>  <SCORE.RESTR>
10.3312

>  <SCORE.RESTR.CAVITY>
10.3312

>  <SCORE.RESTR.norm>
0.25828

>  <SCORE.SYSTEM>
0

>  <SCORE.SYSTEM.CONST>
0

>  <SCORE.SYSTEM.DIHEDRAL>
0

>  <SCORE.SYSTEM.SOLV>
0

>  <SCORE.SYSTEM.norm>
0

>  <SCORE.heavy>
40

>  <SCORE.norm>
0.532605

>  <RMSD>
26.263

$$$$
2g5q_lig
 OpenBabel11021811433D
libRbt.so/2013.1/901 2013/11/27
 40 42  0  0  0  0  0  0  0  0999 V2000
   18.6610    4.9266   12.3172 C   0  0  2  0  0  0  0  0  0  0  0  0
   19.7714    5.6661   11.8593 O   0  0  0  0  0  0  0  0  0  0  0  0
   18.0374    4.1602   11.1136 C   0  0  1  0  0  0  0  0  0  0  0  0
   17.4093    5.1321   10.0674 C   0  0  2  0  0  0  0  0  0  0  0  0
   16.3111    5.9577   10.7866 C   0  0  2  0  0  0  0  0  0  0  0  0
   15.6909    6.8514    9.8480 O   0  0  0  0  0  0  0  0  0  0  0  0
   16.9880    6.7566   11.9730 C   0  0  2  0  0  0  0  0  0  0  0  0
   17.6300    5.8073   12.9268 O   0  0  0  0  0  0  0  0  0  0  0  0
   15.9908    7.5976   12.7628 C   0  0  0  0  0  0  0  0  0  0  0  0
   15.1649    6.7638   13.6926 N   0  0  0  0  0  0  0  0  0  0  0  0
   23.2472    4.4446   14.2054 C   0  0  2  0  0  0  0  0  0  0  0  0
   24.4988    4.5018   14.9511 N   0  0  0  0  0  0  0  0  0  0  0  0
   23.4716    4.9469   12.7177 C   0  0  0  0  0  0  0  0  0  0  0  0
   22.1195    4.8799   11.9041 C   0  0  2  0  0  0  0  0  0  0  0  0
   22.3458    5.3428   10.5082 N   0  0  0  0  0  0  0  0  0  0  0  0
   21.0229    5.7563   12.6304 C   0  0  2  0  0  0  0  0  0  0  0  0
   20.8308    5.2296   14.1078 C   0  0  2  0  0  0  0  0  0  0  0  0
   19.8422    6.0285   14.7654 O   0  0  0  0  0  0  0  0  0  0  0  0
   22.1872    5.3197   14.9059 C   0  0  1  0  0  0  0  0  0  0  0  0
   22.0104    4.8226   16.2623 O   0  0  0  0  0  0  0  0  0  0  0  0
   20.8459    4.1831   16.7240 C   0  0  2  0  0  0  0  0  0  0  0  0
   20.7443    4.4476   18.2644 C   0  0  2  0  0  0  0  0  0  0  0  0
   20.6730    5.8177   18.4970 O   0  0  0  0  0  0  0  0  0  0  0  0
   21.9619    3.8082   19.0332 C   0  0  1  0  0  0  0  0  0  0  0  0
   21.8712    4.0523   20.5105 N   0  0  0  0  0  0  0  0  0  0  0  0
   21.9873    2.2591   18.7218 C   0  0  2  0  0  0  0  0  0  0  0  0
   23.0707    1.6203   19.4004 O   0  0  0  0  0  0  0  0  0  0  0  0
   22.0914    2.0632   17.1715 C   0  0  2  0  0  0  0  0  0  0  0  0
   20.9472    2.7357   16.4654 O   0  0  0  0  0  0  0  0  0  0  0  0
   22.0894    0.6105   16.7930 C   0  0  0  0  0  0  0  0  0  0  0  0
   22.4112    0.4329   15.4038 O   0  0  0  0  0  0  0  0  0  0  0  0
   19.0840    3.3303   10.5022 O   0  0  0  0  0  0  0  0  0  0  0  0
   16.8626    4.4025    9.0348 O   0  0  0  0  0  0  0  0  0  0  0  0
   25.6608    5.3881   19.0441 N   0  0  0  0  0  0  0  0  0  0  0  0
   24.9422    3.5386   15.8465 C   0  0  0  0  0  0  0  0  0  0  0  0
   24.3171    2.5198   16.1199 O   0  0  0  0  0  0  0  0  0  0  0  0
   26.3071    3.9015   16.4757 C   0  0  1  0  0  0  0  0  0  0  0  0
   26.4058    3.3151   17.8985 C   0  0  0  0  0  0  0  0  0  0  0  0
   25.4765    3.9417   18.9445 C   0  0  0  0  0  0  0  0  0  0  0  0
   27.3664    3.3937   15.6334 O   0  0  0  0  0  0  0  0  0  0  0  0
  1  2  1  6  0  0  0
  1  3  1  0  0  0  0
  1  8  1  0  0  0  0
  3  4  1  0  0  0  0
  3 32  1  6  0  0  0
  4  5  1  0  0  0  0
  4 33  1  6  0  0  0
  5  6  1  6  0  0  0
  5  7  1  0  0  0  0
  7  8  1  0  0  0  0
  7  9  1  1  0  0  0
  9 10  1  0  0  0  0
 11 12  1  1  0  0  0
 11 13  1  0  0  0  0
 11 19  1  0  0  0  0
 12 35  1  0  0  0  0
 13 14  1  0  0  0  0
 14 15  1  6  0  0  0
 14 16  1  0  0  0  0
 16  2  1  6  0  0  0
 16 17  1  0  0  0  0
 17 18  1  1  0  0  0
 17 19  1  0  0  0  0
 19 20  1  1  0  0  0
 21 20  1  1  0  0  0
 21 22  1  0  0  0  0
 21 29  1  0  0  0  0
 22 23  1  6  0  0  0
 22 24  1  0  0  0  0
 24 25  1  1  0  0  0
 24 26  1  0  0  0  0
 26 27  1  1  0  0  0
 26 28  1  0  0  0  0
 28 29  1  0  0  0  0
 28 30  1  1  0  0  0
 30 31  1  0  0  0  0
 34 39  1  0  0  0  0
 35 36  2  0  0  0  0
 37 35  1  6  0  0  0
 37 38  1  0  0  0  0
 37 40  1  0  0  0  0
 38 39  1  0  0  0  0
M  END
>  <CHROM.1>
-138.84709692,76.69341845,-139.20533429,107.17099377,-111.20576946,-152.23845379
-170.19866425,149.58519319,-68.44748674,-55.86407586,21.18959591,4.40095268
14.75790062,-2.37500126,-0.25731549,1.66711565

>  <Name>
2g5q_lig

>  <RI>
0

>  <Rbt.Current_Directory>
/home/itssahil/PROJECTS/Mol_Feturizer/New_Systems/rnas/2g5q

>  <Rbt.Executable>
rbdock ($Id: //depot/dev/client3/rdock/2013.1/src/exe/rbdock.cxx#4 $)

>  <Rbt.Library>
libRbt.so (2013.1, Build901 2013/11/27)

>  <Rbt.Parameter_File>
/export/apps/rDock/src/rDock_2013.1_src/data/scripts/dock_solv.prm

>  <Rbt.Receptor>
prm/blind_docking_80.prm

>  <SCORE>
16.564

>  <SCORE.INTER>
0.522405

>  <SCORE.INTER.CONST>
1

>  <SCORE.INTER.POLAR>
-0.605476

>  <SCORE.INTER.ROT>
10

>  <SCORE.INTER.SOLV>
16.2624

>  <SCORE.INTER.VDW>
-13.3209

>  <SCORE.INTER.norm>
0.0130601

>  <SCORE.INTRA>
6.11263

>  <SCORE.INTRA.DIHEDRAL>
3.58897

>  <SCORE.INTRA.DIHEDRAL.0>
22.5778

>  <SCORE.INTRA.POLAR>
0

>  <SCORE.INTRA.POLAR.0>
0

>  <SCORE.INTRA.REPUL>
0

>  <SCORE.INTRA.REPUL.0>
0

>  <SCORE.INTRA.SOLV>
4.37596

>  <SCORE.INTRA.SOLV.lig_0>
-102.332

>  <SCORE.INTRA.VDW>
2.13017

>  <SCORE.INTRA.VDW.0>
-5.08747

>  <SCORE.INTRA.norm>
0.152816

>  <SCORE.RESTR>
9.92892

>  <SCORE.RESTR.CAVITY>
9.92892

>  <SCORE.RESTR.norm>
0.248223

>  <SCORE.SYSTEM>
0

>  <SCORE.SYSTEM.CONST>
0

>  <SCORE.SYSTEM.DIHEDRAL>
0

>  <SCORE.SYSTEM.SOLV>
0

>  <SCORE.SYSTEM.norm>
0

>  <SCORE.heavy>
40

>  <SCORE.norm>
0.414099

>  <RMSD>
26.270

$$$$
2g5q_lig
 OpenBabel11021811433D
libRbt.so/2013.1/901 2013/11/27
 40 42  0  0  0  0  0  0  0  0999 V2000
   21.0095    6.7760   11.2234 C   0  0  2  0  0  0  0  0  0  0  0  0
   21.2973    7.2174   12.5318 O   0  0  0  0  0  0  0  0  0  0  0  0
   19.5133    7.0736   10.9110 C   0  0  1  0  0  0  0  0  0  0  0  0
   18.5532    6.2174   11.7935 C   0  0  2  0  0  0  0  0  0  0  0  0
   18.8581    4.7229   11.5133 C   0  0  2  0  0  0  0  0  0  0  0  0
   17.9758    3.8990   12.2926 O   0  0  0  0  0  0  0  0  0  0  0  0
   20.3716    4.4474   11.8841 C   0  0  2  0  0  0  0  0  0  0  0  0
   21.2640    5.3196   11.0681 O   0  0  0  0  0  0  0  0  0  0  0  0
   20.7870    3.0017   11.6329 C   0  0  0  0  0  0  0  0  0  0  0  0
   19.7950    2.0276   12.1886 N   0  0  0  0  0  0  0  0  0  0  0  0
   23.6835    4.0064   14.2847 C   0  0  2  0  0  0  0  0  0  0  0  0
   24.6630    3.3044   15.1055 N   0  0  0  0  0  0  0  0  0  0  0  0
   24.4062    5.0746   13.3614 C   0  0  0  0  0  0  0  0  0  0  0  0
   23.3494    5.8325   12.4651 C   0  0  2  0  0  0  0  0  0  0  0  0
   24.0408    6.8231   11.5964 N   0  0  0  0  0  0  0  0  0  0  0  0
   22.2757    6.5300   13.3917 C   0  0  2  0  0  0  0  0  0  0  0  0
   21.5817    5.4371   14.2977 C   0  0  2  0  0  0  0  0  0  0  0  0
   20.6145    6.0718   15.1401 O   0  0  0  0  0  0  0  0  0  0  0  0
   22.6513    4.7042   15.1943 C   0  0  1  0  0  0  0  0  0  0  0  0
   22.0111    3.6898   16.0186 O   0  0  0  0  0  0  0  0  0  0  0  0
   20.6188    3.5499   16.1604 C   0  0  2  0  0  0  0  0  0  0  0  0
   20.2153    4.2211   17.5168 C   0  0  2  0  0  0  0  0  0  0  0  0
   20.5703    5.5664   17.4935 O   0  0  0  0  0  0  0  0  0  0  0  0
   20.8837    3.4831   18.7380 C   0  0  1  0  0  0  0  0  0  0  0  0
   20.4994    4.1161   20.0426 N   0  0  0  0  0  0  0  0  0  0  0  0
   20.4454    1.9653   18.7010 C   0  0  2  0  0  0  0  0  0  0  0  0
   21.0170    1.2428   19.7934 O   0  0  0  0  0  0  0  0  0  0  0  0
   20.8778    1.3542   17.3254 C   0  0  2  0  0  0  0  0  0  0  0  0
   20.2706    2.1180   16.1818 O   0  0  0  0  0  0  0  0  0  0  0  0
   20.4664   -0.0842   17.2017 C   0  0  0  0  0  0  0  0  0  0  0  0
   19.2432   -0.2150   16.4590 O   0  0  0  0  0  0  0  0  0  0  0  0
   19.2761    8.5094   11.1121 O   0  0  0  0  0  0  0  0  0  0  0  0
   17.2474    6.5104   11.4670 O   0  0  0  0  0  0  0  0  0  0  0  0
   24.1687    1.1883   18.6178 N   0  0  0  0  0  0  0  0  0  0  0  0
   25.0557    3.6816   16.3821 C   0  0  0  0  0  0  0  0  0  0  0  0
   24.6210    4.6672   16.9679 O   0  0  0  0  0  0  0  0  0  0  0  0
   26.1173    2.7289   16.9786 C   0  0  1  0  0  0  0  0  0  0  0  0
   25.7332    1.2633   16.6912 C   0  0  0  0  0  0  0  0  0  0  0  0
   24.3645    0.8165   17.2180 C   0  0  0  0  0  0  0  0  0  0  0  0
   27.4087    3.0449   16.4115 O   0  0  0  0  0  0  0  0  0  0  0  0
  1  2  1  1  0  0  0
  1  3  1  0  0  0  0
  1  8  1  0  0  0  0
  3  4  1  0  0  0  0
  3 32  1  1  0  0  0
  4  5  1  0  0  0  0
  4 33  1  6  0  0  0
  5  6  1  1  0  0  0
  5  7  1  0  0  0  0
  7  8  1  0  0  0  0
  7  9  1  6  0  0  0
  9 10  1  0  0  0  0
 11 12  1  1  0  0  0
 11 13  1  0  0  0  0
 11 19  1  0  0  0  0
 12 35  1  0  0  0  0
 13 14  1  0  0  0  0
 14 15  1  1  0  0  0
 14 16  1  0  0  0  0
 16  2  1  6  0  0  0
 16 17  1  0  0  0  0
 17 18  1  1  0  0  0
 17 19  1  0  0  0  0
 19 20  1  6  0  0  0
 21 20  1  1  0  0  0
 21 22  1  0  0  0  0
 21 29  1  0  0  0  0
 22 23  1  6  0  0  0
 22 24  1  0  0  0  0
 24 25  1  1  0  0  0
 24 26  1  0  0  0  0
 26 27  1  1  0  0  0
 26 28  1  0  0  0  0
 28 29  1  0  0  0  0
 28 30  1  1  0  0  0
 30 31  1  0  0  0  0
 34 39  1  0  0  0  0
 35 36  2  0  0  0  0
 37 35  1  6  0  0  0
 37 38  1  0  0  0  0
 37 40  1  0  0  0  0
 38 39  1  0  0  0  0
M  END
>  <CHROM.1>
147.09551199,-47.39253016,91.78754575,27.92096667,-129.61717897,-99.97531855
97.96503139,-43.38946819,-57.85649446,-48.78853829,21.66182321,4.05174484
14.88674297,-1.96047105,0.09767125,2.20314760

>  <Name>
2g5q_lig

>  <RI>
0

>  <Rbt.Current_Directory>
/home/itssahil/PROJECTS/Mol_Feturizer/New_Systems/rnas/2g5q

>  <Rbt.Executable>
rbdock ($Id: //depot/dev/client3/rdock/2013.1/src/exe/rbdock.cxx#4 $)

>  <Rbt.Library>
libRbt.so (2013.1, Build901 2013/11/27)

>  <Rbt.Parameter_File>
/export/apps/rDock/src/rDock_2013.1_src/data/scripts/dock_solv.prm

>  <Rbt.Receptor>
prm/blind_docking_80.prm

>  <SCORE>
33.8232

>  <SCORE.INTER>
9.17385

>  <SCORE.INTER.CONST>
1

>  <SCORE.INTER.POLAR>
-0.48001

>  <SCORE.INTER.ROT>
10

>  <SCORE.INTER.SOLV>
21.3996

>  <SCORE.INTER.VDW>
-9.68392

>  <SCORE.INTER.norm>
0.229346

>  <SCORE.INTRA>
12.1243

>  <SCORE.INTRA.DIHEDRAL>
4.2223

>  <SCORE.INTRA.DIHEDRAL.0>
22.5778

>  <SCORE.INTRA.POLAR>
0

>  <SCORE.INTRA.POLAR.0>
0

>  <SCORE.INTRA.REPUL>
0

>  <SCORE.INTRA.REPUL.0>
0

>  <SCORE.INTRA.SOLV>
8.67331

>  <SCORE.INTRA.SOLV.lig_0>
-102.332

>  <SCORE.INTRA.VDW>
5.67655

>  <SCORE.INTRA.VDW.0>
-5.08747

>  <SCORE.INTRA.norm>
0.303109

>  <SCORE.RESTR>
12.525

>  <SCORE.RESTR.CAVITY>
12.525

>  <SCORE.RESTR.norm>
0.313125

>  <SCORE.SYSTEM>
0

>  <SCORE.SYSTEM.CONST>
0

>  <SCORE.SYSTEM.DIHEDRAL>
0

>  <SCORE.SYSTEM.SOLV>
0

>  <SCORE.SYSTEM.norm>
0

>  <SCORE.heavy>
40

>  <SCORE.norm>
0.84558

>  <RMSD>
26.286

$$$$
2g5q_lig
 OpenBabel11021811433D
libRbt.so/2013.1/901 2013/11/27
 40 42  0  0  0  0  0  0  0  0999 V2000
   19.6322    6.1679   11.4395 C   0  0  2  0  0  0  0  0  0  0  0  0
   19.6540    6.2077   12.8492 O   0  0  0  0  0  0  0  0  0  0  0  0
   18.1738    6.4148   10.9527 C   0  0  1  0  0  0  0  0  0  0  0  0
   17.2206    5.2474   11.3553 C   0  0  2  0  0  0  0  0  0  0  0  0
   17.7705    3.9450   10.7179 C   0  0  2  0  0  0  0  0  0  0  0  0
   16.9045    2.8468   11.0474 O   0  0  0  0  0  0  0  0  0  0  0  0
   19.2339    3.7025   11.2690 C   0  0  2  0  0  0  0  0  0  0  0  0
   20.1086    4.8586   10.9209 O   0  0  0  0  0  0  0  0  0  0  0  0
   19.8807    2.4471   10.6936 C   0  0  0  0  0  0  0  0  0  0  0  0
   21.2505    2.2147   11.2515 N   0  0  0  0  0  0  0  0  0  0  0  0
   23.0477    4.4023   14.9230 C   0  0  2  0  0  0  0  0  0  0  0  0
   24.2981    4.2580   15.6587 N   0  0  0  0  0  0  0  0  0  0  0  0
   23.3048    5.1429   13.5441 C   0  0  0  0  0  0  0  0  0  0  0  0
   21.9536    5.2949   12.7405 C   0  0  2  0  0  0  0  0  0  0  0  0
   22.2101    5.9806   11.4451 N   0  0  0  0  0  0  0  0  0  0  0  0
   20.9061    6.0915   13.6158 C   0  0  2  0  0  0  0  0  0  0  0  0
   20.6799    5.3269   14.9801 C   0  0  2  0  0  0  0  0  0  0  0  0
   19.7360    6.0533   15.7735 O   0  0  0  0  0  0  0  0  0  0  0  0
   22.0367    5.2000   15.7725 C   0  0  1  0  0  0  0  0  0  0  0  0
   21.8277    4.4847   17.0227 O   0  0  0  0  0  0  0  0  0  0  0  0
   20.9522    3.3942   17.1723 C   0  0  2  0  0  0  0  0  0  0  0  0
   21.1589    2.8207   18.6150 C   0  0  2  0  0  0  0  0  0  0  0  0
   20.8730    3.8080   19.5531 O   0  0  0  0  0  0  0  0  0  0  0  0
   22.6233    2.2708   18.8044 C   0  0  1  0  0  0  0  0  0  0  0  0
   22.8300    1.7149   20.1823 N   0  0  0  0  0  0  0  0  0  0  0  0
   22.8829    1.1624   17.7083 C   0  0  2  0  0  0  0  0  0  0  0  0
   24.1983    0.6186   17.8346 O   0  0  0  0  0  0  0  0  0  0  0  0
   22.6625    1.7978   16.2939 C   0  0  2  0  0  0  0  0  0  0  0  0
   21.2761    2.3652   16.1682 O   0  0  0  0  0  0  0  0  0  0  0  0
   22.8614    0.7937   15.1959 C   0  0  0  0  0  0  0  0  0  0  0  0
   21.9315   -0.2958   15.3104 O   0  0  0  0  0  0  0  0  0  0  0  0
   17.7104    7.6920   11.5116 O   0  0  0  0  0  0  0  0  0  0  0  0
   15.9513    5.5110   10.8895 O   0  0  0  0  0  0  0  0  0  0  0  0
   25.4406    4.6311   19.7181 N   0  0  0  0  0  0  0  0  0  0  0  0
   25.2119    3.2270   15.4906 C   0  0  0  0  0  0  0  0  0  0  0  0
   25.0630    2.3041   14.6973 O   0  0  0  0  0  0  0  0  0  0  0  0
   26.4332    3.3620   16.4291 C   0  0  1  0  0  0  0  0  0  0  0  0
   26.2457    4.5692   17.3702 C   0  0  0  0  0  0  0  0  0  0  0  0
   25.0431    4.4958   18.3182 C   0  0  0  0  0  0  0  0  0  0  0  0
   26.5879    2.1386   17.1833 O   0  0  0  0  0  0  0  0  0  0  0  0
  1  2  1  1  0  0  0
  1  3  1  0  0  0  0
  1  8  1  0  0  0  0
  3  4  1  0  0  0  0
  3 32  1  1  0  0  0
  4  5  1  0  0  0  0
  4 33  1  6  0  0  0
  5  6  1  1  0  0  0
  5  7  1  0  0  0  0
  7  8  1  0  0  0  0
  7  9  1  6  0  0  0
  9 10  1  0  0  0  0
 11 12  1  1  0  0  0
 11 13  1  0  0  0  0
 11 19  1  0  0  0  0
 12 35  1  0  0  0  0
 13 14  1  0  0  0  0
 14 15  1  6  0  0  0
 14 16  1  0  0  0  0
 16  2  1  6  0  0  0
 16 17  1  0  0  0  0
 17 18  1  1  0  0  0
 17 19  1  0  0  0  0
 19 20  1  1  0  0  0
 21 20  1  6  0  0  0
 21 22  1  0  0  0  0
 21 29  1  0  0  0  0
 22 23  1  1  0  0  0
 22 24  1  0  0  0  0
 24 25  1  1  0  0  0
 24 26  1  0  0  0  0
 26 27  1  6  0  0  0
 26 28  1  0  0  0  0
 28 29  1  0  0  0  0
 28 30  1  6  0  0  0
 30 31  1  0  0  0  0
 34 39  1  0  0  0  0
 35 36  2  0  0  0  0
 37 35  1  6  0  0  0
 37 38  1  0  0  0  0
 37 40  1  0  0  0  0
 38 39  1  0  0  0  0
M  END
>  <CHROM.1>
-176.15668503,-178.56916948,-85.15399729,-25.66512950,-81.93884829,173.30904525
60.73201898,3.89424853,61.95859855,123.51118900,21.66329963,3.85479918,14.80917704
-2.26543963,0.09067693,2.00395872

>  <Name>
2g5q_lig

>  <RI>
0

>  <Rbt.Current_Directory>
/home/itssahil/PROJECTS/Mol_Feturizer/New_Systems/rnas/2g5q

>  <Rbt.Executable>
rbdock ($Id: //depot/dev/client3/rdock/2013.1/src/exe/rbdock.cxx#4 $)

>  <Rbt.Library>
libRbt.so (2013.1, Build901 2013/11/27)

>  <Rbt.Parameter_File>
/export/apps/rDock/src/rDock_2013.1_src/data/scripts/dock_solv.prm

>  <Rbt.Receptor>
prm/blind_docking_80.prm

>  <SCORE>
25.9724

>  <SCORE.INTER>
9.91797

>  <SCORE.INTER.CONST>
1

>  <SCORE.INTER.POLAR>
-1.33524

>  <SCORE.INTER.ROT>
10

>  <SCORE.INTER.SOLV>
18.3468

>  <SCORE.INTER.VDW>
-5.31951

>  <SCORE.INTER.norm>
0.247949

>  <SCORE.INTRA>
6.0207

>  <SCORE.INTRA.DIHEDRAL>
-7.36017

>  <SCORE.INTRA.DIHEDRAL.0>
22.5778

>  <SCORE.INTRA.POLAR>
0

>  <SCORE.INTRA.POLAR.0>
0

>  <SCORE.INTRA.REPUL>
0

>  <SCORE.INTRA.REPUL.0>
0

>  <SCORE.INTRA.SOLV>
8.77089

>  <SCORE.INTRA.SOLV.lig_0>
-102.332

>  <SCORE.INTRA.VDW>
5.31534

>  <SCORE.INTRA.VDW.0>
-5.08747

>  <SCORE.INTRA.norm>
0.150518

>  <SCORE.RESTR>
10.0337

>  <SCORE.RESTR.CAVITY>
10.0337

>  <SCORE.RESTR.norm>
0.250842

>  <SCORE.SYSTEM>
0

>  <SCORE.SYSTEM.CONST>
0

>  <SCORE.SYSTEM.DIHEDRAL>
0

>  <SCORE.SYSTEM.SOLV>
0

>  <SCORE.SYSTEM.norm>
0

>  <SCORE.heavy>
40

>  <SCORE.norm>
0.649309

>  <RMSD>
26.297

$$$$
2g5q_lig
 OpenBabel11021811433D
libRbt.so/2013.1/901 2013/11/27
 40 42  0  0  0  0  0  0  0  0999 V2000
   19.3077    4.9678   12.0144 C   0  0  2  0  0  0  0  0  0  0  0  0
   19.3860    4.2790   13.2428 O   0  0  0  0  0  0  0  0  0  0  0  0
   19.8080    4.0272   10.8787 C   0  0  1  0  0  0  0  0  0  0  0  0
   21.3300    3.7122   11.0123 C   0  0  2  0  0  0  0  0  0  0  0  0
   22.0996    5.0573   10.9536 C   0  0  2  0  0  0  0  0  0  0  0  0
   23.5111    4.8070   11.0505 O   0  0  0  0  0  0  0  0  0  0  0  0
   21.5986    5.9679   12.1468 C   0  0  2  0  0  0  0  0  0  0  0  0
   20.1316    6.2052   12.0267 O   0  0  0  0  0  0  0  0  0  0  0  0
   22.2835    7.3301   12.1773 C   0  0  0  0  0  0  0  0  0  0  0  0
   23.6692    7.2497   12.7387 N   0  0  0  0  0  0  0  0  0  0  0  0
   22.2622    2.5571   16.0427 C   0  0  2  0  0  0  0  0  0  0  0  0
   23.5179    2.0969   16.6234 N   0  0  0  0  0  0  0  0  0  0  0  0
   21.9755    1.7951   14.6814 C   0  0  0  0  0  0  0  0  0  0  0  0
   20.6122    2.2854   14.0525 C   0  0  2  0  0  0  0  0  0  0  0  0
   20.3496    1.5555   12.7827 N   0  0  0  0  0  0  0  0  0  0  0  0
   20.6717    3.8472   13.8169 C   0  0  2  0  0  0  0  0  0  0  0  0
   20.9626    4.5699   15.1916 C   0  0  2  0  0  0  0  0  0  0  0  0
   21.0223    5.9832   14.9748 O   0  0  0  0  0  0  0  0  0  0  0  0
   22.3339    4.0779   15.7937 C   0  0  1  0  0  0  0  0  0  0  0  0
   22.5934    4.7359   17.0657 O   0  0  0  0  0  0  0  0  0  0  0  0
   21.5932    5.1053   17.9828 C   0  0  2  0  0  0  0  0  0  0  0  0
   22.2567    5.1706   19.4001 C   0  0  2  0  0  0  0  0  0  0  0  0
   23.2813    6.1121   19.3907 O   0  0  0  0  0  0  0  0  0  0  0  0
   22.7943    3.7571   19.8425 C   0  0  1  0  0  0  0  0  0  0  0  0
   23.4278    3.8084   21.2013 N   0  0  0  0  0  0  0  0  0  0  0  0
   21.5858    2.7389   19.8257 C   0  0  2  0  0  0  0  0  0  0  0  0
   22.0120    1.4352   20.2269 O   0  0  0  0  0  0  0  0  0  0  0  0
   20.9698    2.7190   18.3860 C   0  0  2  0  0  0  0  0  0  0  0  0
   20.5219    4.0931   17.9725 O   0  0  0  0  0  0  0  0  0  0  0  0
   19.7911    1.7935   18.2980 C   0  0  0  0  0  0  0  0  0  0  0  0
   20.0527    0.5502   18.9694 O   0  0  0  0  0  0  0  0  0  0  0  0
   19.0084    2.7953   10.9133 O   0  0  0  0  0  0  0  0  0  0  0  0
   21.7202    2.8902    9.9781 O   0  0  0  0  0  0  0  0  0  0  0  0
   26.8964    4.2242   17.2603 N   0  0  0  0  0  0  0  0  0  0  0  0
   24.0328    0.8136   16.5040 C   0  0  0  0  0  0  0  0  0  0  0  0
   23.4761   -0.0923   15.8935 O   0  0  0  0  0  0  0  0  0  0  0  0
   25.3809    0.6476   17.2425 C   0  0  1  0  0  0  0  0  0  0  0  0
   25.8751    2.0158   17.7544 C   0  0  0  0  0  0  0  0  0  0  0  0
   26.3626    2.9940   16.6793 C   0  0  0  0  0  0  0  0  0  0  0  0
   25.2099   -0.2818   18.3363 O   0  0  0  0  0  0  0  0  0  0  0  0
  1  2  1  1  0  0  0
  1  3  1  0  0  0  0
  1  8  1  0  0  0  0
  3  4  1  0  0  0  0
  3 32  1  1  0  0  0
  4  5  1  0  0  0  0
  4 33  1  6  0  0  0
  5  6  1  1  0  0  0
  5  7  1  0  0  0  0
  7  8  1  0  0  0  0
  7  9  1  6  0  0  0
  9 10  1  0  0  0  0
 11 12  1  6  0  0  0
 11 13  1  0  0  0  0
 11 19  1  0  0  0  0
 12 35  1  0  0  0  0
 13 14  1  0  0  0  0
 14 15  1  6  0  0  0
 14 16  1  0  0  0  0
 16  2  1  1  0  0  0
 16 17  1  0  0  0  0
 17 18  1  6  0  0  0
 17 19  1  0  0  0  0
 19 20  1  1  0  0  0
 21 20  1  6  0  0  0
 21 22  1  0  0  0  0
 21 29  1  0  0  0  0
 22 23  1  6  0  0  0
 22 24  1  0  0  0  0
 24 25  1  1  0  0  0
 24 26  1  0  0  0  0
 26 27  1  6  0  0  0
 26 28  1  0  0  0  0
 28 29  1  0  0  0  0
 28 30  1  1  0  0  0
 30 31  1  0  0  0  0
 34 39  1  0  0  0  0
 35 36  2  0  0  0  0
 37 35  1  1  0  0  0
 37 38  1  0  0  0  0
 37 40  1  0  0  0  0
 38 39  1  0  0  0  0
M  END
>  <CHROM.1>
64.56637480,-77.40249988,-31.90433792,-123.42375360,-85.96891060,155.26365825
-43.79798639,-7.53269879,-70.99822299,-176.05354590,22.12982965,3.50315275
15.53001250,3.06045797,1.27707921,-2.77195149

>  <Name>
2g5q_lig

>  <RI>
0

>  <Rbt.Current_Directory>
/home/itssahil/PROJECTS/Mol_Feturizer/New_Systems/rnas/2g5q

>  <Rbt.Executable>
rbdock ($Id: //depot/dev/client3/rdock/2013.1/src/exe/rbdock.cxx#4 $)

>  <Rbt.Library>
libRbt.so (2013.1, Build901 2013/11/27)

>  <Rbt.Parameter_File>
/export/apps/rDock/src/rDock_2013.1_src/data/scripts/dock_solv.prm

>  <Rbt.Receptor>
prm/blind_docking_80.prm

>  <SCORE>
30.5759

>  <SCORE.INTER>
8.83147

>  <SCORE.INTER.CONST>
1

>  <SCORE.INTER.POLAR>
-0.304318

>  <SCORE.INTER.ROT>
10

>  <SCORE.INTER.SOLV>
22.2451

>  <SCORE.INTER.VDW>
-10.7797

>  <SCORE.INTER.norm>
0.220787

>  <SCORE.INTRA>
7.11648

>  <SCORE.INTRA.DIHEDRAL>
-4.53567

>  <SCORE.INTRA.DIHEDRAL.0>
22.5778

>  <SCORE.INTRA.POLAR>
0

>  <SCORE.INTRA.POLAR.0>
0

>  <SCORE.INTRA.REPUL>
0

>  <SCORE.INTRA.REPUL.0>
0

>  <SCORE.INTRA.SOLV>
6.55837

>  <SCORE.INTRA.SOLV.lig_0>
-102.332

>  <SCORE.INTRA.VDW>
6.10513

>  <SCORE.INTRA.VDW.0>
-5.08747

>  <SCORE.INTRA.norm>
0.177912

>  <SCORE.RESTR>
14.628

>  <SCORE.RESTR.CAVITY>
14.628

>  <SCORE.RESTR.norm>
0.3657

>  <SCORE.SYSTEM>
0

>  <SCORE.SYSTEM.CONST>
0

>  <SCORE.SYSTEM.DIHEDRAL>
0

>  <SCORE.SYSTEM.SOLV>
0

>  <SCORE.SYSTEM.norm>
0

>  <SCORE.heavy>
40

>  <SCORE.norm>
0.764399

>  <RMSD>
26.319

$$$$
2g5q_lig
 OpenBabel11021811433D
libRbt.so/2013.1/901 2013/11/27
 40 42  0  0  0  0  0  0  0  0999 V2000
   19.4154    5.0089   11.0931 C   0  0  2  0  0  0  0  0  0  0  0  0
   19.3728    4.6472   12.4557 O   0  0  0  0  0  0  0  0  0  0  0  0
   19.2214    6.5496   10.9764 C   0  0  1  0  0  0  0  0  0  0  0  0
   17.7911    6.9908   11.4159 C   0  0  2  0  0  0  0  0  0  0  0  0
   16.7693    6.2649   10.5026 C   0  0  2  0  0  0  0  0  0  0  0  0
   15.4366    6.6640   10.8619 O   0  0  0  0  0  0  0  0  0  0  0  0
   16.9652    4.7048   10.6811 C   0  0  2  0  0  0  0  0  0  0  0  0
   18.3567    4.3193   10.3098 O   0  0  0  0  0  0  0  0  0  0  0  0
   16.0145    3.8876    9.8127 C   0  0  0  0  0  0  0  0  0  0  0  0
   14.6332    4.4649    9.7951 N   0  0  0  0  0  0  0  0  0  0  0  0
   22.7846    4.2048   15.1466 C   0  0  2  0  0  0  0  0  0  0  0  0
   23.8767    4.5299   16.0562 N   0  0  0  0  0  0  0  0  0  0  0  0
   23.0070    4.9156   13.7462 C   0  0  0  0  0  0  0  0  0  0  0  0
   21.8297    4.5603   12.7552 C   0  0  2  0  0  0  0  0  0  0  0  0
   22.0558    5.2237   11.4427 N   0  0  0  0  0  0  0  0  0  0  0  0
   20.4524    5.0009   13.3931 C   0  0  2  0  0  0  0  0  0  0  0  0
   20.2688    4.2772   14.7857 C   0  0  2  0  0  0  0  0  0  0  0  0
   19.0242    4.6825   15.3642 O   0  0  0  0  0  0  0  0  0  0  0  0
   21.4452    4.6574   15.7638 C   0  0  1  0  0  0  0  0  0  0  0  0
   21.2803    3.9799   17.0413 O   0  0  0  0  0  0  0  0  0  0  0  0
   20.8940    2.6345   17.1781 C   0  0  2  0  0  0  0  0  0  0  0  0
   21.0578    2.2502   18.6877 C   0  0  2  0  0  0  0  0  0  0  0  0
   20.2486    3.0714   19.4669 O   0  0  0  0  0  0  0  0  0  0  0  0
   22.5638    2.3501   19.1402 C   0  0  1  0  0  0  0  0  0  0  0  0
   22.7317    1.9793   20.5840 N   0  0  0  0  0  0  0  0  0  0  0  0
   23.4242    1.4014   18.2143 C   0  0  2  0  0  0  0  0  0  0  0  0
   24.8042    1.4440   18.5830 O   0  0  0  0  0  0  0  0  0  0  0  0
   23.2188    1.8378   16.7244 C   0  0  2  0  0  0  0  0  0  0  0  0
   21.7654    1.7879   16.3437 O   0  0  0  0  0  0  0  0  0  0  0  0
   23.9837    0.9596   15.7771 C   0  0  0  0  0  0  0  0  0  0  0  0
   23.5054   -0.3948   15.8196 O   0  0  0  0  0  0  0  0  0  0  0  0
   20.2512    7.2079   11.7914 O   0  0  0  0  0  0  0  0  0  0  0  0
   17.6710    8.3563   11.2803 O   0  0  0  0  0  0  0  0  0  0  0  0
   25.5716    6.1637   19.7442 N   0  0  0  0  0  0  0  0  0  0  0  0
   25.1853    4.0856   15.9277 C   0  0  0  0  0  0  0  0  0  0  0  0
   25.5728    3.3525   15.0245 O   0  0  0  0  0  0  0  0  0  0  0  0
   26.0989    4.6047   17.0619 C   0  0  1  0  0  0  0  0  0  0  0  0
   25.6131    4.0629   18.4215 C   0  0  0  0  0  0  0  0  0  0  0  0
   26.1214    4.8123   19.6586 C   0  0  0  0  0  0  0  0  0  0  0  0
   27.4596    4.1940   16.7988 O   0  0  0  0  0  0  0  0  0  0  0  0
  1  2  1  1  0  0  0
  1  3  1  0  0  0  0
  1  8  1  0  0  0  0
  3  4  1  0  0  0  0
  3 32  1  1  0  0  0
  4  5  1  0  0  0  0
  4 33  1  6  0  0  0
  5  6  1  1  0  0  0
  5  7  1  0  0  0  0
  7  8  1  0  0  0  0
  7  9  1  6  0  0  0
  9 10  1  0  0  0  0
 11 12  1  1  0  0  0
 11 13  1  0  0  0  0
 11 19  1  0  0  0  0
 12 35  1  0  0  0  0
 13 14  1  0  0  0  0
 14 15  1  6  0  0  0
 14 16  1  0  0  0  0
 16  2  1  6  0  0  0
 16 17  1  0  0  0  0
 17 18  1  1  0  0  0
 17 19  1  0  0  0  0
 19 20  1  1  0  0  0
 21 20  1  1  0  0  0
 21 22  1  0  0  0  0
 21 29  1  0  0  0  0
 22 23  1  1  0  0  0
 22 24  1  0  0  0  0
 24 25  1  1  0  0  0
 24 26  1  0  0  0  0
 26 27  1  1  0  0  0
 26 28  1  0  0  0  0
 28 29  1  0  0  0  0
 28 30  1  6  0  0  0
 30 31  1  0  0  0  0
 34 39  1  0  0  0  0
 35 36  2  0  0  0  0
 37 35  1  6  0  0  0
 37 38  1  0  0  0  0
 37 40  1  0  0  0  0
 38 39  1  0  0  0  0
M  END
>  <CHROM.1>
-70.34582202,-41.43032773,-69.35890266,-50.45492881,-76.82116039,171.19817792
63.83147483,62.79276524,-161.65416275,67.62366567,21.43208256,4.13884200
14.88681604,-2.35093774,0.29279059,2.20509053

>  <Name>
2g5q_lig

>  <RI>
0

>  <Rbt.Current_Directory>
/home/itssahil/PROJECTS/Mol_Feturizer/New_Systems/rnas/2g5q

>  <Rbt.Executable>
rbdock ($Id: //depot/dev/client3/rdock/2013.1/src/exe/rbdock.cxx#4 $)

>  <Rbt.Library>
libRbt.so (2013.1, Build901 2013/11/27)

>  <Rbt.Parameter_File>
/export/apps/rDock/src/rDock_2013.1_src/data/scripts/dock_solv.prm

>  <Rbt.Receptor>
prm/blind_docking_80.prm

>  <SCORE>
10.1686

>  <SCORE.INTER>
2.4215

>  <SCORE.INTER.CONST>
1

>  <SCORE.INTER.POLAR>
-0.704133

>  <SCORE.INTER.ROT>
10

>  <SCORE.INTER.SOLV>
18.4575

>  <SCORE.INTER.VDW>
-12.4577

>  <SCORE.INTER.norm>
0.0605374

>  <SCORE.INTRA>
-2.28891

>  <SCORE.INTRA.DIHEDRAL>
-16.509

>  <SCORE.INTRA.DIHEDRAL.0>
22.5778

>  <SCORE.INTRA.POLAR>
0

>  <SCORE.INTRA.POLAR.0>
0

>  <SCORE.INTRA.REPUL>
0

>  <SCORE.INTRA.REPUL.0>
0

>  <SCORE.INTRA.SOLV>
6.60223

>  <SCORE.INTRA.SOLV.lig_0>
-102.332

>  <SCORE.INTRA.VDW>
2.66446

>  <SCORE.INTRA.VDW.0>
-5.08747

>  <SCORE.INTRA.norm>
-0.0572228

>  <SCORE.RESTR>
10.036

>  <SCORE.RESTR.CAVITY>
10.036

>  <SCORE.RESTR.norm>
0.2509

>  <SCORE.SYSTEM>
0

>  <SCORE.SYSTEM.CONST>
0

>  <SCORE.SYSTEM.DIHEDRAL>
0

>  <SCORE.SYSTEM.SOLV>
0

>  <SCORE.SYSTEM.norm>
0

>  <SCORE.heavy>
40

>  <SCORE.norm>
0.254214

>  <RMSD>
26.320

$$$$
2g5q_lig
 OpenBabel11021811433D
libRbt.so/2013.1/901 2013/11/27
 40 42  0  0  0  0  0  0  0  0999 V2000
   20.7944    5.5483   11.8454 C   0  0  2  0  0  0  0  0  0  0  0  0
   20.6572    5.6473   13.2457 O   0  0  0  0  0  0  0  0  0  0  0  0
   20.5364    6.9487   11.2153 C   0  0  1  0  0  0  0  0  0  0  0  0
   19.0551    7.4037   11.3953 C   0  0  2  0  0  0  0  0  0  0  0  0
   18.1484    6.3480   10.7110 C   0  0  2  0  0  0  0  0  0  0  0  0
   16.7729    6.7442   10.8353 O   0  0  0  0  0  0  0  0  0  0  0  0
   18.4040    4.9494   11.4057 C   0  0  2  0  0  0  0  0  0  0  0  0
   19.8384    4.5663   11.2693 O   0  0  0  0  0  0  0  0  0  0  0  0
   17.5688    3.8273   10.7983 C   0  0  0  0  0  0  0  0  0  0  0  0
   17.7441    3.7368    9.3142 N   0  0  0  0  0  0  0  0  0  0  0  0
   23.5912    3.7467   15.8642 C   0  0  2  0  0  0  0  0  0  0  0  0
   24.7355    3.5578   16.7478 N   0  0  0  0  0  0  0  0  0  0  0  0
   24.0707    4.2942   14.4549 C   0  0  0  0  0  0  0  0  0  0  0  0
   22.8347    4.4935   13.4920 C   0  0  2  0  0  0  0  0  0  0  0  0
   23.2989    4.9964   12.1708 N   0  0  0  0  0  0  0  0  0  0  0  0
   21.8034    5.4895   14.1570 C   0  0  2  0  0  0  0  0  0  0  0  0
   21.3530    4.9134   15.5578 C   0  0  2  0  0  0  0  0  0  0  0  0
   20.4241    5.8199   16.1608 O   0  0  0  0  0  0  0  0  0  0  0  0
   22.5986    4.7371   16.5076 C   0  0  1  0  0  0  0  0  0  0  0  0
   22.1826    4.1948   17.7926 O   0  0  0  0  0  0  0  0  0  0  0  0
   20.8683    4.2590   18.2891 C   0  0  2  0  0  0  0  0  0  0  0  0
   20.8218    3.4114   19.6054 C   0  0  2  0  0  0  0  0  0  0  0  0
   21.7185    3.9387   20.5297 O   0  0  0  0  0  0  0  0  0  0  0  0
   21.1365    1.8947   19.3171 C   0  0  1  0  0  0  0  0  0  0  0  0
   21.0899    1.0734   20.5716 N   0  0  0  0  0  0  0  0  0  0  0  0
   20.0893    1.3627   18.2599 C   0  0  2  0  0  0  0  0  0  0  0  0
   20.3204   -0.0158   17.9625 O   0  0  0  0  0  0  0  0  0  0  0  0
   20.1872    2.2476   16.9715 C   0  0  2  0  0  0  0  0  0  0  0  0
   19.9405    3.6955   17.2922 O   0  0  0  0  0  0  0  0  0  0  0  0
   19.1964    1.8215   15.9273 C   0  0  0  0  0  0  0  0  0  0  0  0
   17.8487    1.9189   16.4163 O   0  0  0  0  0  0  0  0  0  0  0  0
   21.4626    7.9093   11.8298 O   0  0  0  0  0  0  0  0  0  0  0  0
   18.8808    8.6383   10.8097 O   0  0  0  0  0  0  0  0  0  0  0  0
   27.6876    4.4146   16.4417 N   0  0  0  0  0  0  0  0  0  0  0  0
   24.8331    2.5878   17.7355 C   0  0  0  0  0  0  0  0  0  0  0  0
   23.9506    1.7736   17.9839 O   0  0  0  0  0  0  0  0  0  0  0  0
   26.1742    2.6586   18.5017 C   0  0  1  0  0  0  0  0  0  0  0  0
   27.3338    2.2353   17.5775 C   0  0  0  0  0  0  0  0  0  0  0  0
   27.4350    2.9885   16.2460 C   0  0  0  0  0  0  0  0  0  0  0  0
   26.3690    4.0046   18.9911 O   0  0  0  0  0  0  0  0  0  0  0  0
  1  2  1  1  0  0  0
  1  3  1  0  0  0  0
  1  8  1  0  0  0  0
  3  4  1  0  0  0  0
  3 32  1  1  0  0  0
  4  5  1  0  0  0  0
  4 33  1  6  0  0  0
  5  6  1  1  0  0  0
  5  7  1  0  0  0  0
  7  8  1  0  0  0  0
  7  9  1  6  0  0  0
  9 10  1  0  0  0  0
 11 12  1  1  0  0  0
 11 13  1  0  0  0  0
 11 19  1  0  0  0  0
 12 35  1  0  0  0  0
 13 14  1  0  0  0  0
 14 15  1  6  0  0  0
 14 16  1  0  0  0  0
 16  2  1  6  0  0  0
 16 17  1  0  0  0  0
 17 18  1  1  0  0  0
 17 19  1  0  0  0  0
 19 20  1  1  0  0  0
 21 20  1  6  0  0  0
 21 22  1  0  0  0  0
 21 29  1  0  0  0  0
 22 23  1  1  0  0  0
 22 24  1  0  0  0  0
 24 25  1  1  0  0  0
 24 26  1  0  0  0  0
 26 27  1  6  0  0  0
 26 28  1  0  0  0  0
 28 29  1  0  0  0  0
 28 30  1  6  0  0  0
 30 31  1  0  0  0  0
 34 39  1  0  0  0  0
 35 36  2  0  0  0  0
 37 35  1  6  0  0  0
 37 38  1  0  0  0  0
 37 40  1  0  0  0  0
 38 39  1  0  0  0  0
M  END
>  <CHROM.1>
-112.30661522,53.53516343,-148.41682034,-30.52244319,-140.00458749,173.20390320
59.84011936,-68.89735467,53.77714150,62.83205398,21.55886397,4.13542274,15.30708070
-2.14022993,0.15924380,2.10279726

>  <Name>
2g5q_lig

>  <RI>
0

>  <Rbt.Current_Directory>
/home/itssahil/PROJECTS/Mol_Feturizer/New_Systems/rnas/2g5q

>  <Rbt.Executable>
rbdock ($Id: //depot/dev/client3/rdock/2013.1/src/exe/rbdock.cxx#4 $)

>  <Rbt.Library>
libRbt.so (2013.1, Build901 2013/11/27)

>  <Rbt.Parameter_File>
/export/apps/rDock/src/rDock_2013.1_src/data/scripts/dock_solv.prm

>  <Rbt.Receptor>
prm/blind_docking_80.prm

>  <SCORE>
27.4071

>  <SCORE.INTER>
7.09821

>  <SCORE.INTER.CONST>
1

>  <SCORE.INTER.POLAR>
-1.07978

>  <SCORE.INTER.ROT>
10

>  <SCORE.INTER.SOLV>
30.3818

>  <SCORE.INTER.VDW>
-12.0625

>  <SCORE.INTER.norm>
0.177455

>  <SCORE.INTRA>
7.21681

>  <SCORE.INTRA.DIHEDRAL>
-4.68942

>  <SCORE.INTRA.DIHEDRAL.0>
22.5778

>  <SCORE.INTRA.POLAR>
0

>  <SCORE.INTRA.POLAR.0>
0

>  <SCORE.INTRA.REPUL>
0

>  <SCORE.INTRA.REPUL.0>
0

>  <SCORE.INTRA.SOLV>
8.26202

>  <SCORE.INTRA.SOLV.lig_0>
-102.332

>  <SCORE.INTRA.VDW>
5.43051

>  <SCORE.INTRA.VDW.0>
-5.08747

>  <SCORE.INTRA.norm>
0.18042

>  <SCORE.RESTR>
13.0921

>  <SCORE.RESTR.CAVITY>
13.0921

>  <SCORE.RESTR.norm>
0.327303

>  <SCORE.SYSTEM>
0

>  <SCORE.SYSTEM.CONST>
0

>  <SCORE.SYSTEM.DIHEDRAL>
0

>  <SCORE.SYSTEM.SOLV>
0

>  <SCORE.SYSTEM.norm>
0

>  <SCORE.heavy>
40

>  <SCORE.norm>
0.685179

>  <RMSD>
26.345

$$$$
2g5q_lig
 OpenBabel11021811433D
libRbt.so/2013.1/901 2013/11/27
 40 42  0  0  0  0  0  0  0  0999 V2000
   18.9962    5.0772   12.6207 C   0  0  2  0  0  0  0  0  0  0  0  0
   20.1388    5.8743   12.4005 O   0  0  0  0  0  0  0  0  0  0  0  0
   18.6282    4.3498   11.2939 C   0  0  1  0  0  0  0  0  0  0  0  0
   18.1562    5.3500   10.1937 C   0  0  2  0  0  0  0  0  0  0  0  0
   16.9147    6.1029   10.7383 C   0  0  2  0  0  0  0  0  0  0  0  0
   16.4346    7.0200    9.7420 O   0  0  0  0  0  0  0  0  0  0  0  0
   17.3368    6.8652   12.0592 C   0  0  2  0  0  0  0  0  0  0  0  0
   17.8379    5.8926   13.0720 O   0  0  0  0  0  0  0  0  0  0  0  0
   16.1814    7.6335   12.6920 C   0  0  0  0  0  0  0  0  0  0  0  0
   15.0408    6.7341   13.0550 N   0  0  0  0  0  0  0  0  0  0  0  0
   24.0190    4.2794   13.6160 C   0  0  2  0  0  0  0  0  0  0  0  0
   25.2682    4.0929   14.3444 N   0  0  0  0  0  0  0  0  0  0  0  0
   23.9554    5.7400   13.0007 C   0  0  0  0  0  0  0  0  0  0  0  0
   22.6066    5.9439   12.2046 C   0  0  2  0  0  0  0  0  0  0  0  0
   22.5645    7.3130   11.6235 N   0  0  0  0  0  0  0  0  0  0  0  0
   21.3811    5.6903   13.1699 C   0  0  2  0  0  0  0  0  0  0  0  0
   21.4813    4.2301   13.7653 C   0  0  2  0  0  0  0  0  0  0  0  0
   20.3741    4.0050   14.6438 O   0  0  0  0  0  0  0  0  0  0  0  0
   22.8263    4.0532   14.5681 C   0  0  1  0  0  0  0  0  0  0  0  0
   22.9217    2.7037   15.1050 O   0  0  0  0  0  0  0  0  0  0  0  0
   23.4710    2.3901   16.3611 C   0  0  2  0  0  0  0  0  0  0  0  0
   23.1568    0.8827   16.6478 C   0  0  2  0  0  0  0  0  0  0  0  0
   23.7273    0.0919   15.6549 O   0  0  0  0  0  0  0  0  0  0  0  0
   21.6040    0.6333   16.7438 C   0  0  1  0  0  0  0  0  0  0  0  0
   21.2928   -0.8074   17.0228 N   0  0  0  0  0  0  0  0  0  0  0  0
   21.0214    1.5628   17.8813 C   0  0  2  0  0  0  0  0  0  0  0  0
   19.6117    1.3750   18.0212 O   0  0  0  0  0  0  0  0  0  0  0  0
   21.3664    3.0508   17.5356 C   0  0  2  0  0  0  0  0  0  0  0  0
   22.8508    3.2406   17.3927 O   0  0  0  0  0  0  0  0  0  0  0  0
   20.8705    3.9964   18.5908 C   0  0  0  0  0  0  0  0  0  0  0  0
   21.1180    5.3636   18.2241 O   0  0  0  0  0  0  0  0  0  0  0  0
   19.8001    3.5856   10.8457 O   0  0  0  0  0  0  0  0  0  0  0  0
   17.8320    4.6536    9.0502 O   0  0  0  0  0  0  0  0  0  0  0  0
   25.6623    2.0936   19.2155 N   0  0  0  0  0  0  0  0  0  0  0  0
   25.4616    4.3778   15.6888 C   0  0  0  0  0  0  0  0  0  0  0  0
   24.5915    4.8323   16.4235 O   0  0  0  0  0  0  0  0  0  0  0  0
   26.9042    4.0741   16.1549 C   0  0  1  0  0  0  0  0  0  0  0  0
   26.8881    2.9897   17.2512 C   0  0  0  0  0  0  0  0  0  0  0  0
   26.0391    3.3040   18.4884 C   0  0  0  0  0  0  0  0  0  0  0  0
   27.6887    3.6476   15.0182 O   0  0  0  0  0  0  0  0  0  0  0  0
  1  2  1  6  0  0  0
  1  3  1  0  0  0  0
  1  8  1  0  0  0  0
  3  4  1  0  0  0  0
  3 32  1  6  0  0  0
  4  5  1  0  0  0  0
  4 33  1  6  0  0  0
  5  6  1  6  0  0  0
  5  7  1  0  0  0  0
  7  8  1  0  0  0  0
  7  9  1  1  0  0  0
  9 10  1  0  0  0  0
 11 12  1  1  0  0  0
 11 13  1  0  0  0  0
 11 19  1  0  0  0  0
 12 35  1  0  0  0  0
 13 14  1  0  0  0  0
 14 15  1  1  0  0  0
 14 16  1  0  0  0  0
 16  2  1  6  0  0  0
 16 17  1  0  0  0  0
 17 18  1  1  0  0  0
 17 19  1  0  0  0  0
 19 20  1  6  0  0  0
 21 20  1  6  0  0  0
 21 22  1  0  0  0  0
 21 29  1  0  0  0  0
 22 23  1  6  0  0  0
 22 24  1  0  0  0  0
 24 25  1  1  0  0  0
 24 26  1  0  0  0  0
 26 27  1  6  0  0  0
 26 28  1  0  0  0  0
 28 29  1  0  0  0  0
 28 30  1  1  0  0  0
 30 31  1  0  0  0  0
 34 39  1  0  0  0  0
 35 36  2  0  0  0  0
 37 35  1  6  0  0  0
 37 38  1  0  0  0  0
 37 40  1  0  0  0  0
 38 39  1  0  0  0  0
M  END
>  <CHROM.1>
-121.14684414,59.37265673,89.46061235,143.55312482,97.76265540,170.45393004
-176.39524309,-118.33041599,-56.81609817,158.33292718,21.57656414,4.10455815
14.54936978,2.37654663,-0.05893586,-0.97505810

>  <Name>
2g5q_lig

>  <RI>
0

>  <Rbt.Current_Directory>
/home/itssahil/PROJECTS/Mol_Feturizer/New_Systems/rnas/2g5q

>  <Rbt.Executable>
rbdock ($Id: //depot/dev/client3/rdock/2013.1/src/exe/rbdock.cxx#4 $)

>  <Rbt.Library>
libRbt.so (2013.1, Build901 2013/11/27)

>  <Rbt.Parameter_File>
/export/apps/rDock/src/rDock_2013.1_src/data/scripts/dock_solv.prm

>  <Rbt.Receptor>
prm/blind_docking_80.prm

>  <SCORE>
19.0948

>  <SCORE.INTER>
2.50787

>  <SCORE.INTER.CONST>
1

>  <SCORE.INTER.POLAR>
-0.426558

>  <SCORE.INTER.ROT>
10

>  <SCORE.INTER.SOLV>
19.7031

>  <SCORE.INTER.VDW>
-13.7406

>  <SCORE.INTER.norm>
0.0626967

>  <SCORE.INTRA>
4.3656

>  <SCORE.INTRA.DIHEDRAL>
-0.409315

>  <SCORE.INTRA.DIHEDRAL.0>
22.5778

>  <SCORE.INTRA.POLAR>
0

>  <SCORE.INTRA.POLAR.0>
0

>  <SCORE.INTRA.REPUL>
0

>  <SCORE.INTRA.REPUL.0>
0

>  <SCORE.INTRA.SOLV>
4.11924

>  <SCORE.INTRA.SOLV.lig_0>
-102.332

>  <SCORE.INTRA.VDW>
2.51064

>  <SCORE.INTRA.VDW.0>
-5.08747

>  <SCORE.INTRA.norm>
0.10914

>  <SCORE.RESTR>
12.2213

>  <SCORE.RESTR.CAVITY>
12.2213

>  <SCORE.RESTR.norm>
0.305532

>  <SCORE.SYSTEM>
0

>  <SCORE.SYSTEM.CONST>
0

>  <SCORE.SYSTEM.DIHEDRAL>
0

>  <SCORE.SYSTEM.SOLV>
0

>  <SCORE.SYSTEM.norm>
0

>  <SCORE.heavy>
40

>  <SCORE.norm>
0.477369

>  <RMSD>
26.347

$$$$
2g5q_lig
 OpenBabel11021811433D
libRbt.so/2013.1/901 2013/11/27
 40 42  0  0  0  0  0  0  0  0999 V2000
   20.5744    5.5277   11.6052 C   0  0  2  0  0  0  0  0  0  0  0  0
   20.4406    5.4686   13.0081 O   0  0  0  0  0  0  0  0  0  0  0  0
   20.2535    6.9758   11.1309 C   0  0  1  0  0  0  0  0  0  0  0  0
   18.7552    7.3446   11.3602 C   0  0  2  0  0  0  0  0  0  0  0  0
   17.8906    6.3313   10.5663 C   0  0  2  0  0  0  0  0  0  0  0  0
   16.5001    6.6523   10.7338 O   0  0  0  0  0  0  0  0  0  0  0  0
   18.2093    4.8779   11.1051 C   0  0  2  0  0  0  0  0  0  0  0  0
   19.6579    4.5737   10.9268 O   0  0  0  0  0  0  0  0  0  0  0  0
   17.4193    3.7934   10.3802 C   0  0  0  0  0  0  0  0  0  0  0  0
   16.0095    4.2150   10.1040 N   0  0  0  0  0  0  0  0  0  0  0  0
   23.5826    3.8976   15.6037 C   0  0  2  0  0  0  0  0  0  0  0  0
   24.7516    3.8330   16.4727 N   0  0  0  0  0  0  0  0  0  0  0  0
   23.9869    4.4733   14.1821 C   0  0  0  0  0  0  0  0  0  0  0  0
   22.7246    4.5383   13.2351 C   0  0  2  0  0  0  0  0  0  0  0  0
   23.1192    5.0691   11.9022 N   0  0  0  0  0  0  0  0  0  0  0  0
   21.6088    5.4354   13.9045 C   0  0  2  0  0  0  0  0  0  0  0  0
   21.2362    4.8341   15.3175 C   0  0  2  0  0  0  0  0  0  0  0  0
   20.2303    5.6514   15.9243 O   0  0  0  0  0  0  0  0  0  0  0  0
   22.5056    4.7927   16.2511 C   0  0  1  0  0  0  0  0  0  0  0  0
   22.1624    4.2271   17.5474 O   0  0  0  0  0  0  0  0  0  0  0  0
   21.3421    3.0984   17.7249 C   0  0  2  0  0  0  0  0  0  0  0  0
   21.7688    2.4145   19.0678 C   0  0  2  0  0  0  0  0  0  0  0  0
   21.6003    3.3099   20.1196 O   0  0  0  0  0  0  0  0  0  0  0  0
   23.2569    1.9015   18.9975 C   0  0  1  0  0  0  0  0  0  0  0  0
   23.6737    1.2405   20.2780 N   0  0  0  0  0  0  0  0  0  0  0  0
   23.3790    0.8976   17.7831 C   0  0  2  0  0  0  0  0  0  0  0  0
   24.7106    0.3908   17.6724 O   0  0  0  0  0  0  0  0  0  0  0  0
   22.9417    1.6404   16.4756 C   0  0  2  0  0  0  0  0  0  0  0  0
   21.5395    2.1681   16.5990 O   0  0  0  0  0  0  0  0  0  0  0  0
   23.0012    0.7383   15.2770 C   0  0  0  0  0  0  0  0  0  0  0  0
   24.1619   -0.1078   15.3180 O   0  0  0  0  0  0  0  0  0  0  0  0
   21.1413    7.9031   11.8452 O   0  0  0  0  0  0  0  0  0  0  0  0
   18.5253    8.6267   10.9122 O   0  0  0  0  0  0  0  0  0  0  0  0
   25.6159    3.0218   20.0090 N   0  0  0  0  0  0  0  0  0  0  0  0
   25.9563    4.4832   16.2442 C   0  0  0  0  0  0  0  0  0  0  0  0
   26.1773    5.1896   15.2667 O   0  0  0  0  0  0  0  0  0  0  0  0
   26.9972    4.2038   17.3528 C   0  0  1  0  0  0  0  0  0  0  0  0
   26.5644    4.8835   18.6676 C   0  0  0  0  0  0  0  0  0  0  0  0
   25.3242    4.2921   19.3478 C   0  0  0  0  0  0  0  0  0  0  0  0
   27.1288    2.7752   17.5290 O   0  0  0  0  0  0  0  0  0  0  0  0
  1  2  1  1  0  0  0
  1  3  1  0  0  0  0
  1  8  1  0  0  0  0
  3  4  1  0  0  0  0
  3 32  1  1  0  0  0
  4  5  1  0  0  0  0
  4 33  1  6  0  0  0
  5  6  1  1  0  0  0
  5  7  1  0  0  0  0
  7  8  1  0  0  0  0
  7  9  1  6  0  0  0
  9 10  1  0  0  0  0
 11 12  1  1  0  0  0
 11 13  1  0  0  0  0
 11 19  1  0  0  0  0
 12 35  1  0  0  0  0
 13 14  1  0  0  0  0
 14 15  1  6  0  0  0
 14 16  1  0  0  0  0
 16  2  1  6  0  0  0
 16 17  1  0  0  0  0
 17 18  1  1  0  0  0
 17 19  1  0  0  0  0
 19 20  1  1  0  0  0
 21 20  1  6  0  0  0
 21 22  1  0  0  0  0
 21 29  1  0  0  0  0
 22 23  1  1  0  0  0
 22 24  1  0  0  0  0
 24 25  1  1  0  0  0
 24 26  1  0  0  0  0
 26 27  1  6  0  0  0
 26 28  1  0  0  0  0
 28 29  1  0  0  0  0
 28 30  1  6  0  0  0
 30 31  1  0  0  0  0
 34 39  1  0  0  0  0
 35 36  2  0  0  0  0
 37 35  1  6  0  0  0
 37 38  1  0  0  0  0
 37 40  1  0  0  0  0
 38 39  1  0  0  0  0
M  END
>  <CHROM.1>
-104.33018923,-39.84238568,15.50248612,-38.23166569,-76.65883755,152.60404127
-39.97604479,-69.20603388,68.78839041,74.98019571,22.14618736,4.14454909
15.08687181,-2.28283417,0.37599059,2.32291898

>  <Name>
2g5q_lig

>  <RI>
0

>  <Rbt.Current_Directory>
/home/itssahil/PROJECTS/Mol_Feturizer/New_Systems/rnas/2g5q

>  <Rbt.Executable>
rbdock ($Id: //depot/dev/client3/rdock/2013.1/src/exe/rbdock.cxx#4 $)

>  <Rbt.Library>
libRbt.so (2013.1, Build901 2013/11/27)

>  <Rbt.Parameter_File>
/export/apps/rDock/src/rDock_2013.1_src/data/scripts/dock_solv.prm

>  <Rbt.Receptor>
prm/blind_docking_80.prm

>  <SCORE>
36.5297

>  <SCORE.INTER>
11.1795

>  <SCORE.INTER.CONST>
1

>  <SCORE.INTER.POLAR>
-0.320989

>  <SCORE.INTER.ROT>
10

>  <SCORE.INTER.SOLV>
17.4648

>  <SCORE.INTER.VDW>
-7.56531

>  <SCORE.INTER.norm>
0.279488

>  <SCORE.INTRA>
16.8568

>  <SCORE.INTRA.DIHEDRAL>
-4.37362

>  <SCORE.INTRA.DIHEDRAL.0>
22.5778

>  <SCORE.INTRA.POLAR>
0

>  <SCORE.INTRA.POLAR.0>
0

>  <SCORE.INTRA.REPUL>
0

>  <SCORE.INTRA.REPUL.0>
0

>  <SCORE.INTRA.SOLV>
12.8839

>  <SCORE.INTRA.SOLV.lig_0>
-102.332

>  <SCORE.INTRA.VDW>
12.6017

>  <SCORE.INTRA.VDW.0>
-5.08747

>  <SCORE.INTRA.norm>
0.42142

>  <SCORE.RESTR>
8.49337

>  <SCORE.RESTR.CAVITY>
8.49337

>  <SCORE.RESTR.norm>
0.212334

>  <SCORE.SYSTEM>
0

>  <SCORE.SYSTEM.CONST>
0

>  <SCORE.SYSTEM.DIHEDRAL>
0

>  <SCORE.SYSTEM.SOLV>
0

>  <SCORE.SYSTEM.norm>
0

>  <SCORE.heavy>
40

>  <SCORE.norm>
0.913242

>  <RMSD>
26.782

$$$$
2g5q_lig
 OpenBabel11021811433D
libRbt.so/2013.1/901 2013/11/27
 40 42  0  0  0  0  0  0  0  0999 V2000
   19.5659   12.5566    3.4346 C   0  0  2  0  0  0  0  0  0  0  0  0
   20.6652   11.6854    3.5824 O   0  0  0  0  0  0  0  0  0  0  0  0
   19.9835   13.7400    2.5127 C   0  0  1  0  0  0  0  0  0  0  0  0
   21.0652   14.6441    3.1805 C   0  0  2  0  0  0  0  0  0  0  0  0
   20.4715   15.1962    4.5025 C   0  0  2  0  0  0  0  0  0  0  0  0
   21.4322   16.0550    5.1381 O   0  0  0  0  0  0  0  0  0  0  0  0
   20.1013   13.9692    5.4306 C   0  0  2  0  0  0  0  0  0  0  0  0
   19.1105   13.0912    4.7450 O   0  0  0  0  0  0  0  0  0  0  0  0
   19.4920   14.3983    6.7611 C   0  0  0  0  0  0  0  0  0  0  0  0
   20.4739   15.1376    7.6162 N   0  0  0  0  0  0  0  0  0  0  0  0
   21.3515    8.1154    1.1614 C   0  0  2  0  0  0  0  0  0  0  0  0
   21.7848    7.2482    0.0724 N   0  0  0  0  0  0  0  0  0  0  0  0
   20.3571    9.2246    0.6168 C   0  0  0  0  0  0  0  0  0  0  0  0
   19.8795   10.1621    1.7948 C   0  0  2  0  0  0  0  0  0  0  0  0
   18.9391   11.1905    1.2731 N   0  0  0  0  0  0  0  0  0  0  0  0
   21.1374   10.8281    2.4819 C   0  0  2  0  0  0  0  0  0  0  0  0
   22.1047    9.6942    3.0066 C   0  0  2  0  0  0  0  0  0  0  0  0
   23.2459   10.2995    3.6226 O   0  0  0  0  0  0  0  0  0  0  0  0
   22.5812    8.7805    1.8137 C   0  0  1  0  0  0  0  0  0  0  0  0
   23.4621    7.7296    2.3016 O   0  0  0  0  0  0  0  0  0  0  0  0
   23.0618    6.3981    2.5136 C   0  0  2  0  0  0  0  0  0  0  0  0
   24.0847    5.7533    3.5092 C   0  0  2  0  0  0  0  0  0  0  0  0
   24.0770    6.4613    4.7071 O   0  0  0  0  0  0  0  0  0  0  0  0
   25.5326    5.7105    2.8893 C   0  0  1  0  0  0  0  0  0  0  0  0
   26.5191    5.0901    3.8339 N   0  0  0  0  0  0  0  0  0  0  0  0
   25.4686    4.9001    1.5341 C   0  0  2  0  0  0  0  0  0  0  0  0
   26.7594    4.8207    0.9260 O   0  0  0  0  0  0  0  0  0  0  0  0
   24.4338    5.5946    0.5856 C   0  0  2  0  0  0  0  0  0  0  0  0
   23.0785    5.6720    1.2312 O   0  0  0  0  0  0  0  0  0  0  0  0
   24.2935    4.8613   -0.7168 C   0  0  0  0  0  0  0  0  0  0  0  0
   24.7935    3.5179   -0.6156 O   0  0  0  0  0  0  0  0  0  0  0  0
   20.4691   13.1862    1.2416 O   0  0  0  0  0  0  0  0  0  0  0  0
   21.3866   15.6786    2.3296 O   0  0  0  0  0  0  0  0  0  0  0  0
   20.7997    2.0501   -0.2445 N   0  0  0  0  0  0  0  0  0  0  0  0
   21.0050    6.2730   -0.5335 C   0  0  0  0  0  0  0  0  0  0  0  0
   19.8490    6.0234   -0.2101 O   0  0  0  0  0  0  0  0  0  0  0  0
   21.7629    5.5225   -1.6528 C   0  0  1  0  0  0  0  0  0  0  0  0
   21.3970    4.0247   -1.6263 C   0  0  0  0  0  0  0  0  0  0  0  0
   21.4872    3.3398   -0.2576 C   0  0  0  0  0  0  0  0  0  0  0  0
   21.4285    6.1132   -2.9289 O   0  0  0  0  0  0  0  0  0  0  0  0
  1  2  1  1  0  0  0
  1  3  1  0  0  0  0
  1  8  1  0  0  0  0
  3  4  1  0  0  0  0
  3 32  1  6  0  0  0
  4  5  1  0  0  0  0
  4 33  1  6  0  0  0
  5  6  1  1  0  0  0
  5  7  1  0  0  0  0
  7  8  1  0  0  0  0
  7  9  1  1  0  0  0
  9 10  1  0  0  0  0
 11 12  1  6  0  0  0
 11 13  1  0  0  0  0
 11 19  1  0  0  0  0
 12 35  1  0  0  0  0
 13 14  1  0  0  0  0
 14 15  1  6  0  0  0
 14 16  1  0  0  0  0
 16  2  1  1  0  0  0
 16 17  1  0  0  0  0
 17 18  1  6  0  0  0
 17 19  1  0  0  0  0
 19 20  1  1  0  0  0
 21 20  1  6  0  0  0
 21 22  1  0  0  0  0
 21 29  1  0  0  0  0
 22 23  1  1  0  0  0
 22 24  1  0  0  0  0
 24 25  1  1  0  0  0
 24 26  1  0  0  0  0
 26 27  1  6  0  0  0
 26 28  1  0  0  0  0
 28 29  1  0  0  0  0
 28 30  1  6  0  0  0
 30 31  1  0  0  0  0
 34 39  1  0  0  0  0
 35 36  2  0  0  0  0
 37 35  1  1  0  0  0
 37 38  1  0  0  0  0
 37 40  1  0  0  0  0
 38 39  1  0  0  0  0
M  END
>  <CHROM.1>
-71.29098547,-66.08473467,-74.06595147,-44.56691967,-18.04717241,-159.08011981
18.30255241,141.28122857,-49.45477133,164.87043220,21.98824146,8.87814251
2.03583978,1.93980144,-0.68870177,0.64787932

>  <Name>
2g5q_lig

>  <RI>
224

>  <Rbt.Current_Directory>
/home/itssahil/PROJECTS/Mol_Feturizer/New_Systems/rnas/2g5q

>  <Rbt.Executable>
rbdock ($Id: //depot/dev/client3/rdock/2013.1/src/exe/rbdock.cxx#4 $)

>  <Rbt.Library>
libRbt.so (2013.1, Build901 2013/11/27)

>  <Rbt.Parameter_File>
/export/apps/rDock/src/rDock_2013.1_src/data/scripts/dock_solv.prm

>  <Rbt.Receptor>
prm/blind_docking_60.prm

>  <SCORE>
24.4485

>  <SCORE.INTER>
-0.228383

>  <SCORE.INTER.CONST>
1

>  <SCORE.INTER.POLAR>
-1.94182

>  <SCORE.INTER.ROT>
10

>  <SCORE.INTER.SOLV>
26.0536

>  <SCORE.INTER.VDW>
-12.6307

>  <SCORE.INTER.norm>
-0.00570957

>  <SCORE.INTRA>
8.39195

>  <SCORE.INTRA.DIHEDRAL>
-5.59834

>  <SCORE.INTRA.DIHEDRAL.0>
22.5778

>  <SCORE.INTRA.POLAR>
0

>  <SCORE.INTRA.POLAR.0>
0

>  <SCORE.INTRA.REPUL>
0

>  <SCORE.INTRA.REPUL.0>
0

>  <SCORE.INTRA.SOLV>
5.74018

>  <SCORE.INTRA.SOLV.lig_0>
-102.332

>  <SCORE.INTRA.VDW>
8.32103

>  <SCORE.INTRA.VDW.0>
-5.08747

>  <SCORE.INTRA.norm>
0.209799

>  <SCORE.RESTR>
16.285

>  <SCORE.RESTR.CAVITY>
16.285

>  <SCORE.RESTR.norm>
0.407124

>  <SCORE.SYSTEM>
0

>  <SCORE.SYSTEM.CONST>
0

>  <SCORE.SYSTEM.DIHEDRAL>
0

>  <SCORE.SYSTEM.SOLV>
0

>  <SCORE.SYSTEM.norm>
0

>  <SCORE.heavy>
40

>  <SCORE.norm>
0.611213

>  <RMSD>
32.364

$$$$
2g5q_lig
 OpenBabel11021811433D
libRbt.so/2013.1/901 2013/11/27
 40 42  0  0  0  0  0  0  0  0999 V2000
   19.6609   12.9787    3.0333 C   0  0  2  0  0  0  0  0  0  0  0  0
   20.0794   11.6695    3.3502 O   0  0  0  0  0  0  0  0  0  0  0  0
   19.9372   13.9036    4.2551 C   0  0  1  0  0  0  0  0  0  0  0  0
   19.0445   13.5325    5.4794 C   0  0  2  0  0  0  0  0  0  0  0  0
   17.5623   13.6701    5.0446 C   0  0  2  0  0  0  0  0  0  0  0  0
   16.7056   13.3580    6.1551 O   0  0  0  0  0  0  0  0  0  0  0  0
   17.3071   12.6848    3.8330 C   0  0  2  0  0  0  0  0  0  0  0  0
   18.2131   13.0251    2.6988 O   0  0  0  0  0  0  0  0  0  0  0  0
   15.8752   12.7481    3.3124 C   0  0  0  0  0  0  0  0  0  0  0  0
   15.5451   14.0907    2.7379 N   0  0  0  0  0  0  0  0  0  0  0  0
   21.6019    8.0383    1.4597 C   0  0  2  0  0  0  0  0  0  0  0  0
   22.1961    7.1371    0.4797 N   0  0  0  0  0  0  0  0  0  0  0  0
   20.3017    8.7208    0.8601 C   0  0  0  0  0  0  0  0  0  0  0  0
   19.6507    9.6927    1.9212 C   0  0  2  0  0  0  0  0  0  0  0  0
   18.4267   10.3174    1.3508 N   0  0  0  0  0  0  0  0  0  0  0  0
   20.7072   10.7860    2.3529 C   0  0  2  0  0  0  0  0  0  0  0  0
   21.9872   10.0693    2.9401 C   0  0  2  0  0  0  0  0  0  0  0  0
   22.9449   11.0609    3.3243 O   0  0  0  0  0  0  0  0  0  0  0  0
   22.6295    9.1169    1.8606 C   0  0  1  0  0  0  0  0  0  0  0  0
   23.8010    8.4488    2.4080 O   0  0  0  0  0  0  0  0  0  0  0  0
   23.7513    7.4529    3.3999 C   0  0  2  0  0  0  0  0  0  0  0  0
   25.1638    7.3906    4.0738 C   0  0  2  0  0  0  0  0  0  0  0  0
   25.4645    8.6265    4.6383 O   0  0  0  0  0  0  0  0  0  0  0  0
   26.2701    6.9602    3.0378 C   0  0  1  0  0  0  0  0  0  0  0  0
   27.6265    6.8932    3.6751 N   0  0  0  0  0  0  0  0  0  0  0  0
   25.8651    5.5574    2.4332 C   0  0  2  0  0  0  0  0  0  0  0  0
   26.8388    5.1094    1.4880 O   0  0  0  0  0  0  0  0  0  0  0  0
   24.4499    5.6873    1.7752 C   0  0  2  0  0  0  0  0  0  0  0  0
   23.4313    6.1565    2.7763 O   0  0  0  0  0  0  0  0  0  0  0  0
   23.9805    4.3811    1.2031 C   0  0  0  0  0  0  0  0  0  0  0  0
   24.6504    4.0819   -0.0324 O   0  0  0  0  0  0  0  0  0  0  0  0
   21.3636   13.8086    4.5931 O   0  0  0  0  0  0  0  0  0  0  0  0
   19.3201   14.3879    6.5234 O   0  0  0  0  0  0  0  0  0  0  0  0
   20.5809    3.8649   -1.2041 N   0  0  0  0  0  0  0  0  0  0  0  0
   23.1951    7.4793   -0.4208 C   0  0  0  0  0  0  0  0  0  0  0  0
   23.6917    8.5977   -0.4986 O   0  0  0  0  0  0  0  0  0  0  0  0
   23.6015    6.2961   -1.3292 C   0  0  1  0  0  0  0  0  0  0  0  0
   22.3479    5.5143   -1.7713 C   0  0  0  0  0  0  0  0  0  0  0  0
   21.6191    4.7415   -0.6659 C   0  0  0  0  0  0  0  0  0  0  0  0
   24.3233    6.8043   -2.4738 O   0  0  0  0  0  0  0  0  0  0  0  0
  1  2  1  1  0  0  0
  1  3  1  0  0  0  0
  1  8  1  0  0  0  0
  3  4  1  0  0  0  0
  3 32  1  1  0  0  0
  4  5  1  0  0  0  0
  4 33  1  1  0  0  0
  5  6  1  1  0  0  0
  5  7  1  0  0  0  0
  7  8  1  0  0  0  0
  7  9  1  6  0  0  0
  9 10  1  0  0  0  0
 11 12  1  6  0  0  0
 11 13  1  0  0  0  0
 11 19  1  0  0  0  0
 12 35  1  0  0  0  0
 13 14  1  0  0  0  0
 14 15  1  6  0  0  0
 14 16  1  0  0  0  0
 16  2  1  1  0  0  0
 16 17  1  0  0  0  0
 17 18  1  6  0  0  0
 17 19  1  0  0  0  0
 19 20  1  1  0  0  0
 21 20  1  6  0  0  0
 21 22  1  0  0  0  0
 21 29  1  0  0  0  0
 22 23  1  6  0  0  0
 22 24  1  0  0  0  0
 24 25  1  1  0  0  0
 24 26  1  0  0  0  0
 26 27  1  6  0  0  0
 26 28  1  0  0  0  0
 28 29  1  0  0  0  0
 28 30  1  1  0  0  0
 30 31  1  0  0  0  0
 34 39  1  0  0  0  0
 35 36  2  0  0  0  0
 37 35  1  1  0  0  0
 37 38  1  0  0  0  0
 37 40  1  0  0  0  0
 38 39  1  0  0  0  0
M  END
>  <CHROM.1>
-143.02385051,64.03248135,92.91932060,-105.51102395,-49.42084966,-159.14945110
-75.83635365,41.03631534,-68.35659395,-170.81739051,21.81320300,9.13576146
2.26436541,-2.30562802,0.44198802,-2.34098375

>  <Name>
2g5q_lig

>  <RI>
224

>  <Rbt.Current_Directory>
/home/itssahil/PROJECTS/Mol_Feturizer/New_Systems/rnas/2g5q

>  <Rbt.Executable>
rbdock ($Id: //depot/dev/client3/rdock/2013.1/src/exe/rbdock.cxx#4 $)

>  <Rbt.Library>
libRbt.so (2013.1, Build901 2013/11/27)

>  <Rbt.Parameter_File>
/export/apps/rDock/src/rDock_2013.1_src/data/scripts/dock_solv.prm

>  <Rbt.Receptor>
prm/blind_docking_60.prm

>  <SCORE>
20.0891

>  <SCORE.INTER>
-3.21772

>  <SCORE.INTER.CONST>
1

>  <SCORE.INTER.POLAR>
-0.20096

>  <SCORE.INTER.ROT>
10

>  <SCORE.INTER.SOLV>
21.6473

>  <SCORE.INTER.VDW>
-18.9577

>  <SCORE.INTER.norm>
-0.0804429

>  <SCORE.INTRA>
2.30955

>  <SCORE.INTRA.DIHEDRAL>
-5.68569

>  <SCORE.INTRA.DIHEDRAL.0>
22.5778

>  <SCORE.INTRA.POLAR>
0

>  <SCORE.INTRA.POLAR.0>
0

>  <SCORE.INTRA.REPUL>
0

>  <SCORE.INTRA.REPUL.0>
0

>  <SCORE.INTRA.SOLV>
5.73325

>  <SCORE.INTRA.SOLV.lig_0>
-102.332

>  <SCORE.INTRA.VDW>
2.28577

>  <SCORE.INTRA.VDW.0>
-5.08747

>  <SCORE.INTRA.norm>
0.0577388

>  <SCORE.RESTR>
20.9972

>  <SCORE.RESTR.CAVITY>
20.9972

>  <SCORE.RESTR.norm>
0.52493

>  <SCORE.SYSTEM>
0

>  <SCORE.SYSTEM.CONST>
0

>  <SCORE.SYSTEM.DIHEDRAL>
0

>  <SCORE.SYSTEM.SOLV>
0

>  <SCORE.SYSTEM.norm>
0

>  <SCORE.heavy>
40

>  <SCORE.norm>
0.502226

>  <RMSD>
32.455

$$$$
2g5q_lig
 OpenBabel11021811433D
libRbt.so/2013.1/901 2013/11/27
 40 42  0  0  0  0  0  0  0  0999 V2000
   19.7194   12.4989    3.3856 C   0  0  2  0  0  0  0  0  0  0  0  0
   20.8593   11.6699    3.3322 O   0  0  0  0  0  0  0  0  0  0  0  0
   20.0019   13.7942    2.5688 C   0  0  1  0  0  0  0  0  0  0  0  0
   21.1090   14.6705    3.2322 C   0  0  2  0  0  0  0  0  0  0  0  0
   20.6258   15.0463    4.6571 C   0  0  2  0  0  0  0  0  0  0  0  0
   21.6111   15.8753    5.2946 O   0  0  0  0  0  0  0  0  0  0  0  0
   20.3927   13.7092    5.4706 C   0  0  2  0  0  0  0  0  0  0  0  0
   19.3733   12.8652    4.7842 O   0  0  0  0  0  0  0  0  0  0  0  0
   19.8994   13.9614    6.8915 C   0  0  0  0  0  0  0  0  0  0  0  0
   18.7851   14.9606    6.9302 N   0  0  0  0  0  0  0  0  0  0  0  0
   20.9084    7.6347    1.6614 C   0  0  2  0  0  0  0  0  0  0  0  0
   21.0046    6.5368    0.7069 N   0  0  0  0  0  0  0  0  0  0  0  0
   19.7263    8.6117    1.2566 C   0  0  0  0  0  0  0  0  0  0  0  0
   19.6140    9.7988    2.2922 C   0  0  2  0  0  0  0  0  0  0  0  0
   18.4951   10.7012    1.9077 N   0  0  0  0  0  0  0  0  0  0  0  0
   20.9876   10.5784    2.3518 C   0  0  2  0  0  0  0  0  0  0  0  0
   22.1391    9.5734    2.7531 C   0  0  2  0  0  0  0  0  0  0  0  0
   23.3826   10.2800    2.8002 O   0  0  0  0  0  0  0  0  0  0  0  0
   22.2440    8.4060    1.6989 C   0  0  1  0  0  0  0  0  0  0  0  0
   23.2970    7.4753    2.0775 O   0  0  0  0  0  0  0  0  0  0  0  0
   23.0678    6.1589    2.5166 C   0  0  2  0  0  0  0  0  0  0  0  0
   24.1457    5.8328    3.6051 C   0  0  2  0  0  0  0  0  0  0  0  0
   24.0234    6.7280    4.6634 O   0  0  0  0  0  0  0  0  0  0  0  0
   25.5989    5.8740    2.9973 C   0  0  1  0  0  0  0  0  0  0  0  0
   26.6386    5.5582    4.0315 N   0  0  0  0  0  0  0  0  0  0  0  0
   25.6663    4.8426    1.8019 C   0  0  2  0  0  0  0  0  0  0  0  0
   26.9681    4.8295    1.2127 O   0  0  0  0  0  0  0  0  0  0  0  0
   24.5693    5.2237    0.7513 C   0  0  2  0  0  0  0  0  0  0  0  0
   23.2029    5.2328    1.3781 O   0  0  0  0  0  0  0  0  0  0  0  0
   24.5501    4.2666   -0.4051 C   0  0  0  0  0  0  0  0  0  0  0  0
   24.8907    4.9273   -1.6349 O   0  0  0  0  0  0  0  0  0  0  0  0
   20.3825   13.4059    1.2041 O   0  0  0  0  0  0  0  0  0  0  0  0
   21.3081   15.8056    2.4777 O   0  0  0  0  0  0  0  0  0  0  0  0
   20.8395    5.2265   -4.3555 N   0  0  0  0  0  0  0  0  0  0  0  0
   21.5802    6.6192   -0.5533 C   0  0  0  0  0  0  0  0  0  0  0  0
   22.0731    7.6429   -1.0141 O   0  0  0  0  0  0  0  0  0  0  0  0
   21.5157    5.2784   -1.3204 C   0  0  1  0  0  0  0  0  0  0  0  0
   22.4978    5.3018   -2.5091 C   0  0  0  0  0  0  0  0  0  0  0  0
   21.9751    5.9550   -3.7939 C   0  0  0  0  0  0  0  0  0  0  0  0
   21.8296    4.1982   -0.4126 O   0  0  0  0  0  0  0  0  0  0  0  0
  1  2  1  1  0  0  0
  1  3  1  0  0  0  0
  1  8  1  0  0  0  0
  3  4  1  0  0  0  0
  3 32  1  6  0  0  0
  4  5  1  0  0  0  0
  4 33  1  6  0  0  0
  5  6  1  1  0  0  0
  5  7  1  0  0  0  0
  7  8  1  0  0  0  0
  7  9  1  1  0  0  0
  9 10  1  0  0  0  0
 11 12  1  6  0  0  0
 11 13  1  0  0  0  0
 11 19  1  0  0  0  0
 12 35  1  0  0  0  0
 13 14  1  0  0  0  0
 14 15  1  6  0  0  0
 14 16  1  0  0  0  0
 16  2  1  1  0  0  0
 16 17  1  0  0  0  0
 17 18  1  6  0  0  0
 17 19  1  0  0  0  0
 19 20  1  1  0  0  0
 21 20  1  6  0  0  0
 21 22  1  0  0  0  0
 21 29  1  0  0  0  0
 22 23  1  1  0  0  0
 22 24  1  0  0  0  0
 24 25  1  1  0  0  0
 24 26  1  0  0  0  0
 26 27  1  6  0  0  0
 26 28  1  0  0  0  0
 28 29  1  0  0  0  0
 28 30  1  6  0  0  0
 30 31  1  0  0  0  0
 34 39  1  0  0  0  0
 35 36  2  0  0  0  0
 37 35  1  1  0  0  0
 37 38  1  0  0  0  0
 37 40  1  0  0  0  0
 38 39  1  0  0  0  0
M  END
>  <CHROM.1>
-95.74765265,46.70204288,78.04085024,-44.00608408,-8.43230778,-144.61625973
-116.44875853,-163.87319889,-83.98402747,-63.74476287,22.06308070,8.95313594
1.91312613,2.04411738,-0.78300837,0.81807585

>  <Name>
2g5q_lig

>  <RI>
224

>  <Rbt.Current_Directory>
/home/itssahil/PROJECTS/Mol_Feturizer/New_Systems/rnas/2g5q

>  <Rbt.Executable>
rbdock ($Id: //depot/dev/client3/rdock/2013.1/src/exe/rbdock.cxx#4 $)

>  <Rbt.Library>
libRbt.so (2013.1, Build901 2013/11/27)

>  <Rbt.Parameter_File>
/export/apps/rDock/src/rDock_2013.1_src/data/scripts/dock_solv.prm

>  <Rbt.Receptor>
prm/blind_docking_60.prm

>  <SCORE>
19.3671

>  <SCORE.INTER>
-6.76134

>  <SCORE.INTER.CONST>
1

>  <SCORE.INTER.POLAR>
-1.05088

>  <SCORE.INTER.ROT>
10

>  <SCORE.INTER.SOLV>
24.1422

>  <SCORE.INTER.VDW>
-19.3187

>  <SCORE.INTER.norm>
-0.169034

>  <SCORE.INTRA>
12.0094

>  <SCORE.INTRA.DIHEDRAL>
3.71259

>  <SCORE.INTRA.DIHEDRAL.0>
22.5778

>  <SCORE.INTRA.POLAR>
0

>  <SCORE.INTRA.POLAR.0>
0

>  <SCORE.INTRA.REPUL>
0

>  <SCORE.INTRA.REPUL.0>
0

>  <SCORE.INTRA.SOLV>
6.71818

>  <SCORE.INTRA.SOLV.lig_0>
-102.332

>  <SCORE.INTRA.VDW>
6.79398

>  <SCORE.INTRA.VDW.0>
-5.08747

>  <SCORE.INTRA.norm>
0.300234

>  <SCORE.RESTR>
14.1191

>  <SCORE.RESTR.CAVITY>
14.1191

>  <SCORE.RESTR.norm>
0.352978

>  <SCORE.SYSTEM>
0

>  <SCORE.SYSTEM.CONST>
0

>  <SCORE.SYSTEM.DIHEDRAL>
0

>  <SCORE.SYSTEM.SOLV>
0

>  <SCORE.SYSTEM.norm>
0

>  <SCORE.heavy>
40

>  <SCORE.norm>
0.484178

>  <RMSD>
32.521

$$$$
2g5q_lig
 OpenBabel11021811433D
libRbt.so/2013.1/901 2013/11/27
 40 42  0  0  0  0  0  0  0  0999 V2000
   19.6194   12.4161    2.5335 C   0  0  2  0  0  0  0  0  0  0  0  0
   20.3767   11.3041    2.9571 O   0  0  0  0  0  0  0  0  0  0  0  0
   20.5105   13.6905    2.6146 C   0  0  1  0  0  0  0  0  0  0  0  0
   20.8771   14.0513    4.0874 C   0  0  2  0  0  0  0  0  0  0  0  0
   19.5541   14.2888    4.8608 C   0  0  2  0  0  0  0  0  0  0  0  0
   19.8508   14.6472    6.2202 O   0  0  0  0  0  0  0  0  0  0  0  0
   18.6959   12.9609    4.7954 C   0  0  2  0  0  0  0  0  0  0  0  0
   18.4094   12.6078    3.3755 O   0  0  0  0  0  0  0  0  0  0  0  0
   17.3583   13.0866    5.5168 C   0  0  0  0  0  0  0  0  0  0  0  0
   16.5400   14.2239    4.9888 N   0  0  0  0  0  0  0  0  0  0  0  0
   21.1414    7.2605    1.4933 C   0  0  2  0  0  0  0  0  0  0  0  0
   21.4667    6.1534    0.6022 N   0  0  0  0  0  0  0  0  0  0  0  0
   19.8596    8.0314    0.9653 C   0  0  0  0  0  0  0  0  0  0  0  0
   19.4993    9.2274    1.9318 C   0  0  2  0  0  0  0  0  0  0  0  0
   18.2896    9.9348    1.4318 N   0  0  0  0  0  0  0  0  0  0  0  0
   20.7346   10.2071    2.0419 C   0  0  2  0  0  0  0  0  0  0  0  0
   21.9905    9.4038    2.5657 C   0  0  2  0  0  0  0  0  0  0  0  0
   23.1093   10.2914    2.6585 O   0  0  0  0  0  0  0  0  0  0  0  0
   22.3420    8.2255    1.5793 C   0  0  1  0  0  0  0  0  0  0  0  0
   23.4913    7.4799    2.0705 O   0  0  0  0  0  0  0  0  0  0  0  0
   23.5976    6.9593    3.3728 C   0  0  2  0  0  0  0  0  0  0  0  0
   24.7424    7.7431    4.0997 C   0  0  2  0  0  0  0  0  0  0  0  0
   24.4253    9.0974    4.1404 O   0  0  0  0  0  0  0  0  0  0  0  0
   26.1303    7.5104    3.3910 C   0  0  1  0  0  0  0  0  0  0  0  0
   27.2345    8.2537    4.0829 N   0  0  0  0  0  0  0  0  0  0  0  0
   26.4248    5.9579    3.3740 C   0  0  2  0  0  0  0  0  0  0  0  0
   27.6796    5.6838    2.7475 O   0  0  0  0  0  0  0  0  0  0  0  0
   25.2488    5.2348    2.6345 C   0  0  2  0  0  0  0  0  0  0  0  0
   23.9332    5.5260    3.3009 O   0  0  0  0  0  0  0  0  0  0  0  0
   25.4420    3.7464    2.6046 C   0  0  0  0  0  0  0  0  0  0  0  0
   26.7605    3.4004    2.1502 O   0  0  0  0  0  0  0  0  0  0  0  0
   21.7184   13.4616    1.8104 O   0  0  0  0  0  0  0  0  0  0  0  0
   21.6522   15.1900    4.1008 O   0  0  0  0  0  0  0  0  0  0  0  0
   23.8205    2.9720   -3.3150 N   0  0  0  0  0  0  0  0  0  0  0  0
   22.3198    6.2286   -0.4900 C   0  0  0  0  0  0  0  0  0  0  0  0
   22.8979    7.2527   -0.8368 O   0  0  0  0  0  0  0  0  0  0  0  0
   22.4472    4.8788   -1.2332 C   0  0  1  0  0  0  0  0  0  0  0  0
   22.7290    5.1239   -2.7294 C   0  0  0  0  0  0  0  0  0  0  0  0
   22.7165    3.8786   -3.6236 C   0  0  0  0  0  0  0  0  0  0  0  0
   23.5070    4.1039   -0.6285 O   0  0  0  0  0  0  0  0  0  0  0  0
  1  2  1  1  0  0  0
  1  3  1  0  0  0  0
  1  8  1  0  0  0  0
  3  4  1  0  0  0  0
  3 32  1  6  0  0  0
  4  5  1  0  0  0  0
  4 33  1  6  0  0  0
  5  6  1  1  0  0  0
  5  7  1  0  0  0  0
  7  8  1  0  0  0  0
  7  9  1  1  0  0  0
  9 10  1  0  0  0  0
 11 12  1  6  0  0  0
 11 13  1  0  0  0  0
 11 19  1  0  0  0  0
 12 35  1  0  0  0  0
 13 14  1  0  0  0  0
 14 15  1  6  0  0  0
 14 16  1  0  0  0  0
 16  2  1  1  0  0  0
 16 17  1  0  0  0  0
 17 18  1  6  0  0  0
 17 19  1  0  0  0  0
 19 20  1  1  0  0  0
 21 20  1  6  0  0  0
 21 22  1  0  0  0  0
 21 29  1  0  0  0  0
 22 23  1  6  0  0  0
 22 24  1  0  0  0  0
 24 25  1  1  0  0  0
 24 26  1  0  0  0  0
 26 27  1  6  0  0  0
 26 28  1  0  0  0  0
 28 29  1  0  0  0  0
 28 30  1  1  0  0  0
 30 31  1  0  0  0  0
 34 39  1  0  0  0  0
 35 36  2  0  0  0  0
 37 35  1  1  0  0  0
 37 38  1  0  0  0  0
 37 40  1  0  0  0  0
 38 39  1  0  0  0  0
M  END
>  <CHROM.1>
-114.42689061,56.50522890,90.65715967,-81.48146015,-67.79577699,-113.05559767
-49.41207234,150.21718076,-173.08401320,-66.82601722,22.26281683,8.80495066
2.21877304,2.17130433,-0.53813333,0.73695023

>  <Name>
2g5q_lig

>  <RI>
224

>  <Rbt.Current_Directory>
/home/itssahil/PROJECTS/Mol_Feturizer/New_Systems/rnas/2g5q

>  <Rbt.Executable>
rbdock ($Id: //depot/dev/client3/rdock/2013.1/src/exe/rbdock.cxx#4 $)

>  <Rbt.Library>
libRbt.so (2013.1, Build901 2013/11/27)

>  <Rbt.Parameter_File>
/export/apps/rDock/src/rDock_2013.1_src/data/scripts/dock_solv.prm

>  <Rbt.Receptor>
prm/blind_docking_60.prm

>  <SCORE>
20.1365

>  <SCORE.INTER>
1.30712

>  <SCORE.INTER.CONST>
1

>  <SCORE.INTER.POLAR>
-0.123583

>  <SCORE.INTER.ROT>
10

>  <SCORE.INTER.SOLV>
25.2362

>  <SCORE.INTER.VDW>
-17.3954

>  <SCORE.INTER.norm>
0.032678

>  <SCORE.INTRA>
4.43674

>  <SCORE.INTRA.DIHEDRAL>
-3.20946

>  <SCORE.INTRA.DIHEDRAL.0>
22.5778

>  <SCORE.INTRA.POLAR>
0

>  <SCORE.INTRA.POLAR.0>
0

>  <SCORE.INTRA.REPUL>
0

>  <SCORE.INTRA.REPUL.0>
0

>  <SCORE.INTRA.SOLV>
4.54565

>  <SCORE.INTRA.SOLV.lig_0>
-102.332

>  <SCORE.INTRA.VDW>
3.76864

>  <SCORE.INTRA.VDW.0>
-5.08747

>  <SCORE.INTRA.norm>
0.110918

>  <SCORE.RESTR>
14.3927

>  <SCORE.RESTR.CAVITY>
14.3927

>  <SCORE.RESTR.norm>
0.359817

>  <SCORE.SYSTEM>
0

>  <SCORE.SYSTEM.CONST>
0

>  <SCORE.SYSTEM.DIHEDRAL>
0

>  <SCORE.SYSTEM.SOLV>
0

>  <SCORE.SYSTEM.norm>
0

>  <SCORE.heavy>
40

>  <SCORE.norm>
0.503413

>  <RMSD>
32.575

$$$$
2g5q_lig
 OpenBabel11021811433D
libRbt.so/2013.1/901 2013/11/27
 40 42  0  0  0  0  0  0  0  0999 V2000
   19.7764   12.5596    2.3891 C   0  0  2  0  0  0  0  0  0  0  0  0
   20.6881   11.5483    2.7574 O   0  0  0  0  0  0  0  0  0  0  0  0
   20.5022   13.9360    2.4493 C   0  0  1  0  0  0  0  0  0  0  0  0
   20.8925   14.3246    3.9088 C   0  0  2  0  0  0  0  0  0  0  0  0
   19.5899   14.3838    4.7482 C   0  0  2  0  0  0  0  0  0  0  0  0
   19.9056   14.7625    6.0977 O   0  0  0  0  0  0  0  0  0  0  0  0
   18.9042   12.9585    4.7013 C   0  0  2  0  0  0  0  0  0  0  0  0
   18.5949   12.5870    3.2909 O   0  0  0  0  0  0  0  0  0  0  0  0
   17.5986   12.9055    5.4875 C   0  0  0  0  0  0  0  0  0  0  0  0
   16.6073   13.9156    4.9989 N   0  0  0  0  0  0  0  0  0  0  0  0
   21.1522    7.3809    1.5347 C   0  0  2  0  0  0  0  0  0  0  0  0
   21.3745    6.2017    0.7066 N   0  0  0  0  0  0  0  0  0  0  0  0
   19.8970    8.1939    1.0061 C   0  0  0  0  0  0  0  0  0  0  0  0
   19.6482    9.4685    1.9049 C   0  0  2  0  0  0  0  0  0  0  0  0
   18.4623   10.2157    1.4056 N   0  0  0  0  0  0  0  0  0  0  0  0
   20.9425   10.3756    1.9034 C   0  0  2  0  0  0  0  0  0  0  0  0
   22.1698    9.5317    2.4309 C   0  0  2  0  0  0  0  0  0  0  0  0
   23.3417   10.3531    2.4227 O   0  0  0  0  0  0  0  0  0  0  0  0
   22.4100    8.2740    1.5115 C   0  0  1  0  0  0  0  0  0  0  0  0
   23.5331    7.4920    2.0067 O   0  0  0  0  0  0  0  0  0  0  0  0
   23.6137    6.9602    3.3063 C   0  0  2  0  0  0  0  0  0  0  0  0
   24.7303    7.7510    4.0686 C   0  0  2  0  0  0  0  0  0  0  0  0
   24.3953    9.1009    4.1140 O   0  0  0  0  0  0  0  0  0  0  0  0
   26.1381    7.5423    3.3925 C   0  0  1  0  0  0  0  0  0  0  0  0
   27.2154    8.2924    4.1185 N   0  0  0  0  0  0  0  0  0  0  0  0
   26.4524    5.9937    3.3684 C   0  0  2  0  0  0  0  0  0  0  0  0
   27.7256    5.7412    2.7706 O   0  0  0  0  0  0  0  0  0  0  0  0
   25.3042    5.2634    2.5932 C   0  0  2  0  0  0  0  0  0  0  0  0
   23.9689    5.5319    3.2295 O   0  0  0  0  0  0  0  0  0  0  0  0
   25.5166    3.7778    2.5544 C   0  0  0  0  0  0  0  0  0  0  0  0
   26.8764    3.4538    2.2212 O   0  0  0  0  0  0  0  0  0  0  0  0
   21.6882   13.8709    1.5847 O   0  0  0  0  0  0  0  0  0  0  0  0
   21.5172   15.5523    3.9045 O   0  0  0  0  0  0  0  0  0  0  0  0
   22.8001    3.8812   -3.9809 N   0  0  0  0  0  0  0  0  0  0  0  0
   22.2168    6.1439   -0.3950 C   0  0  0  0  0  0  0  0  0  0  0  0
   22.8723    7.0954   -0.8052 O   0  0  0  0  0  0  0  0  0  0  0  0
   22.2239    4.7480   -1.0598 C   0  0  1  0  0  0  0  0  0  0  0  0
   23.5975    4.4776   -1.7065 C   0  0  0  0  0  0  0  0  0  0  0  0
   23.6091    3.4489   -2.8432 C   0  0  0  0  0  0  0  0  0  0  0  0
   21.9168    3.7475   -0.0628 O   0  0  0  0  0  0  0  0  0  0  0  0
  1  2  1  1  0  0  0
  1  3  1  0  0  0  0
  1  8  1  0  0  0  0
  3  4  1  0  0  0  0
  3 32  1  6  0  0  0
  4  5  1  0  0  0  0
  4 33  1  6  0  0  0
  5  6  1  1  0  0  0
  5  7  1  0  0  0  0
  7  8  1  0  0  0  0
  7  9  1  1  0  0  0
  9 10  1  0  0  0  0
 11 12  1  6  0  0  0
 11 13  1  0  0  0  0
 11 19  1  0  0  0  0
 12 35  1  0  0  0  0
 13 14  1  0  0  0  0
 14 15  1  6  0  0  0
 14 16  1  0  0  0  0
 16  2  1  1  0  0  0
 16 17  1  0  0  0  0
 17 18  1  6  0  0  0
 17 19  1  0  0  0  0
 19 20  1  1  0  0  0
 21 20  1  6  0  0  0
 21 22  1  0  0  0  0
 21 29  1  0  0  0  0
 22 23  1  6  0  0  0
 22 24  1  0  0  0  0
 24 25  1  1  0  0  0
 24 26  1  0  0  0  0
 26 27  1  6  0  0  0
 26 28  1  0  0  0  0
 28 29  1  0  0  0  0
 28 30  1  1  0  0  0
 30 31  1  0  0  0  0
 34 39  1  0  0  0  0
 35 36  2  0  0  0  0
 37 35  1  1  0  0  0
 37 38  1  0  0  0  0
 37 40  1  0  0  0  0
 38 39  1  0  0  0  0
M  END
>  <CHROM.1>
-126.26313742,57.73145312,92.80470077,-69.25781194,-62.57973229,-110.47318350
-45.33160796,-149.72759771,-156.47199182,62.80777179,22.28913371,8.85592890
2.21322076,2.14687332,-0.52174203,0.67471630

>  <Name>
2g5q_lig

>  <RI>
224

>  <Rbt.Current_Directory>
/home/itssahil/PROJECTS/Mol_Feturizer/New_Systems/rnas/2g5q

>  <Rbt.Executable>
rbdock ($Id: //depot/dev/client3/rdock/2013.1/src/exe/rbdock.cxx#4 $)

>  <Rbt.Library>
libRbt.so (2013.1, Build901 2013/11/27)

>  <Rbt.Parameter_File>
/export/apps/rDock/src/rDock_2013.1_src/data/scripts/dock_solv.prm

>  <Rbt.Receptor>
prm/blind_docking_60.prm

>  <SCORE>
18.3147

>  <SCORE.INTER>
-0.430592

>  <SCORE.INTER.CONST>
1

>  <SCORE.INTER.POLAR>
-0.146985

>  <SCORE.INTER.ROT>
10

>  <SCORE.INTER.SOLV>
24.4613

>  <SCORE.INTER.VDW>
-18.2175

>  <SCORE.INTER.norm>
-0.0107648

>  <SCORE.INTRA>
4.5192

>  <SCORE.INTRA.DIHEDRAL>
-3.49386

>  <SCORE.INTRA.DIHEDRAL.0>
22.5778

>  <SCORE.INTRA.POLAR>
0

>  <SCORE.INTRA.POLAR.0>
0

>  <SCORE.INTRA.REPUL>
0

>  <SCORE.INTRA.REPUL.0>
0

>  <SCORE.INTRA.SOLV>
4.22344

>  <SCORE.INTRA.SOLV.lig_0>
-102.332

>  <SCORE.INTRA.VDW>
4.15441

>  <SCORE.INTRA.VDW.0>
-5.08747

>  <SCORE.INTRA.norm>
0.11298

>  <SCORE.RESTR>
14.2261

>  <SCORE.RESTR.CAVITY>
14.2261

>  <SCORE.RESTR.norm>
0.355653

>  <SCORE.SYSTEM>
0

>  <SCORE.SYSTEM.CONST>
0

>  <SCORE.SYSTEM.DIHEDRAL>
0

>  <SCORE.SYSTEM.SOLV>
0

>  <SCORE.SYSTEM.norm>
0

>  <SCORE.heavy>
40

>  <SCORE.norm>
0.457868

>  <RMSD>
32.620

$$$$
2g5q_lig
 OpenBabel11021811433D
libRbt.so/2013.1/901 2013/11/27
 40 42  0  0  0  0  0  0  0  0999 V2000
   20.9778   10.4529    2.8842 C   0  0  2  0  0  0  0  0  0  0  0  0
   19.9776    9.7823    2.1497 O   0  0  0  0  0  0  0  0  0  0  0  0
   20.3838   11.7774    3.4479 C   0  0  1  0  0  0  0  0  0  0  0  0
   20.0385   12.7899    2.3125 C   0  0  2  0  0  0  0  0  0  0  0  0
   21.3451   13.0930    1.5340 C   0  0  2  0  0  0  0  0  0  0  0  0
   21.0726   14.0426    0.4907 O   0  0  0  0  0  0  0  0  0  0  0  0
   21.8946   11.7337    0.9387 C   0  0  2  0  0  0  0  0  0  0  0  0
   22.1611   10.7648    2.0400 O   0  0  0  0  0  0  0  0  0  0  0  0
   23.1934   11.9129    0.1598 C   0  0  0  0  0  0  0  0  0  0  0  0
   23.0285   12.8444   -1.0007 N   0  0  0  0  0  0  0  0  0  0  0  0
   20.5417    5.9218    0.1862 C   0  0  2  0  0  0  0  0  0  0  0  0
   20.8325    4.9209   -0.8333 N   0  0  0  0  0  0  0  0  0  0  0  0
   19.3356    6.8421   -0.2768 C   0  0  0  0  0  0  0  0  0  0  0  0
   19.0125    7.9235    0.8281 C   0  0  2  0  0  0  0  0  0  0  0  0
   17.8730    8.7724    0.3868 N   0  0  0  0  0  0  0  0  0  0  0  0
   20.3026    8.7923    1.1089 C   0  0  2  0  0  0  0  0  0  0  0  0
   21.4810    7.8423    1.5625 C   0  0  2  0  0  0  0  0  0  0  0  0
   22.6496    8.6303    1.8101 O   0  0  0  0  0  0  0  0  0  0  0  0
   21.7972    6.7816    0.4400 C   0  0  1  0  0  0  0  0  0  0  0  0
   22.8744    5.9003    0.8655 O   0  0  0  0  0  0  0  0  0  0  0  0
   24.2412    6.2147    0.7592 C   0  0  2  0  0  0  0  0  0  0  0  0
   25.0495    4.9217    1.1170 C   0  0  2  0  0  0  0  0  0  0  0  0
   24.7132    3.9030    0.2307 O   0  0  0  0  0  0  0  0  0  0  0  0
   24.7881    4.4812    2.6071 C   0  0  1  0  0  0  0  0  0  0  0  0
   25.5618    3.2457    2.9609 N   0  0  0  0  0  0  0  0  0  0  0  0
   25.1838    5.6812    3.5561 C   0  0  2  0  0  0  0  0  0  0  0  0
   24.9746    5.3372    4.9273 O   0  0  0  0  0  0  0  0  0  0  0  0
   24.3425    6.9378    3.1492 C   0  0  2  0  0  0  0  0  0  0  0  0
   24.5700    7.2946    1.7067 O   0  0  0  0  0  0  0  0  0  0  0  0
   24.6863    8.1334    3.9895 C   0  0  0  0  0  0  0  0  0  0  0  0
   24.7901    9.3218    3.1884 O   0  0  0  0  0  0  0  0  0  0  0  0
   19.1928   11.4481    4.2424 O   0  0  0  0  0  0  0  0  0  0  0  0
   19.5311   13.9443    2.8668 O   0  0  0  0  0  0  0  0  0  0  0  0
   22.0273    6.6133   -4.2043 N   0  0  0  0  0  0  0  0  0  0  0  0
   21.8907    4.9747   -1.7297 C   0  0  0  0  0  0  0  0  0  0  0  0
   22.7073    5.8885   -1.7694 O   0  0  0  0  0  0  0  0  0  0  0  0
   21.9159    3.7605   -2.6865 C   0  0  1  0  0  0  0  0  0  0  0  0
   22.4898    4.1784   -4.0556 C   0  0  0  0  0  0  0  0  0  0  0  0
   21.7380    5.3013   -4.7796 C   0  0  0  0  0  0  0  0  0  0  0  0
   22.7092    2.7075   -2.0939 O   0  0  0  0  0  0  0  0  0  0  0  0
  1  2  1  6  0  0  0
  1  3  1  0  0  0  0
  1  8  1  0  0  0  0
  3  4  1  0  0  0  0
  3 32  1  6  0  0  0
  4  5  1  0  0  0  0
  4 33  1  1  0  0  0
  5  6  1  6  0  0  0
  5  7  1  0  0  0  0
  7  8  1  0  0  0  0
  7  9  1  1  0  0  0
  9 10  1  0  0  0  0
 11 12  1  6  0  0  0
 11 13  1  0  0  0  0
 11 19  1  0  0  0  0
 12 35  1  0  0  0  0
 13 14  1  0  0  0  0
 14 15  1  6  0  0  0
 14 16  1  0  0  0  0
 16  2  1  1  0  0  0
 16 17  1  0  0  0  0
 17 18  1  6  0  0  0
 17 19  1  0  0  0  0
 19 20  1  1  0  0  0
 21 20  1  1  0  0  0
 21 22  1  0  0  0  0
 21 29  1  0  0  0  0
 22 23  1  6  0  0  0
 22 24  1  0  0  0  0
 24 25  1  1  0  0  0
 24 26  1  0  0  0  0
 26 27  1  1  0  0  0
 26 28  1  0  0  0  0
 28 29  1  0  0  0  0
 28 30  1  1  0  0  0
 30 31  1  0  0  0  0
 34 39  1  0  0  0  0
 35 36  2  0  0  0  0
 37 35  1  1  0  0  0
 37 38  1  0  0  0  0
 37 40  1  0  0  0  0
 38 39  1  0  0  0  0
M  END
>  <CHROM.1>
157.41182038,-60.08561000,102.74950270,162.13194755,157.74482432,-171.36250570
137.21272130,148.05412608,-58.64247477,76.44597598,22.21301074,7.92274936
0.89983081,-2.04520852,0.87294996,-2.42389041

>  <Name>
2g5q_lig

>  <RI>
224

>  <Rbt.Current_Directory>
/home/itssahil/PROJECTS/Mol_Feturizer/New_Systems/rnas/2g5q

>  <Rbt.Executable>
rbdock ($Id: //depot/dev/client3/rdock/2013.1/src/exe/rbdock.cxx#4 $)

>  <Rbt.Library>
libRbt.so (2013.1, Build901 2013/11/27)

>  <Rbt.Parameter_File>
/export/apps/rDock/src/rDock_2013.1_src/data/scripts/dock_solv.prm

>  <Rbt.Receptor>
prm/blind_docking_60.prm

>  <SCORE>
43.6981

>  <SCORE.INTER>
17.1306

>  <SCORE.INTER.CONST>
1

>  <SCORE.INTER.POLAR>
-0.786091

>  <SCORE.INTER.ROT>
10

>  <SCORE.INTER.SOLV>
27.9312

>  <SCORE.INTER.VDW>
-5.53632

>  <SCORE.INTER.norm>
0.428266

>  <SCORE.INTRA>
7.6641

>  <SCORE.INTRA.DIHEDRAL>
-8.45212

>  <SCORE.INTRA.DIHEDRAL.0>
22.5778

>  <SCORE.INTRA.POLAR>
0

>  <SCORE.INTRA.POLAR.0>
0

>  <SCORE.INTRA.REPUL>
0.0291243

>  <SCORE.INTRA.REPUL.0>
0

>  <SCORE.INTRA.SOLV>
5.78572

>  <SCORE.INTRA.SOLV.lig_0>
-102.332

>  <SCORE.INTRA.VDW>
8.85168

>  <SCORE.INTRA.VDW.0>
-5.08747

>  <SCORE.INTRA.norm>
0.191603

>  <SCORE.RESTR>
18.9034

>  <SCORE.RESTR.CAVITY>
18.9034

>  <SCORE.RESTR.norm>
0.472584

>  <SCORE.SYSTEM>
0

>  <SCORE.SYSTEM.CONST>
0

>  <SCORE.SYSTEM.DIHEDRAL>
0

>  <SCORE.SYSTEM.SOLV>
0

>  <SCORE.SYSTEM.norm>
0

>  <SCORE.heavy>
40

>  <SCORE.norm>
1.09245

>  <RMSD>
32.667

$$$$
2g5q_lig
 OpenBabel11021811433D
libRbt.so/2013.1/901 2013/11/27
 40 42  0  0  0  0  0  0  0  0999 V2000
   21.0395   12.2430    3.6455 C   0  0  2  0  0  0  0  0  0  0  0  0
   21.0185   12.4601    2.2520 O   0  0  0  0  0  0  0  0  0  0  0  0
   19.6219   11.7910    4.1046 C   0  0  1  0  0  0  0  0  0  0  0  0
   18.5665   12.9278    3.9386 C   0  0  2  0  0  0  0  0  0  0  0  0
   19.0320   14.1353    4.7931 C   0  0  2  0  0  0  0  0  0  0  0  0
   18.0714   15.1983    4.6847 O   0  0  0  0  0  0  0  0  0  0  0  0
   20.4529   14.5950    4.2698 C   0  0  2  0  0  0  0  0  0  0  0  0
   21.4273   13.4726    4.3857 O   0  0  0  0  0  0  0  0  0  0  0  0
   21.0166   15.7758    5.0531 C   0  0  0  0  0  0  0  0  0  0  0  0
   20.9875   15.5350    6.5306 N   0  0  0  0  0  0  0  0  0  0  0  0
   21.7960    8.8011   -0.0030 C   0  0  2  0  0  0  0  0  0  0  0  0
   22.3841    7.8622   -0.9507 N   0  0  0  0  0  0  0  0  0  0  0  0
   21.2037   10.0566   -0.7703 C   0  0  0  0  0  0  0  0  0  0  0  0
   20.5591   11.0732    0.2523 C   0  0  2  0  0  0  0  0  0  0  0  0
   19.9977   12.2401   -0.4806 N   0  0  0  0  0  0  0  0  0  0  0  0
   21.6482   11.5243    1.3049 C   0  0  2  0  0  0  0  0  0  0  0  0
   22.2168   10.2489    2.0444 C   0  0  2  0  0  0  0  0  0  0  0  0
   23.2072   10.6592    2.9924 O   0  0  0  0  0  0  0  0  0  0  0  0
   22.8687    9.2558    1.0082 C   0  0  1  0  0  0  0  0  0  0  0  0
   23.3805    8.0764    1.6904 O   0  0  0  0  0  0  0  0  0  0  0  0
   22.5696    7.0993    2.2952 C   0  0  2  0  0  0  0  0  0  0  0  0
   23.3404    6.5587    3.5470 C   0  0  2  0  0  0  0  0  0  0  0  0
   23.5838    7.6056    4.4309 O   0  0  0  0  0  0  0  0  0  0  0  0
   24.6845    5.8523    3.1264 C   0  0  1  0  0  0  0  0  0  0  0  0
   25.4281    5.3269    4.3186 N   0  0  0  0  0  0  0  0  0  0  0  0
   24.3374    4.6825    2.1223 C   0  0  2  0  0  0  0  0  0  0  0  0
   25.5213    3.9969    1.7093 O   0  0  0  0  0  0  0  0  0  0  0  0
   23.5724    5.2871    0.8968 C   0  0  2  0  0  0  0  0  0  0  0  0
   22.3274    6.0041    1.3391 O   0  0  0  0  0  0  0  0  0  0  0  0
   23.1793    4.2275   -0.0914 C   0  0  0  0  0  0  0  0  0  0  0  0
   24.2851    3.8635   -0.9337 O   0  0  0  0  0  0  0  0  0  0  0  0
   19.2432   10.6013    3.3304 O   0  0  0  0  0  0  0  0  0  0  0  0
   17.3380   12.4790    4.3707 O   0  0  0  0  0  0  0  0  0  0  0  0
   23.7422    3.0683   -3.4372 N   0  0  0  0  0  0  0  0  0  0  0  0
   21.7414    6.7532   -1.4829 C   0  0  0  0  0  0  0  0  0  0  0  0
   20.5917    6.4304   -1.2048 O   0  0  0  0  0  0  0  0  0  0  0  0
   22.6437    5.9579   -2.4544 C   0  0  1  0  0  0  0  0  0  0  0  0
   21.9227    4.6749   -2.9150 C   0  0  0  0  0  0  0  0  0  0  0  0
   22.6425    3.8549   -3.9919 C   0  0  0  0  0  0  0  0  0  0  0  0
   22.9775    6.7962   -3.5836 O   0  0  0  0  0  0  0  0  0  0  0  0
  1  2  1  6  0  0  0
  1  3  1  0  0  0  0
  1  8  1  0  0  0  0
  3  4  1  0  0  0  0
  3 32  1  6  0  0  0
  4  5  1  0  0  0  0
  4 33  1  1  0  0  0
  5  6  1  6  0  0  0
  5  7  1  0  0  0  0
  7  8  1  0  0  0  0
  7  9  1  1  0  0  0
  9 10  1  0  0  0  0
 11 12  1  6  0  0  0
 11 13  1  0  0  0  0
 11 19  1  0  0  0  0
 12 35  1  0  0  0  0
 13 14  1  0  0  0  0
 14 15  1  6  0  0  0
 14 16  1  0  0  0  0
 16  2  1  1  0  0  0
 16 17  1  0  0  0  0
 17 18  1  1  0  0  0
 17 19  1  0  0  0  0
 19 20  1  1  0  0  0
 21 20  1  6  0  0  0
 21 22  1  0  0  0  0
 21 29  1  0  0  0  0
 22 23  1  1  0  0  0
 22 24  1  0  0  0  0
 24 25  1  1  0  0  0
 24 26  1  0  0  0  0
 26 27  1  6  0  0  0
 26 28  1  0  0  0  0
 28 29  1  0  0  0  0
 28 30  1  6  0  0  0
 30 31  1  0  0  0  0
 34 39  1  0  0  0  0
 35 36  2  0  0  0  0
 37 35  1  1  0  0  0
 37 38  1  0  0  0  0
 37 40  1  0  0  0  0
 38 39  1  0  0  0  0
M  END
>  <CHROM.1>
-106.15543685,51.19121032,-95.58128831,124.63595432,-50.51159841,-146.60703419
-80.05058357,175.02580465,174.14189395,77.51638901,21.90118454,8.97260874
1.56475376,-2.14405873,0.92887942,-2.13900122

>  <Name>
2g5q_lig

>  <RI>
224

>  <Rbt.Current_Directory>
/home/itssahil/PROJECTS/Mol_Feturizer/New_Systems/rnas/2g5q

>  <Rbt.Executable>
rbdock ($Id: //depot/dev/client3/rdock/2013.1/src/exe/rbdock.cxx#4 $)

>  <Rbt.Library>
libRbt.so (2013.1, Build901 2013/11/27)

>  <Rbt.Parameter_File>
/export/apps/rDock/src/rDock_2013.1_src/data/scripts/dock_solv.prm

>  <Rbt.Receptor>
prm/blind_docking_60.prm

>  <SCORE>
7.00073

>  <SCORE.INTER>
-12.329

>  <SCORE.INTER.CONST>
1

>  <SCORE.INTER.POLAR>
-2.3697

>  <SCORE.INTER.ROT>
10

>  <SCORE.INTER.SOLV>
25.6253

>  <SCORE.INTER.VDW>
-19.1288

>  <SCORE.INTER.norm>
-0.308226

>  <SCORE.INTRA>
4.24015

>  <SCORE.INTRA.DIHEDRAL>
-0.134469

>  <SCORE.INTRA.DIHEDRAL.0>
22.5778

>  <SCORE.INTRA.POLAR>
0

>  <SCORE.INTRA.POLAR.0>
0

>  <SCORE.INTRA.REPUL>
0

>  <SCORE.INTRA.REPUL.0>
0

>  <SCORE.INTRA.SOLV>
5.54167

>  <SCORE.INTRA.SOLV.lig_0>
-102.332

>  <SCORE.INTRA.VDW>
1.53655

>  <SCORE.INTRA.VDW.0>
-5.08747

>  <SCORE.INTRA.norm>
0.106004

>  <SCORE.RESTR>
15.0896

>  <SCORE.RESTR.CAVITY>
15.0896

>  <SCORE.RESTR.norm>
0.37724

>  <SCORE.SYSTEM>
0

>  <SCORE.SYSTEM.CONST>
0

>  <SCORE.SYSTEM.DIHEDRAL>
0

>  <SCORE.SYSTEM.SOLV>
0

>  <SCORE.SYSTEM.norm>
0

>  <SCORE.heavy>
40

>  <SCORE.norm>
0.175018

>  <RMSD>
32.690

$$$$
2g5q_lig
 OpenBabel11021811433D
libRbt.so/2013.1/901 2013/11/27
 40 42  0  0  0  0  0  0  0  0999 V2000
   19.5648   11.9578    3.2856 C   0  0  2  0  0  0  0  0  0  0  0  0
   20.6672   11.0828    3.3771 O   0  0  0  0  0  0  0  0  0  0  0  0
   19.9144   13.1035    2.2905 C   0  0  1  0  0  0  0  0  0  0  0  0
   21.0516   14.0214    2.8364 C   0  0  2  0  0  0  0  0  0  0  0  0
   20.5688   14.6260    4.1804 C   0  0  2  0  0  0  0  0  0  0  0  0
   21.5824   15.4985    4.7055 O   0  0  0  0  0  0  0  0  0  0  0  0
   20.2667   13.4366    5.1794 C   0  0  2  0  0  0  0  0  0  0  0  0
   19.2189   12.5433    4.6076 O   0  0  0  0  0  0  0  0  0  0  0  0
   19.7683   13.9188    6.5376 C   0  0  0  0  0  0  0  0  0  0  0  0
   20.6856   14.9349    7.1441 N   0  0  0  0  0  0  0  0  0  0  0  0
   21.5278    7.6572    0.8076 C   0  0  2  0  0  0  0  0  0  0  0  0
   21.9685    6.8632   -0.3331 N   0  0  0  0  0  0  0  0  0  0  0  0
   20.3985    8.6779    0.3622 C   0  0  0  0  0  0  0  0  0  0  0  0
   19.9131    9.5352    1.5966 C   0  0  2  0  0  0  0  0  0  0  0  0
   18.8467   10.4803    1.1680 N   0  0  0  0  0  0  0  0  0  0  0  0
   21.1447   10.3028    2.2226 C   0  0  2  0  0  0  0  0  0  0  0  0
   22.2482    9.2553    2.6493 C   0  0  2  0  0  0  0  0  0  0  0  0
   23.3649    9.9529    3.2099 O   0  0  0  0  0  0  0  0  0  0  0  0
   22.7293    8.4219    1.4007 C   0  0  1  0  0  0  0  0  0  0  0  0
   23.7365    7.4496    1.7987 O   0  0  0  0  0  0  0  0  0  0  0  0
   23.4439    6.1631    2.2859 C   0  0  2  0  0  0  0  0  0  0  0  0
   23.6315    6.1959    3.8406 C   0  0  2  0  0  0  0  0  0  0  0  0
   22.7662    7.1352    4.3935 O   0  0  0  0  0  0  0  0  0  0  0  0
   25.1262    6.5107    4.2270 C   0  0  1  0  0  0  0  0  0  0  0  0
   25.3171    6.5398    5.7146 N   0  0  0  0  0  0  0  0  0  0  0  0
   26.0515    5.4141    3.5647 C   0  0  2  0  0  0  0  0  0  0  0  0
   27.4247    5.6435    3.8870 O   0  0  0  0  0  0  0  0  0  0  0  0
   25.8189    5.4337    2.0161 C   0  0  2  0  0  0  0  0  0  0  0  0
   24.3729    5.1893    1.6853 O   0  0  0  0  0  0  0  0  0  0  0  0
   26.6441    4.3930    1.3164 C   0  0  0  0  0  0  0  0  0  0  0  0
   28.0483    4.6743    1.4347 O   0  0  0  0  0  0  0  0  0  0  0  0
   20.2935   12.4999    1.0060 O   0  0  0  0  0  0  0  0  0  0  0  0
   21.3100   15.0216    1.9253 O   0  0  0  0  0  0  0  0  0  0  0  0
   21.9098    3.4347   -1.2439 N   0  0  0  0  0  0  0  0  0  0  0  0
   23.0114    7.1967   -1.1859 C   0  0  0  0  0  0  0  0  0  0  0  0
   23.6840    8.2161   -1.0775 O   0  0  0  0  0  0  0  0  0  0  0  0
   23.2206    6.1463   -2.3011 C   0  0  1  0  0  0  0  0  0  0  0  0
   23.8742    4.8778   -1.7164 C   0  0  0  0  0  0  0  0  0  0  0  0
   23.0534    4.1313   -0.6584 C   0  0  0  0  0  0  0  0  0  0  0  0
   21.9446    5.8377   -2.9059 O   0  0  0  0  0  0  0  0  0  0  0  0
  1  2  1  1  0  0  0
  1  3  1  0  0  0  0
  1  8  1  0  0  0  0
  3  4  1  0  0  0  0
  3 32  1  6  0  0  0
  4  5  1  0  0  0  0
  4 33  1  6  0  0  0
  5  6  1  1  0  0  0
  5  7  1  0  0  0  0
  7  8  1  0  0  0  0
  7  9  1  1  0  0  0
  9 10  1  0  0  0  0
 11 12  1  6  0  0  0
 11 13  1  0  0  0  0
 11 19  1  0  0  0  0
 12 35  1  0  0  0  0
 13 14  1  0  0  0  0
 14 15  1  6  0  0  0
 14 16  1  0  0  0  0
 16  2  1  1  0  0  0
 16 17  1  0  0  0  0
 17 18  1  6  0  0  0
 17 19  1  0  0  0  0
 19 20  1  1  0  0  0
 21 20  1  6  0  0  0
 21 22  1  0  0  0  0
 21 29  1  0  0  0  0
 22 23  1  1  0  0  0
 22 24  1  0  0  0  0
 24 25  1  1  0  0  0
 24 26  1  0  0  0  0
 26 27  1  6  0  0  0
 26 28  1  0  0  0  0
 28 29  1  0  0  0  0
 28 30  1  6  0  0  0
 30 31  1  0  0  0  0
 34 39  1  0  0  0  0
 35 36  2  0  0  0  0
 37 35  1  1  0  0  0
 37 38  1  0  0  0  0
 37 40  1  0  0  0  0
 38 39  1  0  0  0  0
M  END
>  <CHROM.1>
-63.70593646,-52.82088674,90.61658150,-51.48440959,-33.11432818,-102.58135421
-65.51444850,-73.75226515,62.64936613,72.24756432,22.52834202,8.87327461
2.13315091,2.22436300,-0.79062778,0.87498311

>  <Name>
2g5q_lig

>  <RI>
224

>  <Rbt.Current_Directory>
/home/itssahil/PROJECTS/Mol_Feturizer/New_Systems/rnas/2g5q

>  <Rbt.Executable>
rbdock ($Id: //depot/dev/client3/rdock/2013.1/src/exe/rbdock.cxx#4 $)

>  <Rbt.Library>
libRbt.so (2013.1, Build901 2013/11/27)

>  <Rbt.Parameter_File>
/export/apps/rDock/src/rDock_2013.1_src/data/scripts/dock_solv.prm

>  <Rbt.Receptor>
prm/blind_docking_60.prm

>  <SCORE>
5.60942

>  <SCORE.INTER>
-11.8056

>  <SCORE.INTER.CONST>
1

>  <SCORE.INTER.POLAR>
-1.21056

>  <SCORE.INTER.ROT>
10

>  <SCORE.INTER.SOLV>
28.0459

>  <SCORE.INTER.VDW>
-23.4505

>  <SCORE.INTER.norm>
-0.295141

>  <SCORE.INTRA>
2.89262

>  <SCORE.INTRA.DIHEDRAL>
-10.8488

>  <SCORE.INTRA.DIHEDRAL.0>
22.5778

>  <SCORE.INTRA.POLAR>
0

>  <SCORE.INTRA.POLAR.0>
0

>  <SCORE.INTRA.REPUL>
0

>  <SCORE.INTRA.REPUL.0>
0

>  <SCORE.INTRA.SOLV>
8.22176

>  <SCORE.INTRA.SOLV.lig_0>
-102.332

>  <SCORE.INTRA.VDW>
4.20616

>  <SCORE.INTRA.VDW.0>
-5.08747

>  <SCORE.INTRA.norm>
0.0723155

>  <SCORE.RESTR>
14.5224

>  <SCORE.RESTR.CAVITY>
14.5224

>  <SCORE.RESTR.norm>
0.363061

>  <SCORE.SYSTEM>
0

>  <SCORE.SYSTEM.CONST>
0

>  <SCORE.SYSTEM.DIHEDRAL>
0

>  <SCORE.SYSTEM.SOLV>
0

>  <SCORE.SYSTEM.norm>
0

>  <SCORE.heavy>
40

>  <SCORE.norm>
0.140235

>  <RMSD>
32.752

$$$$
2g5q_lig
 OpenBabel11021811433D
libRbt.so/2013.1/901 2013/11/27
 40 42  0  0  0  0  0  0  0  0999 V2000
   19.4051   12.4663    2.5418 C   0  0  2  0  0  0  0  0  0  0  0  0
   20.0001   11.2303    2.8702 O   0  0  0  0  0  0  0  0  0  0  0  0
   20.4403   13.6030    2.7883 C   0  0  1  0  0  0  0  0  0  0  0  0
   20.7787   13.7635    4.3026 C   0  0  2  0  0  0  0  0  0  0  0  0
   19.4598   14.0867    5.0516 C   0  0  2  0  0  0  0  0  0  0  0  0
   19.7340   14.2651    6.4507 O   0  0  0  0  0  0  0  0  0  0  0  0
   18.4499   12.8914    4.8162 C   0  0  2  0  0  0  0  0  0  0  0  0
   18.1893   12.7230    3.3580 O   0  0  0  0  0  0  0  0  0  0  0  0
   17.1053   13.1114    5.5011 C   0  0  0  0  0  0  0  0  0  0  0  0
   16.4830   14.4162    5.1111 N   0  0  0  0  0  0  0  0  0  0  0  0
   22.2911    8.0126    1.0060 C   0  0  2  0  0  0  0  0  0  0  0  0
   23.1776    7.2969    0.0962 N   0  0  0  0  0  0  0  0  0  0  0  0
   21.0777    8.6460    0.2046 C   0  0  0  0  0  0  0  0  0  0  0  0
   20.1109    9.4165    1.1875 C   0  0  2  0  0  0  0  0  0  0  0  0
   18.9718    9.9959    0.4255 N   0  0  0  0  0  0  0  0  0  0  0  0
   20.9208   10.5372    1.9530 C   0  0  2  0  0  0  0  0  0  0  0  0
   22.1212    9.8698    2.7343 C   0  0  2  0  0  0  0  0  0  0  0  0
   22.8567   10.8870    3.4215 O   0  0  0  0  0  0  0  0  0  0  0  0
   23.0812    9.1201    1.7337 C   0  0  1  0  0  0  0  0  0  0  0  0
   24.1791    8.4959    2.4572 O   0  0  0  0  0  0  0  0  0  0  0  0
   24.0149    7.4996    3.4362 C   0  0  2  0  0  0  0  0  0  0  0  0
   25.3740    7.3669    4.2034 C   0  0  2  0  0  0  0  0  0  0  0  0
   25.6942    8.5847    4.7959 O   0  0  0  0  0  0  0  0  0  0  0  0
   26.5263    6.8882    3.2413 C   0  0  1  0  0  0  0  0  0  0  0  0
   27.8316    6.7537    3.9681 N   0  0  0  0  0  0  0  0  0  0  0  0
   26.0969    5.5089    2.6005 C   0  0  2  0  0  0  0  0  0  0  0  0
   27.1100    5.0186    1.7199 O   0  0  0  0  0  0  0  0  0  0  0  0
   24.7373    5.7091    1.8495 C   0  0  2  0  0  0  0  0  0  0  0  0
   23.6767    6.2225    2.7829 O   0  0  0  0  0  0  0  0  0  0  0  0
   24.2462    4.4293    1.2375 C   0  0  0  0  0  0  0  0  0  0  0  0
   22.8340    4.4835    0.9776 O   0  0  0  0  0  0  0  0  0  0  0  0
   21.6476   13.3060    2.0057 O   0  0  0  0  0  0  0  0  0  0  0  0
   21.6856   14.7878    4.4634 O   0  0  0  0  0  0  0  0  0  0  0  0
   21.6529    4.9952   -3.3977 N   0  0  0  0  0  0  0  0  0  0  0  0
   22.7977    6.2538   -0.7367 C   0  0  0  0  0  0  0  0  0  0  0  0
   21.6578    5.8062   -0.7955 O   0  0  0  0  0  0  0  0  0  0  0  0
   23.9778    5.7057   -1.5719 C   0  0  1  0  0  0  0  0  0  0  0  0
   23.6453    4.2930   -2.0931 C   0  0  0  0  0  0  0  0  0  0  0  0
   22.8999    4.2338   -3.4315 C   0  0  0  0  0  0  0  0  0  0  0  0
   24.2430    6.6109   -2.6671 O   0  0  0  0  0  0  0  0  0  0  0  0
  1  2  1  1  0  0  0
  1  3  1  0  0  0  0
  1  8  1  0  0  0  0
  3  4  1  0  0  0  0
  3 32  1  6  0  0  0
  4  5  1  0  0  0  0
  4 33  1  6  0  0  0
  5  6  1  1  0  0  0
  5  7  1  0  0  0  0
  7  8  1  0  0  0  0
  7  9  1  1  0  0  0
  9 10  1  0  0  0  0
 11 12  1  6  0  0  0
 11 13  1  0  0  0  0
 11 19  1  0  0  0  0
 12 35  1  0  0  0  0
 13 14  1  0  0  0  0
 14 15  1  6  0  0  0
 14 16  1  0  0  0  0
 16  2  1  1  0  0  0
 16 17  1  0  0  0  0
 17 18  1  6  0  0  0
 17 19  1  0  0  0  0
 19 20  1  1  0  0  0
 21 20  1  6  0  0  0
 21 22  1  0  0  0  0
 21 29  1  0  0  0  0
 22 23  1  6  0  0  0
 22 24  1  0  0  0  0
 24 25  1  1  0  0  0
 24 26  1  0  0  0  0
 26 27  1  6  0  0  0
 26 28  1  0  0  0  0
 28 29  1  0  0  0  0
 28 30  1  1  0  0  0
 30 31  1  0  0  0  0
 34 39  1  0  0  0  0
 35 36  2  0  0  0  0
 37 35  1  6  0  0  0
 37 38  1  0  0  0  0
 37 40  1  0  0  0  0
 38 39  1  0  0  0  0
M  END
>  <CHROM.1>
-79.60254541,54.24083867,-57.46746812,-98.95460634,-58.05541449,-166.04554372
159.42452981,160.71681647,87.62625979,-56.21642466,22.28897450,8.99616695
2.02739223,2.18713885,-0.56161080,0.84477234

>  <Name>
2g5q_lig

>  <RI>
224

>  <Rbt.Current_Directory>
/home/itssahil/PROJECTS/Mol_Feturizer/New_Systems/rnas/2g5q

>  <Rbt.Executable>
rbdock ($Id: //depot/dev/client3/rdock/2013.1/src/exe/rbdock.cxx#4 $)

>  <Rbt.Library>
libRbt.so (2013.1, Build901 2013/11/27)

>  <Rbt.Parameter_File>
/export/apps/rDock/src/rDock_2013.1_src/data/scripts/dock_solv.prm

>  <Rbt.Receptor>
prm/blind_docking_60.prm

>  <SCORE>
10.8257

>  <SCORE.INTER>
-6.43474

>  <SCORE.INTER.CONST>
1

>  <SCORE.INTER.POLAR>
0

>  <SCORE.INTER.ROT>
10

>  <SCORE.INTER.SOLV>
19.6885

>  <SCORE.INTER.VDW>
-21.1193

>  <SCORE.INTER.norm>
-0.160868

>  <SCORE.INTRA>
1.79271

>  <SCORE.INTRA.DIHEDRAL>
-9.69886

>  <SCORE.INTRA.DIHEDRAL.0>
22.5778

>  <SCORE.INTRA.POLAR>
0

>  <SCORE.INTRA.POLAR.0>
0

>  <SCORE.INTRA.REPUL>
0

>  <SCORE.INTRA.REPUL.0>
0

>  <SCORE.INTRA.SOLV>
7.4207

>  <SCORE.INTRA.SOLV.lig_0>
-102.332

>  <SCORE.INTRA.VDW>
2.93179

>  <SCORE.INTRA.VDW.0>
-5.08747

>  <SCORE.INTRA.norm>
0.0448177

>  <SCORE.RESTR>
15.4677

>  <SCORE.RESTR.CAVITY>
15.4677

>  <SCORE.RESTR.norm>
0.386694

>  <SCORE.SYSTEM>
0

>  <SCORE.SYSTEM.CONST>
0

>  <SCORE.SYSTEM.DIHEDRAL>
0

>  <SCORE.SYSTEM.SOLV>
0

>  <SCORE.SYSTEM.norm>
0

>  <SCORE.heavy>
40

>  <SCORE.norm>
0.270643

>  <RMSD>
32.789

$$$$
2g5q_lig
 OpenBabel11021811433D
libRbt.so/2013.1/901 2013/11/27
 40 42  0  0  0  0  0  0  0  0999 V2000
   19.8292   11.7325    3.0014 C   0  0  2  0  0  0  0  0  0  0  0  0
   21.0300   10.9998    3.1054 O   0  0  0  0  0  0  0  0  0  0  0  0
   20.0412   12.9038    1.9974 C   0  0  1  0  0  0  0  0  0  0  0  0
   21.0545   13.9586    2.5396 C   0  0  2  0  0  0  0  0  0  0  0  0
   20.4943   14.5111    3.8760 C   0  0  2  0  0  0  0  0  0  0  0  0
   21.3908   15.5056    4.3973 O   0  0  0  0  0  0  0  0  0  0  0  0
   20.3349   13.3021    4.8846 C   0  0  2  0  0  0  0  0  0  0  0  0
   19.4073   12.2824    4.3165 O   0  0  0  0  0  0  0  0  0  0  0  0
   19.7741   13.7313    6.2362 C   0  0  0  0  0  0  0  0  0  0  0  0
   18.4812   14.4735    6.0980 N   0  0  0  0  0  0  0  0  0  0  0  0
   21.7533    6.9608    1.6086 C   0  0  2  0  0  0  0  0  0  0  0  0
   22.0530    5.8563    0.7052 N   0  0  0  0  0  0  0  0  0  0  0  0
   20.4564    7.7325    1.1203 C   0  0  0  0  0  0  0  0  0  0  0  0
   20.1239    8.9256    2.1003 C   0  0  2  0  0  0  0  0  0  0  0  0
   18.8998    9.6339    1.6377 N   0  0  0  0  0  0  0  0  0  0  0  0
   21.3616    9.9055    2.1771 C   0  0  2  0  0  0  0  0  0  0  0  0
   22.6325    9.1014    2.6619 C   0  0  2  0  0  0  0  0  0  0  0  0
   23.7531    9.9892    2.7245 O   0  0  0  0  0  0  0  0  0  0  0  0
   22.9555    7.9261    1.6623 C   0  0  1  0  0  0  0  0  0  0  0  0
   24.1190    7.1796    2.1177 O   0  0  0  0  0  0  0  0  0  0  0  0
   24.1953    6.5118    3.3531 C   0  0  2  0  0  0  0  0  0  0  0  0
   25.2203    7.2907    4.2453 C   0  0  2  0  0  0  0  0  0  0  0  0
   24.7805    8.5988    4.4245 O   0  0  0  0  0  0  0  0  0  0  0  0
   26.6626    7.2630    3.6116 C   0  0  1  0  0  0  0  0  0  0  0  0
   27.6529    8.0029    4.4615 N   0  0  0  0  0  0  0  0  0  0  0  0
   27.0964    5.7542    3.4308 C   0  0  2  0  0  0  0  0  0  0  0  0
   28.4053    5.6644    2.8643 O   0  0  0  0  0  0  0  0  0  0  0  0
   26.0357    5.0343    2.5312 C   0  0  2  0  0  0  0  0  0  0  0  0
   24.6624    5.1310    3.1349 O   0  0  0  0  0  0  0  0  0  0  0  0
   26.3636    3.5821    2.3382 C   0  0  0  0  0  0  0  0  0  0  0  0
   26.6504    2.9409    3.5918 O   0  0  0  0  0  0  0  0  0  0  0  0
   20.4980   12.3402    0.7200 O   0  0  0  0  0  0  0  0  0  0  0  0
   21.1933   14.9752    1.6204 O   0  0  0  0  0  0  0  0  0  0  0  0
   21.7537    5.1056   -4.9605 N   0  0  0  0  0  0  0  0  0  0  0  0
   22.6264    5.9832   -0.5523 C   0  0  0  0  0  0  0  0  0  0  0  0
   22.9428    7.0562   -1.0543 O   0  0  0  0  0  0  0  0  0  0  0  0
   22.8066    4.6199   -1.2590 C   0  0  1  0  0  0  0  0  0  0  0  0
   22.9144    4.8252   -2.7836 C   0  0  0  0  0  0  0  0  0  0  0  0
   21.6027    5.1503   -3.5075 C   0  0  0  0  0  0  0  0  0  0  0  0
   23.9896    3.9710   -0.7406 O   0  0  0  0  0  0  0  0  0  0  0  0
  1  2  1  1  0  0  0
  1  3  1  0  0  0  0
  1  8  1  0  0  0  0
  3  4  1  0  0  0  0
  3 32  1  6  0  0  0
  4  5  1  0  0  0  0
  4 33  1  6  0  0  0
  5  6  1  1  0  0  0
  5  7  1  0  0  0  0
  7  8  1  0  0  0  0
  7  9  1  1  0  0  0
  9 10  1  0  0  0  0
 11 12  1  6  0  0  0
 11 13  1  0  0  0  0
 11 19  1  0  0  0  0
 12 35  1  0  0  0  0
 13 14  1  0  0  0  0
 14 15  1  6  0  0  0
 14 16  1  0  0  0  0
 16  2  1  1  0  0  0
 16 17  1  0  0  0  0
 17 18  1  6  0  0  0
 17 19  1  0  0  0  0
 19 20  1  1  0  0  0
 21 20  1  6  0  0  0
 21 22  1  0  0  0  0
 21 29  1  0  0  0  0
 22 23  1  6  0  0  0
 22 24  1  0  0  0  0
 24 25  1  1  0  0  0
 24 26  1  0  0  0  0
 26 27  1  6  0  0  0
 26 28  1  0  0  0  0
 28 29  1  0  0  0  0
 28 30  1  1  0  0  0
 30 31  1  0  0  0  0
 34 39  1  0  0  0  0
 35 36  2  0  0  0  0
 37 35  1  1  0  0  0
 37 38  1  0  0  0  0
 37 40  1  0  0  0  0
 38 39  1  0  0  0  0
M  END
>  <CHROM.1>
-86.46774499,54.55335575,76.01318101,-50.13602040,-59.39309545,-110.61544721
49.18114646,158.15971964,-74.91741953,-170.36986158,22.72824440,8.67121114
2.11826333,2.21800736,-0.70191427,0.77724420

>  <Name>
2g5q_lig

>  <RI>
224

>  <Rbt.Current_Directory>
/home/itssahil/PROJECTS/Mol_Feturizer/New_Systems/rnas/2g5q

>  <Rbt.Executable>
rbdock ($Id: //depot/dev/client3/rdock/2013.1/src/exe/rbdock.cxx#4 $)

>  <Rbt.Library>
libRbt.so (2013.1, Build901 2013/11/27)

>  <Rbt.Parameter_File>
/export/apps/rDock/src/rDock_2013.1_src/data/scripts/dock_solv.prm

>  <Rbt.Receptor>
prm/blind_docking_60.prm

>  <SCORE>
8.54771

>  <SCORE.INTER>
-7.33599

>  <SCORE.INTER.CONST>
1

>  <SCORE.INTER.POLAR>
-0.0241515

>  <SCORE.INTER.ROT>
10

>  <SCORE.INTER.SOLV>
24.2674

>  <SCORE.INTER.VDW>
-23.166

>  <SCORE.INTER.norm>
-0.1834

>  <SCORE.INTRA>
0.268639

>  <SCORE.INTRA.DIHEDRAL>
-9.32874

>  <SCORE.INTRA.DIHEDRAL.0>
22.5778

>  <SCORE.INTRA.POLAR>
0

>  <SCORE.INTRA.POLAR.0>
0

>  <SCORE.INTRA.REPUL>
0

>  <SCORE.INTRA.REPUL.0>
0

>  <SCORE.INTRA.SOLV>
3.92037

>  <SCORE.INTRA.SOLV.lig_0>
-102.332

>  <SCORE.INTRA.VDW>
2.97282

>  <SCORE.INTRA.VDW.0>
-5.08747

>  <SCORE.INTRA.norm>
0.00671596

>  <SCORE.RESTR>
15.6151

>  <SCORE.RESTR.CAVITY>
15.6151

>  <SCORE.RESTR.norm>
0.390377

>  <SCORE.SYSTEM>
0

>  <SCORE.SYSTEM.CONST>
0

>  <SCORE.SYSTEM.DIHEDRAL>
0

>  <SCORE.SYSTEM.SOLV>
0

>  <SCORE.SYSTEM.norm>
0

>  <SCORE.heavy>
40

>  <SCORE.norm>
0.213693

>  <RMSD>
32.846

$$$$
2g5q_lig
 OpenBabel11021811433D
libRbt.so/2013.1/901 2013/11/27
 40 42  0  0  0  0  0  0  0  0999 V2000
   19.6929   11.6963    3.0807 C   0  0  2  0  0  0  0  0  0  0  0  0
   20.8390   10.8889    3.2359 O   0  0  0  0  0  0  0  0  0  0  0  0
   20.0122   12.8309    2.0630 C   0  0  1  0  0  0  0  0  0  0  0  0
   21.0759   13.8278    2.6180 C   0  0  2  0  0  0  0  0  0  0  0  0
   20.5130   14.4424    3.9258 C   0  0  2  0  0  0  0  0  0  0  0  0
   21.4568   15.3864    4.4573 O   0  0  0  0  0  0  0  0  0  0  0  0
   20.2435   13.2669    4.9504 C   0  0  2  0  0  0  0  0  0  0  0  0
   19.2684   12.2989    4.3717 O   0  0  0  0  0  0  0  0  0  0  0  0
   19.6714   13.7588    6.2757 C   0  0  0  0  0  0  0  0  0  0  0  0
   18.3930   14.5155    6.0894 N   0  0  0  0  0  0  0  0  0  0  0  0
   21.7360    7.0475    1.3605 C   0  0  2  0  0  0  0  0  0  0  0  0
   22.1118    6.0523    0.3636 N   0  0  0  0  0  0  0  0  0  0  0  0
   20.4533    7.8477    0.8806 C   0  0  0  0  0  0  0  0  0  0  0  0
   20.0384    8.9222    1.9611 C   0  0  2  0  0  0  0  0  0  0  0  0
   18.8282    9.6577    1.5042 N   0  0  0  0  0  0  0  0  0  0  0  0
   21.2478    9.9069    2.2172 C   0  0  2  0  0  0  0  0  0  0  0  0
   22.5055    9.0746    2.6886 C   0  0  2  0  0  0  0  0  0  0  0  0
   23.6010    9.9674    2.9137 O   0  0  0  0  0  0  0  0  0  0  0  0
   22.9117    8.0196    1.5899 C   0  0  1  0  0  0  0  0  0  0  0  0
   24.0626    7.2461    2.0319 O   0  0  0  0  0  0  0  0  0  0  0  0
   24.0994    6.4923    3.2187 C   0  0  2  0  0  0  0  0  0  0  0  0
   25.0856    7.2107    4.2008 C   0  0  2  0  0  0  0  0  0  0  0  0
   24.6299    8.5004    4.4564 O   0  0  0  0  0  0  0  0  0  0  0  0
   26.5500    7.2353    3.6199 C   0  0  1  0  0  0  0  0  0  0  0  0
   27.5034    7.9176    4.5558 N   0  0  0  0  0  0  0  0  0  0  0  0
   27.0014    5.7454    3.3483 C   0  0  2  0  0  0  0  0  0  0  0  0
   28.3305    5.7026    2.8250 O   0  0  0  0  0  0  0  0  0  0  0  0
   25.9793    5.0862    2.3616 C   0  0  2  0  0  0  0  0  0  0  0  0
   24.5844    5.1329    2.9202 O   0  0  0  0  0  0  0  0  0  0  0  0
   26.3249    3.6531    2.0781 C   0  0  0  0  0  0  0  0  0  0  0  0
   26.5070    2.9098    3.2943 O   0  0  0  0  0  0  0  0  0  0  0  0
   20.4694   12.2131    0.8110 O   0  0  0  0  0  0  0  0  0  0  0  0
   21.3095   14.8145    1.6856 O   0  0  0  0  0  0  0  0  0  0  0  0
   22.6141    2.6851   -3.2885 N   0  0  0  0  0  0  0  0  0  0  0  0
   22.9682    6.2737   -0.7058 C   0  0  0  0  0  0  0  0  0  0  0  0
   23.5067    7.3503   -0.9390 O   0  0  0  0  0  0  0  0  0  0  0  0
   23.1552    5.0141   -1.5828 C   0  0  1  0  0  0  0  0  0  0  0  0
   22.2478    5.0970   -2.8270 C   0  0  0  0  0  0  0  0  0  0  0  0
   22.4668    4.0106   -3.8862 C   0  0  0  0  0  0  0  0  0  0  0  0
   24.5452    4.9049   -1.9639 O   0  0  0  0  0  0  0  0  0  0  0  0
  1  2  1  1  0  0  0
  1  3  1  0  0  0  0
  1  8  1  0  0  0  0
  3  4  1  0  0  0  0
  3 32  1  6  0  0  0
  4  5  1  0  0  0  0
  4 33  1  6  0  0  0
  5  6  1  1  0  0  0
  5  7  1  0  0  0  0
  7  8  1  0  0  0  0
  7  9  1  1  0  0  0
  9 10  1  0  0  0  0
 11 12  1  6  0  0  0
 11 13  1  0  0  0  0
 11 19  1  0  0  0  0
 12 35  1  0  0  0  0
 13 14  1  0  0  0  0
 14 15  1  6  0  0  0
 14 16  1  0  0  0  0
 16  2  1  1  0  0  0
 16 17  1  0  0  0  0
 17 18  1  6  0  0  0
 17 19  1  0  0  0  0
 19 20  1  1  0  0  0
 21 20  1  6  0  0  0
 21 22  1  0  0  0  0
 21 29  1  0  0  0  0
 22 23  1  6  0  0  0
 22 24  1  0  0  0  0
 24 25  1  1  0  0  0
 24 26  1  0  0  0  0
 26 27  1  6  0  0  0
 26 28  1  0  0  0  0
 28 29  1  0  0  0  0
 28 30  1  1  0  0  0
 30 31  1  0  0  0  0
 34 39  1  0  0  0  0
 35 36  2  0  0  0  0
 37 35  1  1  0  0  0
 37 38  1  0  0  0  0
 37 40  1  0  0  0  0
 38 39  1  0  0  0  0
M  END
>  <CHROM.1>
-75.97192799,57.77824118,88.93691641,-55.95089455,-62.05968896,-110.48224815
52.00160829,99.03614155,171.89193517,43.94363032,22.74274135,8.62780864,2.07494108
2.18692068,-0.67272410,0.78517819

>  <Name>
2g5q_lig

>  <RI>
224

>  <Rbt.Current_Directory>
/home/itssahil/PROJECTS/Mol_Feturizer/New_Systems/rnas/2g5q

>  <Rbt.Executable>
rbdock ($Id: //depot/dev/client3/rdock/2013.1/src/exe/rbdock.cxx#4 $)

>  <Rbt.Library>
libRbt.so (2013.1, Build901 2013/11/27)

>  <Rbt.Parameter_File>
/export/apps/rDock/src/rDock_2013.1_src/data/scripts/dock_solv.prm

>  <Rbt.Receptor>
prm/blind_docking_60.prm

>  <SCORE>
9.92662

>  <SCORE.INTER>
-6.7078

>  <SCORE.INTER.CONST>
1

>  <SCORE.INTER.POLAR>
0

>  <SCORE.INTER.ROT>
10

>  <SCORE.INTER.SOLV>
22.3742

>  <SCORE.INTER.VDW>
-22.1966

>  <SCORE.INTER.norm>
-0.167695

>  <SCORE.INTRA>
1.27639

>  <SCORE.INTRA.DIHEDRAL>
-10.5466

>  <SCORE.INTRA.DIHEDRAL.0>
22.5778

>  <SCORE.INTRA.POLAR>
0

>  <SCORE.INTRA.POLAR.0>
0

>  <SCORE.INTRA.REPUL>
0

>  <SCORE.INTRA.REPUL.0>
0

>  <SCORE.INTRA.SOLV>
5.59733

>  <SCORE.INTRA.SOLV.lig_0>
-102.332

>  <SCORE.INTRA.VDW>
3.75102

>  <SCORE.INTRA.VDW.0>
-5.08747

>  <SCORE.INTRA.norm>
0.0319097

>  <SCORE.RESTR>
15.358

>  <SCORE.RESTR.CAVITY>
15.358

>  <SCORE.RESTR.norm>
0.383951

>  <SCORE.SYSTEM>
0

>  <SCORE.SYSTEM.CONST>
0

>  <SCORE.SYSTEM.DIHEDRAL>
0

>  <SCORE.SYSTEM.SOLV>
0

>  <SCORE.SYSTEM.norm>
0

>  <SCORE.heavy>
40

>  <SCORE.norm>
0.248166

>  <RMSD>
32.855

$$$$
2g5q_lig
 OpenBabel11021811433D
libRbt.so/2013.1/901 2013/11/27
 40 42  0  0  0  0  0  0  0  0999 V2000
   19.9885   12.2770    2.3616 C   0  0  2  0  0  0  0  0  0  0  0  0
   21.0143   11.4559    2.8746 O   0  0  0  0  0  0  0  0  0  0  0  0
   20.5506   13.7150    2.1589 C   0  0  1  0  0  0  0  0  0  0  0  0
   20.9058   14.3974    3.5160 C   0  0  2  0  0  0  0  0  0  0  0  0
   19.6124   14.4576    4.3694 C   0  0  2  0  0  0  0  0  0  0  0  0
   19.8938   15.1023    5.6222 O   0  0  0  0  0  0  0  0  0  0  0  0
   19.0960   12.9785    4.5926 C   0  0  2  0  0  0  0  0  0  0  0  0
   18.8196   12.3306    3.2785 O   0  0  0  0  0  0  0  0  0  0  0  0
   17.8122   12.9192    5.4135 C   0  0  0  0  0  0  0  0  0  0  0  0
   17.4541   14.2523    5.9933 N   0  0  0  0  0  0  0  0  0  0  0  0
   22.1493    7.2999    2.1561 C   0  0  2  0  0  0  0  0  0  0  0  0
   22.5797    6.0841    1.4761 N   0  0  0  0  0  0  0  0  0  0  0  0
   20.8083    7.8455    1.5080 C   0  0  0  0  0  0  0  0  0  0  0  0
   20.3345    9.1588    2.2464 C   0  0  2  0  0  0  0  0  0  0  0  0
   19.0707    9.6538    1.6367 N   0  0  0  0  0  0  0  0  0  0  0  0
   21.4765   10.2487    2.1689 C   0  0  2  0  0  0  0  0  0  0  0  0
   22.7946    9.6682    2.8189 C   0  0  2  0  0  0  0  0  0  0  0  0
   23.8289   10.6543    2.7418 O   0  0  0  0  0  0  0  0  0  0  0  0
   23.2582    8.3679    2.0577 C   0  0  1  0  0  0  0  0  0  0  0  0
   24.4653    7.8285    2.6661 O   0  0  0  0  0  0  0  0  0  0  0  0
   24.9639    8.2261    3.9197 C   0  0  2  0  0  0  0  0  0  0  0  0
   26.4869    8.5443    3.7398 C   0  0  2  0  0  0  0  0  0  0  0  0
   26.6414    9.5657    2.8074 O   0  0  0  0  0  0  0  0  0  0  0  0
   27.2894    7.2595    3.3063 C   0  0  1  0  0  0  0  0  0  0  0  0
   28.7506    7.5531    3.1358 N   0  0  0  0  0  0  0  0  0  0  0  0
   27.0665    6.1421    4.4013 C   0  0  2  0  0  0  0  0  0  0  0  0
   27.7790    4.9497    4.0654 O   0  0  0  0  0  0  0  0  0  0  0  0
   25.5297    5.8699    4.5311 C   0  0  2  0  0  0  0  0  0  0  0  0
   24.7878    7.1281    4.8869 O   0  0  0  0  0  0  0  0  0  0  0  0
   25.2343    4.8370    5.5796 C   0  0  0  0  0  0  0  0  0  0  0  0
   25.2292    5.4154    6.8950 O   0  0  0  0  0  0  0  0  0  0  0  0
   21.7285   13.6316    1.2851 O   0  0  0  0  0  0  0  0  0  0  0  0
   21.3841   15.6672    3.2788 O   0  0  0  0  0  0  0  0  0  0  0  0
   26.6092    4.5585    1.6213 N   0  0  0  0  0  0  0  0  0  0  0  0
   22.7811    5.9598    0.1085 C   0  0  0  0  0  0  0  0  0  0  0  0
   22.6094    6.8713   -0.6934 O   0  0  0  0  0  0  0  0  0  0  0  0
   23.2305    4.5365   -0.2949 C   0  0  1  0  0  0  0  0  0  0  0  0
   24.7300    4.3488    0.0122 C   0  0  0  0  0  0  0  0  0  0  0  0
   25.1621    4.6674    1.4482 C   0  0  0  0  0  0  0  0  0  0  0  0
   22.4317    3.5675    0.4208 O   0  0  0  0  0  0  0  0  0  0  0  0
  1  2  1  1  0  0  0
  1  3  1  0  0  0  0
  1  8  1  0  0  0  0
  3  4  1  0  0  0  0
  3 32  1  6  0  0  0
  4  5  1  0  0  0  0
  4 33  1  6  0  0  0
  5  6  1  1  0  0  0
  5  7  1  0  0  0  0
  7  8  1  0  0  0  0
  7  9  1  1  0  0  0
  9 10  1  0  0  0  0
 11 12  1  6  0  0  0
 11 13  1  0  0  0  0
 11 19  1  0  0  0  0
 12 35  1  0  0  0  0
 13 14  1  0  0  0  0
 14 15  1  6  0  0  0
 14 16  1  0  0  0  0
 16  2  1  1  0  0  0
 16 17  1  0  0  0  0
 17 18  1  6  0  0  0
 17 19  1  0  0  0  0
 19 20  1  1  0  0  0
 21 20  1  6  0  0  0
 21 22  1  0  0  0  0
 21 29  1  0  0  0  0
 22 23  1  6  0  0  0
 22 24  1  0  0  0  0
 24 25  1  1  0  0  0
 24 26  1  0  0  0  0
 26 27  1  6  0  0  0
 26 28  1  0  0  0  0
 28 29  1  0  0  0  0
 28 30  1  1  0  0  0
 30 31  1  0  0  0  0
 34 39  1  0  0  0  0
 35 36  2  0  0  0  0
 37 35  1  1  0  0  0
 37 38  1  0  0  0  0
 37 40  1  0  0  0  0
 38 39  1  0  0  0  0
M  END
>  <CHROM.1>
-120.75112188,-8.75481753,54.15640008,-70.11758948,-106.09582044,-130.71544971
81.68617320,-78.37299558,53.51074279,-175.73023124,22.92185108,9.01941630
2.91819635,2.32027917,-0.52910344,0.57884640

>  <Name>
2g5q_lig

>  <RI>
224

>  <Rbt.Current_Directory>
/home/itssahil/PROJECTS/Mol_Feturizer/New_Systems/rnas/2g5q

>  <Rbt.Executable>
rbdock ($Id: //depot/dev/client3/rdock/2013.1/src/exe/rbdock.cxx#4 $)

>  <Rbt.Library>
libRbt.so (2013.1, Build901 2013/11/27)

>  <Rbt.Parameter_File>
/export/apps/rDock/src/rDock_2013.1_src/data/scripts/dock_solv.prm

>  <Rbt.Receptor>
prm/blind_docking_60.prm

>  <SCORE>
50.6761

>  <SCORE.INTER>
23.4454

>  <SCORE.INTER.CONST>
1

>  <SCORE.INTER.POLAR>
-0.959166

>  <SCORE.INTER.ROT>
10

>  <SCORE.INTER.SOLV>
26.3888

>  <SCORE.INTER.VDW>
-0.235453

>  <SCORE.INTER.norm>
0.586135

>  <SCORE.INTRA>
8.65289

>  <SCORE.INTRA.DIHEDRAL>
5.97024

>  <SCORE.INTRA.DIHEDRAL.0>
22.5778

>  <SCORE.INTRA.POLAR>
0

>  <SCORE.INTRA.POLAR.0>
0

>  <SCORE.INTRA.REPUL>
0

>  <SCORE.INTRA.REPUL.0>
0

>  <SCORE.INTRA.SOLV>
8.34907

>  <SCORE.INTRA.SOLV.lig_0>
-102.332

>  <SCORE.INTRA.VDW>
1.49324

>  <SCORE.INTRA.VDW.0>
-5.08747

>  <SCORE.INTRA.norm>
0.216322

>  <SCORE.RESTR>
18.5778

>  <SCORE.RESTR.CAVITY>
18.5778

>  <SCORE.RESTR.norm>
0.464445

>  <SCORE.SYSTEM>
0

>  <SCORE.SYSTEM.CONST>
0

>  <SCORE.SYSTEM.DIHEDRAL>
0

>  <SCORE.SYSTEM.SOLV>
0

>  <SCORE.SYSTEM.norm>
0

>  <SCORE.heavy>
40

>  <SCORE.norm>
1.2669

>  <RMSD>
32.915

$$$$
2g5q_lig
 OpenBabel11021811433D
libRbt.so/2013.1/901 2013/11/27
 40 42  0  0  0  0  0  0  0  0999 V2000
   19.8546   12.7053    2.5167 C   0  0  2  0  0  0  0  0  0  0  0  0
   20.8067   11.7425    2.9120 O   0  0  0  0  0  0  0  0  0  0  0  0
   20.5228   14.1116    2.5411 C   0  0  1  0  0  0  0  0  0  0  0  0
   20.8942   14.5542    3.9902 C   0  0  2  0  0  0  0  0  0  0  0  0
   19.5888   14.5814    4.8269 C   0  0  2  0  0  0  0  0  0  0  0  0
   19.8863   15.0080    6.1663 O   0  0  0  0  0  0  0  0  0  0  0  0
   18.9628   13.1281    4.8170 C   0  0  2  0  0  0  0  0  0  0  0  0
   18.6714   12.7073    3.4167 O   0  0  0  0  0  0  0  0  0  0  0  0
   17.6591   13.0418    5.6036 C   0  0  0  0  0  0  0  0  0  0  0  0
   16.6259   13.9932    5.0847 N   0  0  0  0  0  0  0  0  0  0  0  0
   22.5044    8.6942    0.2846 C   0  0  2  0  0  0  0  0  0  0  0  0
   23.3674    8.0355   -0.6885 N   0  0  0  0  0  0  0  0  0  0  0  0
   21.8056    9.9591   -0.3693 C   0  0  0  0  0  0  0  0  0  0  0  0
   20.8640   10.6716    0.6796 C   0  0  2  0  0  0  0  0  0  0  0  0
   20.2064   11.8491    0.0509 N   0  0  0  0  0  0  0  0  0  0  0  0
   21.7097   11.0931    1.9466 C   0  0  2  0  0  0  0  0  0  0  0  0
   22.3925    9.8100    2.5666 C   0  0  2  0  0  0  0  0  0  0  0  0
   23.1627   10.1949    3.7097 O   0  0  0  0  0  0  0  0  0  0  0  0
   23.3389    9.1238    1.5090 C   0  0  1  0  0  0  0  0  0  0  0  0
   23.9568    7.9355    2.0786 O   0  0  0  0  0  0  0  0  0  0  0  0
   23.2503    6.9237    2.7533 C   0  0  2  0  0  0  0  0  0  0  0  0
   24.3019    5.8935    3.2881 C   0  0  2  0  0  0  0  0  0  0  0  0
   25.1818    6.5347    4.1547 O   0  0  0  0  0  0  0  0  0  0  0  0
   25.0795    5.2064    2.1024 C   0  0  1  0  0  0  0  0  0  0  0  0
   26.0863    4.2141    2.6045 N   0  0  0  0  0  0  0  0  0  0  0  0
   24.0246    4.5051    1.1575 C   0  0  2  0  0  0  0  0  0  0  0  0
   24.6736    3.8554    0.0625 O   0  0  0  0  0  0  0  0  0  0  0  0
   23.0070    5.5852    0.6570 C   0  0  2  0  0  0  0  0  0  0  0  0
   22.3270    6.2620    1.8143 O   0  0  0  0  0  0  0  0  0  0  0  0
   21.9501    4.9870   -0.2255 C   0  0  0  0  0  0  0  0  0  0  0  0
   20.8957    4.3952    0.5510 O   0  0  0  0  0  0  0  0  0  0  0  0
   21.7119   14.0730    1.6793 O   0  0  0  0  0  0  0  0  0  0  0  0
   21.4676   15.8061    3.9541 O   0  0  0  0  0  0  0  0  0  0  0  0
   23.8264    2.8300   -2.5501 N   0  0  0  0  0  0  0  0  0  0  0  0
   22.9284    7.2659   -1.7568 C   0  0  0  0  0  0  0  0  0  0  0  0
   21.7472    7.0448   -2.0004 O   0  0  0  0  0  0  0  0  0  0  0  0
   24.0970    6.7026   -2.5979 C   0  0  1  0  0  0  0  0  0  0  0  0
   24.3611    5.2317   -2.2173 C   0  0  0  0  0  0  0  0  0  0  0  0
   23.4086    4.2013   -2.8347 C   0  0  0  0  0  0  0  0  0  0  0  0
   23.7709    6.8222   -4.0010 O   0  0  0  0  0  0  0  0  0  0  0  0
  1  2  1  1  0  0  0
  1  3  1  0  0  0  0
  1  8  1  0  0  0  0
  3  4  1  0  0  0  0
  3 32  1  6  0  0  0
  4  5  1  0  0  0  0
  4 33  1  6  0  0  0
  5  6  1  1  0  0  0
  5  7  1  0  0  0  0
  7  8  1  0  0  0  0
  7  9  1  1  0  0  0
  9 10  1  0  0  0  0
 11 12  1  6  0  0  0
 11 13  1  0  0  0  0
 11 19  1  0  0  0  0
 12 35  1  0  0  0  0
 13 14  1  0  0  0  0
 14 15  1  6  0  0  0
 14 16  1  0  0  0  0
 16  2  1  1  0  0  0
 16 17  1  0  0  0  0
 17 18  1  1  0  0  0
 17 19  1  0  0  0  0
 19 20  1  1  0  0  0
 21 20  1  6  0  0  0
 21 22  1  0  0  0  0
 21 29  1  0  0  0  0
 22 23  1  1  0  0  0
 22 24  1  0  0  0  0
 24 25  1  1  0  0  0
 24 26  1  0  0  0  0
 26 27  1  6  0  0  0
 26 28  1  0  0  0  0
 28 29  1  0  0  0  0
 28 30  1  6  0  0  0
 30 31  1  0  0  0  0
 34 39  1  0  0  0  0
 35 36  2  0  0  0  0
 37 35  1  1  0  0  0
 37 38  1  0  0  0  0
 37 40  1  0  0  0  0
 38 39  1  0  0  0  0
M  END
>  <CHROM.1>
-88.15859101,57.95037595,-73.77639193,-44.75181455,-70.12449863,-176.00607609
82.39843305,100.21109443,79.45218159,173.21810038,22.12066227,9.04008046
1.51884484,2.44514611,-1.05028086,1.28674394

>  <Name>
2g5q_lig

>  <RI>
224

>  <Rbt.Current_Directory>
/home/itssahil/PROJECTS/Mol_Feturizer/New_Systems/rnas/2g5q

>  <Rbt.Executable>
rbdock ($Id: //depot/dev/client3/rdock/2013.1/src/exe/rbdock.cxx#4 $)

>  <Rbt.Library>
libRbt.so (2013.1, Build901 2013/11/27)

>  <Rbt.Parameter_File>
/export/apps/rDock/src/rDock_2013.1_src/data/scripts/dock_solv.prm

>  <Rbt.Receptor>
prm/blind_docking_60.prm

>  <SCORE>
14.4876

>  <SCORE.INTER>
-1.40117

>  <SCORE.INTER.CONST>
1

>  <SCORE.INTER.POLAR>
-1.15538

>  <SCORE.INTER.ROT>
10

>  <SCORE.INTER.SOLV>
26.1887

>  <SCORE.INTER.VDW>
-16.0791

>  <SCORE.INTER.norm>
-0.0350292

>  <SCORE.INTRA>
1.86268

>  <SCORE.INTRA.DIHEDRAL>
-12.406

>  <SCORE.INTRA.DIHEDRAL.0>
22.5778

>  <SCORE.INTRA.POLAR>
0

>  <SCORE.INTRA.POLAR.0>
0

>  <SCORE.INTRA.REPUL>
0

>  <SCORE.INTRA.REPUL.0>
0

>  <SCORE.INTRA.SOLV>
7.34833

>  <SCORE.INTRA.SOLV.lig_0>
-102.332

>  <SCORE.INTRA.VDW>
4.39154

>  <SCORE.INTRA.VDW.0>
-5.08747

>  <SCORE.INTRA.norm>
0.046567

>  <SCORE.RESTR>
14.0261

>  <SCORE.RESTR.CAVITY>
14.0261

>  <SCORE.RESTR.norm>
0.350652

>  <SCORE.SYSTEM>
0

>  <SCORE.SYSTEM.CONST>
0

>  <SCORE.SYSTEM.DIHEDRAL>
0

>  <SCORE.SYSTEM.SOLV>
0

>  <SCORE.SYSTEM.norm>
0

>  <SCORE.heavy>
40

>  <SCORE.norm>
0.362189

>  <RMSD>
32.927

$$$$
2g5q_lig
 OpenBabel11021811433D
libRbt.so/2013.1/901 2013/11/27
 40 42  0  0  0  0  0  0  0  0999 V2000
   20.5778   12.2900    3.9270 C   0  0  2  0  0  0  0  0  0  0  0  0
   20.6360   12.4990    2.5333 O   0  0  0  0  0  0  0  0  0  0  0  0
   19.0912   12.3656    4.3843 C   0  0  1  0  0  0  0  0  0  0  0  0
   18.5030   13.8007    4.2160 C   0  0  2  0  0  0  0  0  0  0  0  0
   19.3622   14.7685    5.0704 C   0  0  2  0  0  0  0  0  0  0  0  0
   18.8368   16.1012    4.9599 O   0  0  0  0  0  0  0  0  0  0  0  0
   20.8546   14.6988    4.5489 C   0  0  2  0  0  0  0  0  0  0  0  0
   21.3721   13.3056    4.6670 O   0  0  0  0  0  0  0  0  0  0  0  0
   21.7965   15.6070    5.3323 C   0  0  0  0  0  0  0  0  0  0  0  0
   21.1907   16.9503    5.5970 N   0  0  0  0  0  0  0  0  0  0  0  0
   22.3235    9.2081    0.2096 C   0  0  2  0  0  0  0  0  0  0  0  0
   23.2063    8.4469   -0.6662 N   0  0  0  0  0  0  0  0  0  0  0  0
   21.7299   10.4596   -0.5633 C   0  0  0  0  0  0  0  0  0  0  0  0
   20.7671   11.2832    0.3797 C   0  0  2  0  0  0  0  0  0  0  0  0
   20.2087   12.4472   -0.3601 N   0  0  0  0  0  0  0  0  0  0  0  0
   21.5587   11.7456    1.6672 C   0  0  2  0  0  0  0  0  0  0  0  0
   22.1374   10.4746    2.4064 C   0  0  2  0  0  0  0  0  0  0  0  0
   22.8589   10.8960    3.5682 O   0  0  0  0  0  0  0  0  0  0  0  0
   23.1067    9.6764    1.4535 C   0  0  1  0  0  0  0  0  0  0  0  0
   23.6286    8.4996    2.1327 O   0  0  0  0  0  0  0  0  0  0  0  0
   22.8368    7.5861    2.8514 C   0  0  2  0  0  0  0  0  0  0  0  0
   23.8067    6.5860    3.5673 C   0  0  2  0  0  0  0  0  0  0  0  0
   24.6452    7.2875    4.4283 O   0  0  0  0  0  0  0  0  0  0  0  0
   24.6415    5.7551    2.5207 C   0  0  1  0  0  0  0  0  0  0  0  0
   25.5706    4.7908    3.1968 N   0  0  0  0  0  0  0  0  0  0  0  0
   23.6321    4.9911    1.5749 C   0  0  2  0  0  0  0  0  0  0  0  0
   24.3335    4.2108    0.6047 O   0  0  0  0  0  0  0  0  0  0  0  0
   22.6955    6.0433    0.8905 C   0  0  2  0  0  0  0  0  0  0  0  0
   21.9596    6.8581    1.9174 O   0  0  0  0  0  0  0  0  0  0  0  0
   21.6834    5.3884   -0.0041 C   0  0  0  0  0  0  0  0  0  0  0  0
   20.9793    4.3413    0.6834 O   0  0  0  0  0  0  0  0  0  0  0  0
   18.3193   11.3841    3.6103 O   0  0  0  0  0  0  0  0  0  0  0  0
   17.1946   13.8129    4.6466 O   0  0  0  0  0  0  0  0  0  0  0  0
   23.2821    4.0659   -3.6427 N   0  0  0  0  0  0  0  0  0  0  0  0
   22.7900    7.5399   -1.6307 C   0  0  0  0  0  0  0  0  0  0  0  0
   21.6151    7.2682   -1.8520 O   0  0  0  0  0  0  0  0  0  0  0  0
   23.9756    6.8956   -2.3856 C   0  0  1  0  0  0  0  0  0  0  0  0
   24.2417    5.4780   -1.8400 C   0  0  0  0  0  0  0  0  0  0  0  0
   23.2106    4.4105   -2.2242 C   0  0  0  0  0  0  0  0  0  0  0  0
   23.6719    6.8564   -3.7982 O   0  0  0  0  0  0  0  0  0  0  0  0
  1  2  1  6  0  0  0
  1  3  1  0  0  0  0
  1  8  1  0  0  0  0
  3  4  1  0  0  0  0
  3 32  1  6  0  0  0
  4  5  1  0  0  0  0
  4 33  1  1  0  0  0
  5  6  1  6  0  0  0
  5  7  1  0  0  0  0
  7  8  1  0  0  0  0
  7  9  1  1  0  0  0
  9 10  1  0  0  0  0
 11 12  1  6  0  0  0
 11 13  1  0  0  0  0
 11 19  1  0  0  0  0
 12 35  1  0  0  0  0
 13 14  1  0  0  0  0
 14 15  1  6  0  0  0
 14 16  1  0  0  0  0
 16  2  1  1  0  0  0
 16 17  1  0  0  0  0
 17 18  1  1  0  0  0
 17 19  1  0  0  0  0
 19 20  1  1  0  0  0
 21 20  1  6  0  0  0
 21 22  1  0  0  0  0
 21 29  1  0  0  0  0
 22 23  1  1  0  0  0
 22 24  1  0  0  0  0
 24 25  1  1  0  0  0
 24 26  1  0  0  0  0
 26 27  1  6  0  0  0
 26 28  1  0  0  0  0
 28 29  1  0  0  0  0
 28 30  1  6  0  0  0
 30 31  1  0  0  0  0
 34 39  1  0  0  0  0
 35 36  2  0  0  0  0
 37 35  1  1  0  0  0
 37 38  1  0  0  0  0
 37 40  1  0  0  0  0
 38 39  1  0  0  0  0
M  END
>  <CHROM.1>
-141.12218906,-43.05168770,-79.86040987,135.50188273,-71.70217006,-172.87489396
51.38037676,101.44074313,72.64119343,70.31010310,21.95137510,9.42321953,1.72919202
-2.26150150,1.02201325,-2.00985932

>  <Name>
2g5q_lig

>  <RI>
224

>  <Rbt.Current_Directory>
/home/itssahil/PROJECTS/Mol_Feturizer/New_Systems/rnas/2g5q

>  <Rbt.Executable>
rbdock ($Id: //depot/dev/client3/rdock/2013.1/src/exe/rbdock.cxx#4 $)

>  <Rbt.Library>
libRbt.so (2013.1, Build901 2013/11/27)

>  <Rbt.Parameter_File>
/export/apps/rDock/src/rDock_2013.1_src/data/scripts/dock_solv.prm

>  <Rbt.Receptor>
prm/blind_docking_60.prm

>  <SCORE>
14.8233

>  <SCORE.INTER>
-4.74308

>  <SCORE.INTER.CONST>
1

>  <SCORE.INTER.POLAR>
-0.631108

>  <SCORE.INTER.ROT>
10

>  <SCORE.INTER.SOLV>
24.6611

>  <SCORE.INTER.VDW>
-19.5454

>  <SCORE.INTER.norm>
-0.118577

>  <SCORE.INTRA>
6.07204

>  <SCORE.INTRA.DIHEDRAL>
-5.79646

>  <SCORE.INTRA.DIHEDRAL.0>
22.5778

>  <SCORE.INTRA.POLAR>
0

>  <SCORE.INTRA.POLAR.0>
0

>  <SCORE.INTRA.REPUL>
0

>  <SCORE.INTRA.REPUL.0>
0

>  <SCORE.INTRA.SOLV>
5.23805

>  <SCORE.INTRA.SOLV.lig_0>
-102.332

>  <SCORE.INTRA.VDW>
6.35124

>  <SCORE.INTRA.VDW.0>
-5.08747

>  <SCORE.INTRA.norm>
0.151801

>  <SCORE.RESTR>
13.4944

>  <SCORE.RESTR.CAVITY>
13.4944

>  <SCORE.RESTR.norm>
0.337359

>  <SCORE.SYSTEM>
0

>  <SCORE.SYSTEM.CONST>
0

>  <SCORE.SYSTEM.DIHEDRAL>
0

>  <SCORE.SYSTEM.SOLV>
0

>  <SCORE.SYSTEM.norm>
0

>  <SCORE.heavy>
40

>  <SCORE.norm>
0.370583

>  <RMSD>
32.942

$$$$
2g5q_lig
 OpenBabel11021811433D
libRbt.so/2013.1/901 2013/11/27
 40 42  0  0  0  0  0  0  0  0999 V2000
   19.6382   11.8640    3.2158 C   0  0  2  0  0  0  0  0  0  0  0  0
   20.7738   11.0330    3.3124 O   0  0  0  0  0  0  0  0  0  0  0  0
   19.9359   13.0047    2.1985 C   0  0  1  0  0  0  0  0  0  0  0  0
   21.0417   13.9743    2.7188 C   0  0  2  0  0  0  0  0  0  0  0  0
   20.5473   14.5833    4.0565 C   0  0  2  0  0  0  0  0  0  0  0  0
   21.5312   15.5025    4.5579 O   0  0  0  0  0  0  0  0  0  0  0  0
   20.2987   13.4007    5.0781 C   0  0  2  0  0  0  0  0  0  0  0  0
   19.2810   12.4587    4.5307 O   0  0  0  0  0  0  0  0  0  0  0  0
   19.7934   13.8870    6.4323 C   0  0  0  0  0  0  0  0  0  0  0  0
   20.7105   14.9008    7.0430 N   0  0  0  0  0  0  0  0  0  0  0  0
   21.6644    7.4395    0.9949 C   0  0  2  0  0  0  0  0  0  0  0  0
   22.0707    6.5700   -0.1027 N   0  0  0  0  0  0  0  0  0  0  0  0
   20.4411    8.3468    0.5522 C   0  0  0  0  0  0  0  0  0  0  0  0
   19.9931    9.2854    1.7408 C   0  0  2  0  0  0  0  0  0  0  0  0
   18.8386   10.1227    1.3165 N   0  0  0  0  0  0  0  0  0  0  0  0
   21.2148   10.1783    2.1970 C   0  0  2  0  0  0  0  0  0  0  0  0
   22.4127    9.2412    2.6255 C   0  0  2  0  0  0  0  0  0  0  0  0
   23.5198   10.0518    3.0321 O   0  0  0  0  0  0  0  0  0  0  0  0
   22.8538    8.3248    1.4211 C   0  0  1  0  0  0  0  0  0  0  0  0
   23.9490    7.4542    1.8221 O   0  0  0  0  0  0  0  0  0  0  0  0
   23.8700    6.5147    2.8658 C   0  0  2  0  0  0  0  0  0  0  0  0
   24.7245    7.0643    4.0578 C   0  0  2  0  0  0  0  0  0  0  0  0
   24.2147    8.2925    4.4678 O   0  0  0  0  0  0  0  0  0  0  0  0
   26.2436    7.1896    3.6589 C   0  0  1  0  0  0  0  0  0  0  0  0
   27.0714    7.7111    4.7960 N   0  0  0  0  0  0  0  0  0  0  0  0
   26.7553    5.7666    3.1998 C   0  0  2  0  0  0  0  0  0  0  0  0
   28.1350    5.8155    2.8310 O   0  0  0  0  0  0  0  0  0  0  0  0
   25.8643    5.2761    2.0090 C   0  0  2  0  0  0  0  0  0  0  0  0
   24.4152    5.2250    2.4056 O   0  0  0  0  0  0  0  0  0  0  0  0
   26.2710    3.9107    1.5356 C   0  0  0  0  0  0  0  0  0  0  0  0
   26.3841    2.9902    2.6332 O   0  0  0  0  0  0  0  0  0  0  0  0
   20.3272   12.3939    0.9210 O   0  0  0  0  0  0  0  0  0  0  0  0
   21.2546   14.9677    1.7886 O   0  0  0  0  0  0  0  0  0  0  0  0
   24.3557    3.0113   -2.9452 N   0  0  0  0  0  0  0  0  0  0  0  0
   23.0300    6.8796   -1.0567 C   0  0  0  0  0  0  0  0  0  0  0  0
   23.6470    7.9387   -1.0872 O   0  0  0  0  0  0  0  0  0  0  0  0
   23.2228    5.7453   -2.0894 C   0  0  1  0  0  0  0  0  0  0  0  0
   22.9389    4.3790   -1.4330 C   0  0  0  0  0  0  0  0  0  0  0  0
   23.0244    3.1620   -2.3614 C   0  0  0  0  0  0  0  0  0  0  0  0
   22.3406    5.9721   -3.2117 O   0  0  0  0  0  0  0  0  0  0  0  0
  1  2  1  1  0  0  0
  1  3  1  0  0  0  0
  1  8  1  0  0  0  0
  3  4  1  0  0  0  0
  3 32  1  6  0  0  0
  4  5  1  0  0  0  0
  4 33  1  6  0  0  0
  5  6  1  1  0  0  0
  5  7  1  0  0  0  0
  7  8  1  0  0  0  0
  7  9  1  1  0  0  0
  9 10  1  0  0  0  0
 11 12  1  6  0  0  0
 11 13  1  0  0  0  0
 11 19  1  0  0  0  0
 12 35  1  0  0  0  0
 13 14  1  0  0  0  0
 14 15  1  6  0  0  0
 14 16  1  0  0  0  0
 16  2  1  1  0  0  0
 16 17  1  0  0  0  0
 17 18  1  6  0  0  0
 17 19  1  0  0  0  0
 19 20  1  1  0  0  0
 21 20  1  6  0  0  0
 21 22  1  0  0  0  0
 21 29  1  0  0  0  0
 22 23  1  6  0  0  0
 22 24  1  0  0  0  0
 24 25  1  1  0  0  0
 24 26  1  0  0  0  0
 26 27  1  6  0  0  0
 26 28  1  0  0  0  0
 28 29  1  0  0  0  0
 28 30  1  1  0  0  0
 30 31  1  0  0  0  0
 34 39  1  0  0  0  0
 35 36  2  0  0  0  0
 37 35  1  1  0  0  0
 37 38  1  0  0  0  0
 37 40  1  0  0  0  0
 38 39  1  0  0  0  0
M  END
>  <CHROM.1>
-68.17856813,-55.50183529,91.05151958,-53.65955879,-59.61208453,-107.84961101
49.72211195,-30.48601385,177.09950360,60.62617740,22.73503945,8.80816084
2.04634679,2.16629977,-0.71960230,0.81486132

>  <Name>
2g5q_lig

>  <RI>
224

>  <Rbt.Current_Directory>
/home/itssahil/PROJECTS/Mol_Feturizer/New_Systems/rnas/2g5q

>  <Rbt.Executable>
rbdock ($Id: //depot/dev/client3/rdock/2013.1/src/exe/rbdock.cxx#4 $)

>  <Rbt.Library>
libRbt.so (2013.1, Build901 2013/11/27)

>  <Rbt.Parameter_File>
/export/apps/rDock/src/rDock_2013.1_src/data/scripts/dock_solv.prm

>  <Rbt.Receptor>
prm/blind_docking_60.prm

>  <SCORE>
10.8246

>  <SCORE.INTER>
-5.80686

>  <SCORE.INTER.CONST>
1

>  <SCORE.INTER.POLAR>
-0.862215

>  <SCORE.INTER.ROT>
10

>  <SCORE.INTER.SOLV>
28.7135

>  <SCORE.INTER.VDW>
-20.835

>  <SCORE.INTER.norm>
-0.145171

>  <SCORE.INTRA>
1.80534

>  <SCORE.INTRA.DIHEDRAL>
-12.8209

>  <SCORE.INTRA.DIHEDRAL.0>
22.5778

>  <SCORE.INTRA.POLAR>
0

>  <SCORE.INTRA.POLAR.0>
0

>  <SCORE.INTRA.REPUL>
0

>  <SCORE.INTRA.REPUL.0>
0

>  <SCORE.INTRA.SOLV>
5.68738

>  <SCORE.INTRA.SOLV.lig_0>
-102.332

>  <SCORE.INTRA.VDW>
5.3721

>  <SCORE.INTRA.VDW.0>
-5.08747

>  <SCORE.INTRA.norm>
0.0451334

>  <SCORE.RESTR>
14.8261

>  <SCORE.RESTR.CAVITY>
14.8261

>  <SCORE.RESTR.norm>
0.370653

>  <SCORE.SYSTEM>
0

>  <SCORE.SYSTEM.CONST>
0

>  <SCORE.SYSTEM.DIHEDRAL>
0

>  <SCORE.SYSTEM.SOLV>
0

>  <SCORE.SYSTEM.norm>
0

>  <SCORE.heavy>
40

>  <SCORE.norm>
0.270615

>  <RMSD>
32.946

$$$$
2g5q_lig
 OpenBabel11021811433D
libRbt.so/2013.1/901 2013/11/27
 40 42  0  0  0  0  0  0  0  0999 V2000
   22.5352    3.2407   -1.9313 C   0  0  2  0  0  0  0  0  0  0  0  0
   21.6578    4.2079   -2.4644 O   0  0  0  0  0  0  0  0  0  0  0  0
   22.6123    2.0362   -2.9153 C   0  0  1  0  0  0  0  0  0  0  0  0
   21.2554    1.2720   -3.0070 C   0  0  2  0  0  0  0  0  0  0  0  0
   20.9006    0.7635   -1.5856 C   0  0  2  0  0  0  0  0  0  0  0  0
   19.6647    0.0322   -1.6323 O   0  0  0  0  0  0  0  0  0  0  0  0
   20.7864    2.0156   -0.6248 C   0  0  2  0  0  0  0  0  0  0  0  0
   22.0779    2.7602   -0.6008 O   0  0  0  0  0  0  0  0  0  0  0  0
   20.4523    1.6285    0.8119 C   0  0  0  0  0  0  0  0  0  0  0  0
   19.1314    0.9310    0.9131 N   0  0  0  0  0  0  0  0  0  0  0  0
   23.2089    8.0990   -1.2271 C   0  0  2  0  0  0  0  0  0  0  0  0
   23.2618    9.4965   -0.8147 N   0  0  0  0  0  0  0  0  0  0  0  0
   22.5177    7.9724   -2.6491 C   0  0  0  0  0  0  0  0  0  0  0  0
   22.4648    6.4605   -3.1030 C   0  0  2  0  0  0  0  0  0  0  0  0
   21.8248    6.3567   -4.4423 N   0  0  0  0  0  0  0  0  0  0  0  0
   21.6813    5.6129   -2.0234 C   0  0  2  0  0  0  0  0  0  0  0  0
   22.3955    5.7672   -0.6223 C   0  0  2  0  0  0  0  0  0  0  0  0
   21.6807    5.0040    0.3548 O   0  0  0  0  0  0  0  0  0  0  0  0
   22.4236    7.2804   -0.1815 C   0  0  1  0  0  0  0  0  0  0  0  0
   23.0929    7.4210    1.1032 O   0  0  0  0  0  0  0  0  0  0  0  0
   22.8366    6.6067    2.2210 C   0  0  2  0  0  0  0  0  0  0  0  0
   23.0136    7.4946    3.4991 C   0  0  2  0  0  0  0  0  0  0  0  0
   22.1169    8.5577    3.4545 O   0  0  0  0  0  0  0  0  0  0  0  0
   24.4957    8.0128    3.6312 C   0  0  1  0  0  0  0  0  0  0  0  0
   24.6766    8.8608    4.8554 N   0  0  0  0  0  0  0  0  0  0  0  0
   25.4580    6.7599    3.6703 C   0  0  2  0  0  0  0  0  0  0  0  0
   26.8216    7.1681    3.7973 O   0  0  0  0  0  0  0  0  0  0  0  0
   25.2343    5.9178    2.3689 C   0  0  2  0  0  0  0  0  0  0  0  0
   23.7985    5.4903    2.2440 O   0  0  0  0  0  0  0  0  0  0  0  0
   26.0951    4.6881    2.3472 C   0  0  0  0  0  0  0  0  0  0  0  0
   26.0401    4.0353    1.0682 O   0  0  0  0  0  0  0  0  0  0  0  0
   23.0244    2.5411   -4.2319 O   0  0  0  0  0  0  0  0  0  0  0  0
   21.3843    0.2125   -3.8777 O   0  0  0  0  0  0  0  0  0  0  0  0
   22.7501   10.9292    2.7515 N   0  0  0  0  0  0  0  0  0  0  0  0
   22.1896   10.3775   -0.8313 C   0  0  0  0  0  0  0  0  0  0  0  0
   21.0624   10.0756   -1.2077 O   0  0  0  0  0  0  0  0  0  0  0  0
   22.5788   11.7900   -0.3376 C   0  0  1  0  0  0  0  0  0  0  0  0
   21.7125   12.1829    0.8763 C   0  0  0  0  0  0  0  0  0  0  0  0
   21.5400   11.1028    1.9505 C   0  0  0  0  0  0  0  0  0  0  0  0
   23.9830   11.8013    0.0049 O   0  0  0  0  0  0  0  0  0  0  0  0
  1  2  1  6  0  0  0
  1  3  1  0  0  0  0
  1  8  1  0  0  0  0
  3  4  1  0  0  0  0
  3 32  1  6  0  0  0
  4  5  1  0  0  0  0
  4 33  1  6  0  0  0
  5  6  1  6  0  0  0
  5  7  1  0  0  0  0
  7  8  1  0  0  0  0
  7  9  1  1  0  0  0
  9 10  1  0  0  0  0
 11 12  1  1  0  0  0
 11 13  1  0  0  0  0
 11 19  1  0  0  0  0
 12 35  1  0  0  0  0
 13 14  1  0  0  0  0
 14 15  1  6  0  0  0
 14 16  1  0  0  0  0
 16  2  1  6  0  0  0
 16 17  1  0  0  0  0
 17 18  1  1  0  0  0
 17 19  1  0  0  0  0
 19 20  1  1  0  0  0
 21 20  1  6  0  0  0
 21 22  1  0  0  0  0
 21 29  1  0  0  0  0
 22 23  1  6  0  0  0
 22 24  1  0  0  0  0
 24 25  1  1  0  0  0
 24 26  1  0  0  0  0
 26 27  1  6  0  0  0
 26 28  1  0  0  0  0
 28 29  1  0  0  0  0
 28 30  1  1  0  0  0
 30 31  1  0  0  0  0
 34 39  1  0  0  0  0
 35 36  2  0  0  0  0
 37 35  1  1  0  0  0
 37 38  1  0  0  0  0
 37 40  1  0  0  0  0
 38 39  1  0  0  0  0
M  END
>  <CHROM.1>
-160.29001193,-61.40035436,49.63738162,100.76803889,-166.11937243,-146.57341624
-170.99595117,-121.63918752,45.06051541,74.22157789,22.66666352,6.03937839
0.03956482,2.11802297,1.11893833,3.08854673

>  <Name>
2g5q_lig

>  <RI>
0

>  <Rbt.Current_Directory>
/home/itssahil/PROJECTS/Mol_Feturizer/New_Systems/rnas/2g5q

>  <Rbt.Executable>
rbdock ($Id: //depot/dev/client3/rdock/2013.1/src/exe/rbdock.cxx#4 $)

>  <Rbt.Library>
libRbt.so (2013.1, Build901 2013/11/27)

>  <Rbt.Parameter_File>
/export/apps/rDock/src/rDock_2013.1_src/data/scripts/dock_solv.prm

>  <Rbt.Receptor>
prm/blind_docking_40.prm

>  <SCORE>
14.8907

>  <SCORE.INTER>
-3.73348

>  <SCORE.INTER.CONST>
1

>  <SCORE.INTER.POLAR>
-0.741463

>  <SCORE.INTER.ROT>
10

>  <SCORE.INTER.SOLV>
29.9044

>  <SCORE.INTER.VDW>
-20.2522

>  <SCORE.INTER.norm>
-0.093337

>  <SCORE.INTRA>
3.88743

>  <SCORE.INTRA.DIHEDRAL>
-5.82851

>  <SCORE.INTRA.DIHEDRAL.0>
22.5778

>  <SCORE.INTRA.POLAR>
0

>  <SCORE.INTRA.POLAR.0>
0

>  <SCORE.INTRA.REPUL>
0.076268

>  <SCORE.INTRA.REPUL.0>
0

>  <SCORE.INTRA.SOLV>
7.5019

>  <SCORE.INTRA.SOLV.lig_0>
-102.332

>  <SCORE.INTRA.VDW>
2.6694

>  <SCORE.INTRA.VDW.0>
-5.08747

>  <SCORE.INTRA.norm>
0.0971858

>  <SCORE.RESTR>
14.7368

>  <SCORE.RESTR.CAVITY>
14.7368

>  <SCORE.RESTR.norm>
0.36842

>  <SCORE.SYSTEM>
0

>  <SCORE.SYSTEM.CONST>
0

>  <SCORE.SYSTEM.DIHEDRAL>
0

>  <SCORE.SYSTEM.SOLV>
0

>  <SCORE.SYSTEM.norm>
0

>  <SCORE.heavy>
40

>  <SCORE.norm>
0.372269

>  <RMSD>
33.047

$$$$
2g5q_lig
 OpenBabel11021811433D
libRbt.so/2013.1/901 2013/11/27
 40 42  0  0  0  0  0  0  0  0999 V2000
   20.6141   12.7797    4.1253 C   0  0  2  0  0  0  0  0  0  0  0  0
   20.0372   12.0696    3.0517 O   0  0  0  0  0  0  0  0  0  0  0  0
   19.5215   13.0304    5.2061 C   0  0  1  0  0  0  0  0  0  0  0  0
   18.4104   13.9995    4.6963 C   0  0  2  0  0  0  0  0  0  0  0  0
   19.0888   15.3417    4.3181 C   0  0  2  0  0  0  0  0  0  0  0  0
   18.0922   16.2718    3.8641 O   0  0  0  0  0  0  0  0  0  0  0  0
   20.1589   15.0556    3.1879 C   0  0  2  0  0  0  0  0  0  0  0  0
   21.1752   14.0829    3.6816 O   0  0  0  0  0  0  0  0  0  0  0  0
   20.9017   16.3123    2.7467 C   0  0  0  0  0  0  0  0  0  0  0  0
   21.2436   17.1982    3.9043 N   0  0  0  0  0  0  0  0  0  0  0  0
   21.7792    8.9963    0.4832 C   0  0  2  0  0  0  0  0  0  0  0  0
   22.5585    8.3559   -0.5696 N   0  0  0  0  0  0  0  0  0  0  0  0
   20.7389   10.0146   -0.1467 C   0  0  0  0  0  0  0  0  0  0  0  0
   19.8874   10.7055    0.9901 C   0  0  2  0  0  0  0  0  0  0  0  0
   18.9085   11.6492    0.3859 N   0  0  0  0  0  0  0  0  0  0  0  0
   20.8546   11.4461    1.9971 C   0  0  2  0  0  0  0  0  0  0  0  0
   21.8768   10.4024    2.5994 C   0  0  2  0  0  0  0  0  0  0  0  0
   22.7554   11.0763    3.5059 O   0  0  0  0  0  0  0  0  0  0  0  0
   22.7262    9.7366    1.4503 C   0  0  1  0  0  0  0  0  0  0  0  0
   23.6581    8.7670    2.0066 O   0  0  0  0  0  0  0  0  0  0  0  0
   23.3101    7.7935    2.9602 C   0  0  2  0  0  0  0  0  0  0  0  0
   24.5337    7.6204    3.9225 C   0  0  2  0  0  0  0  0  0  0  0  0
   24.8117    8.8341    4.5438 O   0  0  0  0  0  0  0  0  0  0  0  0
   25.7955    7.0821    3.1475 C   0  0  1  0  0  0  0  0  0  0  0  0
   26.9720    6.9086    4.0620 N   0  0  0  0  0  0  0  0  0  0  0  0
   25.4102    5.7105    2.4638 C   0  0  2  0  0  0  0  0  0  0  0  0
   26.5218    5.1671    1.7488 O   0  0  0  0  0  0  0  0  0  0  0  0
   24.1864    5.9512    1.5167 C   0  0  2  0  0  0  0  0  0  0  0  0
   23.0207    6.5203    2.2766 O   0  0  0  0  0  0  0  0  0  0  0  0
   23.7398    4.6819    0.8512 C   0  0  0  0  0  0  0  0  0  0  0  0
   24.7896    4.1156    0.0499 O   0  0  0  0  0  0  0  0  0  0  0  0
   18.9528   11.7337    5.5975 O   0  0  0  0  0  0  0  0  0  0  0  0
   17.4807   14.1957    5.6936 O   0  0  0  0  0  0  0  0  0  0  0  0
   21.3904    4.9946   -3.5156 N   0  0  0  0  0  0  0  0  0  0  0  0
   22.4205    7.0368   -0.9785 C   0  0  0  0  0  0  0  0  0  0  0  0
   21.6201    6.2488   -0.4868 O   0  0  0  0  0  0  0  0  0  0  0  0
   23.4020    6.6651   -2.1137 C   0  0  1  0  0  0  0  0  0  0  0  0
   23.5133    5.1318   -2.2352 C   0  0  0  0  0  0  0  0  0  0  0  0
   22.7615    4.4993   -3.4122 C   0  0  0  0  0  0  0  0  0  0  0  0
   22.9366    7.2486   -3.3516 O   0  0  0  0  0  0  0  0  0  0  0  0
  1  2  1  6  0  0  0
  1  3  1  0  0  0  0
  1  8  1  0  0  0  0
  3  4  1  0  0  0  0
  3 32  1  6  0  0  0
  4  5  1  0  0  0  0
  4 33  1  1  0  0  0
  5  6  1  6  0  0  0
  5  7  1  0  0  0  0
  7  8  1  0  0  0  0
  7  9  1  1  0  0  0
  9 10  1  0  0  0  0
 11 12  1  6  0  0  0
 11 13  1  0  0  0  0
 11 19  1  0  0  0  0
 12 35  1  0  0  0  0
 13 14  1  0  0  0  0
 14 15  1  6  0  0  0
 14 16  1  0  0  0  0
 16  2  1  1  0  0  0
 16 17  1  0  0  0  0
 17 18  1  1  0  0  0
 17 19  1  0  0  0  0
 19 20  1  1  0  0  0
 21 20  1  6  0  0  0
 21 22  1  0  0  0  0
 21 29  1  0  0  0  0
 22 23  1  6  0  0  0
 22 24  1  0  0  0  0
 24 25  1  1  0  0  0
 24 26  1  0  0  0  0
 26 27  1  6  0  0  0
 26 28  1  0  0  0  0
 28 29  1  0  0  0  0
 28 30  1  1  0  0  0
 30 31  1  0  0  0  0
 34 39  1  0  0  0  0
 35 36  2  0  0  0  0
 37 35  1  1  0  0  0
 37 38  1  0  0  0  0
 37 40  1  0  0  0  0
 38 39  1  0  0  0  0
M  END
>  <CHROM.1>
-167.60852470,40.50525919,-107.33545756,178.32970199,-72.61258175,-144.22272014
-60.30279199,162.96284082,103.84698267,-47.67203504,22.06183293,9.63423708
1.87384590,-2.18543614,0.77505072,-2.23303704

>  <Name>
2g5q_lig

>  <RI>
224

>  <Rbt.Current_Directory>
/home/itssahil/PROJECTS/Mol_Feturizer/New_Systems/rnas/2g5q

>  <Rbt.Executable>
rbdock ($Id: //depot/dev/client3/rdock/2013.1/src/exe/rbdock.cxx#4 $)

>  <Rbt.Library>
libRbt.so (2013.1, Build901 2013/11/27)

>  <Rbt.Parameter_File>
/export/apps/rDock/src/rDock_2013.1_src/data/scripts/dock_solv.prm

>  <Rbt.Receptor>
prm/blind_docking_60.prm

>  <SCORE>
14.2754

>  <SCORE.INTER>
-4.29804

>  <SCORE.INTER.CONST>
1

>  <SCORE.INTER.POLAR>
-0.820831

>  <SCORE.INTER.ROT>
10

>  <SCORE.INTER.SOLV>
19.8547

>  <SCORE.INTER.VDW>
-17.0142

>  <SCORE.INTER.norm>
-0.107451

>  <SCORE.INTRA>
0.477618

>  <SCORE.INTRA.DIHEDRAL>
-8.15122

>  <SCORE.INTRA.DIHEDRAL.0>
22.5778

>  <SCORE.INTRA.POLAR>
0

>  <SCORE.INTRA.POLAR.0>
0

>  <SCORE.INTRA.REPUL>
0

>  <SCORE.INTRA.REPUL.0>
0

>  <SCORE.INTRA.SOLV>
5.66303

>  <SCORE.INTRA.SOLV.lig_0>
-102.332

>  <SCORE.INTRA.VDW>
1.72171

>  <SCORE.INTRA.VDW.0>
-5.08747

>  <SCORE.INTRA.norm>
0.0119405

>  <SCORE.RESTR>
18.0958

>  <SCORE.RESTR.CAVITY>
18.0958

>  <SCORE.RESTR.norm>
0.452395

>  <SCORE.SYSTEM>
0

>  <SCORE.SYSTEM.CONST>
0

>  <SCORE.SYSTEM.DIHEDRAL>
0

>  <SCORE.SYSTEM.SOLV>
0

>  <SCORE.SYSTEM.norm>
0

>  <SCORE.heavy>
40

>  <SCORE.norm>
0.356884

>  <RMSD>
33.062

$$$$
2g5q_lig
 OpenBabel11021811433D
libRbt.so/2013.1/901 2013/11/27
 40 42  0  0  0  0  0  0  0  0999 V2000
   19.1771   12.6348    3.2143 C   0  0  2  0  0  0  0  0  0  0  0  0
   20.1050   11.5910    3.4116 O   0  0  0  0  0  0  0  0  0  0  0  0
   19.8418   13.7388    2.3402 C   0  0  1  0  0  0  0  0  0  0  0  0
   21.0156   14.4442    3.0873 C   0  0  2  0  0  0  0  0  0  0  0  0
   20.4417   15.0776    4.3812 C   0  0  2  0  0  0  0  0  0  0  0  0
   21.4908   15.7587    5.0882 O   0  0  0  0  0  0  0  0  0  0  0  0
   19.8160   13.9225    5.2636 C   0  0  2  0  0  0  0  0  0  0  0  0
   18.7370   13.2278    4.5046 O   0  0  0  0  0  0  0  0  0  0  0  0
   19.2057   14.4372    6.5629 C   0  0  0  0  0  0  0  0  0  0  0  0
   20.1918   15.2163    7.3768 N   0  0  0  0  0  0  0  0  0  0  0  0
   21.9651    8.6937    0.7240 C   0  0  2  0  0  0  0  0  0  0  0  0
   22.7393    8.1287   -0.3747 N   0  0  0  0  0  0  0  0  0  0  0  0
   20.8090    9.6218    0.1602 C   0  0  0  0  0  0  0  0  0  0  0  0
   19.9632   10.2304    1.3471 C   0  0  2  0  0  0  0  0  0  0  0  0
   18.8760   11.0894    0.8048 N   0  0  0  0  0  0  0  0  0  0  0  0
   20.9155   11.0461    2.3092 C   0  0  2  0  0  0  0  0  0  0  0  0
   22.0543   10.0913    2.8462 C   0  0  2  0  0  0  0  0  0  0  0  0
   22.9189   10.8336    3.7120 O   0  0  0  0  0  0  0  0  0  0  0  0
   22.8952    9.5077    1.6473 C   0  0  1  0  0  0  0  0  0  0  0  0
   23.9354    8.6191    2.1440 O   0  0  0  0  0  0  0  0  0  0  0  0
   23.7329    7.6417    3.1349 C   0  0  2  0  0  0  0  0  0  0  0  0
   25.0989    7.4300    3.8715 C   0  0  2  0  0  0  0  0  0  0  0  0
   25.5081    8.6296    4.4460 O   0  0  0  0  0  0  0  0  0  0  0  0
   26.1961    6.8738    2.8869 C   0  0  1  0  0  0  0  0  0  0  0  0
   27.5074    6.6632    3.5843 N   0  0  0  0  0  0  0  0  0  0  0  0
   25.6668    5.5194    2.2679 C   0  0  2  0  0  0  0  0  0  0  0  0
   26.6263    4.9608    1.3682 O   0  0  0  0  0  0  0  0  0  0  0  0
   24.3049    5.7987    1.5470 C   0  0  2  0  0  0  0  0  0  0  0  0
   23.3006    6.3837    2.5005 O   0  0  0  0  0  0  0  0  0  0  0  0
   23.7208    4.5478    0.9574 C   0  0  0  0  0  0  0  0  0  0  0  0
   24.6031    3.9697   -0.0184 O   0  0  0  0  0  0  0  0  0  0  0  0
   20.3059   13.1215    1.0906 O   0  0  0  0  0  0  0  0  0  0  0  0
   21.5564   15.4170    2.2756 O   0  0  0  0  0  0  0  0  0  0  0  0
   23.0012    2.8515   -2.9541 N   0  0  0  0  0  0  0  0  0  0  0  0
   22.4406    6.9485   -1.0410 C   0  0  0  0  0  0  0  0  0  0  0  0
   21.4813    6.2345   -0.7703 O   0  0  0  0  0  0  0  0  0  0  0  0
   23.4637    6.6238   -2.1538 C   0  0  1  0  0  0  0  0  0  0  0  0
   23.7255    5.1049   -2.2042 C   0  0  0  0  0  0  0  0  0  0  0  0
   22.6197    4.2581   -2.8448 C   0  0  0  0  0  0  0  0  0  0  0  0
   22.9544    7.1022   -3.4191 O   0  0  0  0  0  0  0  0  0  0  0  0
  1  2  1  1  0  0  0
  1  3  1  0  0  0  0
  1  8  1  0  0  0  0
  3  4  1  0  0  0  0
  3 32  1  6  0  0  0
  4  5  1  0  0  0  0
  4 33  1  6  0  0  0
  5  6  1  1  0  0  0
  5  7  1  0  0  0  0
  7  8  1  0  0  0  0
  7  9  1  1  0  0  0
  9 10  1  0  0  0  0
 11 12  1  6  0  0  0
 11 13  1  0  0  0  0
 11 19  1  0  0  0  0
 12 35  1  0  0  0  0
 13 14  1  0  0  0  0
 14 15  1  6  0  0  0
 14 16  1  0  0  0  0
 16  2  1  1  0  0  0
 16 17  1  0  0  0  0
 17 18  1  1  0  0  0
 17 19  1  0  0  0  0
 19 20  1  1  0  0  0
 21 20  1  6  0  0  0
 21 22  1  0  0  0  0
 21 29  1  0  0  0  0
 22 23  1  6  0  0  0
 22 24  1  0  0  0  0
 24 25  1  1  0  0  0
 24 26  1  0  0  0  0
 26 27  1  6  0  0  0
 26 28  1  0  0  0  0
 28 29  1  0  0  0  0
 28 30  1  1  0  0  0
 30 31  1  0  0  0  0
 34 39  1  0  0  0  0
 35 36  2  0  0  0  0
 37 35  1  1  0  0  0
 37 38  1  0  0  0  0
 37 40  1  0  0  0  0
 38 39  1  0  0  0  0
M  END
>  <CHROM.1>
-45.31156407,-55.64860490,-87.79342202,-70.61948326,-74.68603831,-152.16247367
-60.38846052,142.18743028,75.63894921,175.05904488,22.38426937,9.35616494
1.87859532,2.09234282,-0.73200454,0.84427997

>  <Name>
2g5q_lig

>  <RI>
224

>  <Rbt.Current_Directory>
/home/itssahil/PROJECTS/Mol_Feturizer/New_Systems/rnas/2g5q

>  <Rbt.Executable>
rbdock ($Id: //depot/dev/client3/rdock/2013.1/src/exe/rbdock.cxx#4 $)

>  <Rbt.Library>
libRbt.so (2013.1, Build901 2013/11/27)

>  <Rbt.Parameter_File>
/export/apps/rDock/src/rDock_2013.1_src/data/scripts/dock_solv.prm

>  <Rbt.Receptor>
prm/blind_docking_60.prm

>  <SCORE>
8.54478

>  <SCORE.INTER>
-8.39873

>  <SCORE.INTER.CONST>
1

>  <SCORE.INTER.POLAR>
-1.82403

>  <SCORE.INTER.ROT>
10

>  <SCORE.INTER.SOLV>
23.8624

>  <SCORE.INTER.VDW>
-17.7398

>  <SCORE.INTER.norm>
-0.209968

>  <SCORE.INTRA>
1.45031

>  <SCORE.INTRA.DIHEDRAL>
-13.3575

>  <SCORE.INTRA.DIHEDRAL.0>
22.5778

>  <SCORE.INTRA.POLAR>
0

>  <SCORE.INTRA.POLAR.0>
0

>  <SCORE.INTRA.REPUL>
0

>  <SCORE.INTRA.REPUL.0>
0

>  <SCORE.INTRA.SOLV>
6.00474

>  <SCORE.INTRA.SOLV.lig_0>
-102.332

>  <SCORE.INTRA.VDW>
5.12669

>  <SCORE.INTRA.VDW.0>
-5.08747

>  <SCORE.INTRA.norm>
0.0362578

>  <SCORE.RESTR>
15.4932

>  <SCORE.RESTR.CAVITY>
15.4932

>  <SCORE.RESTR.norm>
0.38733

>  <SCORE.SYSTEM>
0

>  <SCORE.SYSTEM.CONST>
0

>  <SCORE.SYSTEM.DIHEDRAL>
0

>  <SCORE.SYSTEM.SOLV>
0

>  <SCORE.SYSTEM.norm>
0

>  <SCORE.heavy>
40

>  <SCORE.norm>
0.213619

>  <RMSD>
33.073

$$$$
2g5q_lig
 OpenBabel11021811433D
libRbt.so/2013.1/901 2013/11/27
 40 42  0  0  0  0  0  0  0  0999 V2000
   20.7543   12.4441    0.5831 C   0  0  2  0  0  0  0  0  0  0  0  0
   22.1005   12.0334    0.4917 O   0  0  0  0  0  0  0  0  0  0  0  0
   20.6786   13.9776    0.3235 C   0  0  1  0  0  0  0  0  0  0  0  0
   21.3762   14.7944    1.4547 C   0  0  2  0  0  0  0  0  0  0  0  0
   20.6665   14.4552    2.7912 C   0  0  2  0  0  0  0  0  0  0  0  0
   21.2671   15.2077    3.8577 O   0  0  0  0  0  0  0  0  0  0  0  0
   20.8025   12.8991    3.0442 C   0  0  2  0  0  0  0  0  0  0  0  0
   20.1792   12.1429    1.9206 O   0  0  0  0  0  0  0  0  0  0  0  0
   20.1236   12.4492    4.3334 C   0  0  0  0  0  0  0  0  0  0  0  0
   20.4637   13.3400    5.4878 N   0  0  0  0  0  0  0  0  0  0  0  0
   23.6036    7.9541    0.9129 C   0  0  2  0  0  0  0  0  0  0  0  0
   24.1098    6.7241    1.5101 N   0  0  0  0  0  0  0  0  0  0  0  0
   24.5804    9.1620    1.2335 C   0  0  0  0  0  0  0  0  0  0  0  0
   24.0395   10.4953    0.5822 C   0  0  2  0  0  0  0  0  0  0  0  0
   24.9699   11.6175    0.8807 N   0  0  0  0  0  0  0  0  0  0  0  0
   22.5849   10.7942    1.1233 C   0  0  2  0  0  0  0  0  0  0  0  0
   21.6439    9.5694    0.7898 C   0  0  2  0  0  0  0  0  0  0  0  0
   20.3292    9.8395    1.2861 O   0  0  0  0  0  0  0  0  0  0  0  0
   22.1932    8.2533    1.4616 C   0  0  1  0  0  0  0  0  0  0  0  0
   21.3315    7.1246    1.1426 O   0  0  0  0  0  0  0  0  0  0  0  0
   20.7435    6.9105   -0.1171 C   0  0  2  0  0  0  0  0  0  0  0  0
   20.2716    5.4179   -0.1673 C   0  0  2  0  0  0  0  0  0  0  0  0
   19.3476    5.1881    0.8475 O   0  0  0  0  0  0  0  0  0  0  0  0
   21.4938    4.4304   -0.0507 C   0  0  1  0  0  0  0  0  0  0  0  0
   21.0524    2.9976   -0.1025 N   0  0  0  0  0  0  0  0  0  0  0  0
   22.5028    4.7486   -1.2246 C   0  0  2  0  0  0  0  0  0  0  0  0
   23.6335    3.8762   -1.1756 O   0  0  0  0  0  0  0  0  0  0  0  0
   22.9363    6.2496   -1.1171 C   0  0  2  0  0  0  0  0  0  0  0  0
   21.7418    7.1607   -1.1720 O   0  0  0  0  0  0  0  0  0  0  0  0
   23.8755    6.6379   -2.2220 C   0  0  0  0  0  0  0  0  0  0  0  0
   24.9555    5.6979   -2.3433 O   0  0  0  0  0  0  0  0  0  0  0  0
   21.2901   14.2556   -0.9830 O   0  0  0  0  0  0  0  0  0  0  0  0
   21.2678   16.1402    1.1816 O   0  0  0  0  0  0  0  0  0  0  0  0
   27.5232    3.7056    3.8883 N   0  0  0  0  0  0  0  0  0  0  0  0
   24.1380    6.4464    2.8696 C   0  0  0  0  0  0  0  0  0  0  0  0
   23.7409    7.2203    3.7338 O   0  0  0  0  0  0  0  0  0  0  0  0
   24.7430    5.0569    3.1757 C   0  0  1  0  0  0  0  0  0  0  0  0
   25.9802    4.8120    2.2884 C   0  0  0  0  0  0  0  0  0  0  0  0
   26.8051    3.5640    2.6233 C   0  0  0  0  0  0  0  0  0  0  0  0
   25.0914    4.9908    4.5770 O   0  0  0  0  0  0  0  0  0  0  0  0
  1  2  1  1  0  0  0
  1  3  1  0  0  0  0
  1  8  1  0  0  0  0
  3  4  1  0  0  0  0
  3 32  1  6  0  0  0
  4  5  1  0  0  0  0
  4 33  1  6  0  0  0
  5  6  1  1  0  0  0
  5  7  1  0  0  0  0
  7  8  1  0  0  0  0
  7  9  1  1  0  0  0
  9 10  1  0  0  0  0
 11 12  1  1  0  0  0
 11 13  1  0  0  0  0
 11 19  1  0  0  0  0
 12 35  1  0  0  0  0
 13 14  1  0  0  0  0
 14 15  1  1  0  0  0
 14 16  1  0  0  0  0
 16  2  1  6  0  0  0
 16 17  1  0  0  0  0
 17 18  1  1  0  0  0
 17 19  1  0  0  0  0
 19 20  1  6  0  0  0
 21 20  1  1  0  0  0
 21 22  1  0  0  0  0
 21 29  1  0  0  0  0
 22 23  1  1  0  0  0
 22 24  1  0  0  0  0
 24 25  1  6  0  0  0
 24 26  1  0  0  0  0
 26 27  1  1  0  0  0
 26 28  1  0  0  0  0
 28 29  1  0  0  0  0
 28 30  1  6  0  0  0
 30 31  1  0  0  0  0
 34 39  1  0  0  0  0
 35 36  2  0  0  0  0
 37 35  1  6  0  0  0
 37 38  1  0  0  0  0
 37 40  1  0  0  0  0
 38 39  1  0  0  0  0
M  END
>  <CHROM.1>
158.23304076,-46.58001476,70.34351641,168.63791980,-79.61519764,163.33689913
-49.74057833,41.89137064,171.39791913,-70.23299051,22.51129846,8.78748002
1.23856470,2.05414732,-0.87220514,0.49672919

>  <Name>
2g5q_lig

>  <RI>
224

>  <Rbt.Current_Directory>
/home/itssahil/PROJECTS/Mol_Feturizer/New_Systems/rnas/2g5q

>  <Rbt.Executable>
rbdock ($Id: //depot/dev/client3/rdock/2013.1/src/exe/rbdock.cxx#4 $)

>  <Rbt.Library>
libRbt.so (2013.1, Build901 2013/11/27)

>  <Rbt.Parameter_File>
/export/apps/rDock/src/rDock_2013.1_src/data/scripts/dock_solv.prm

>  <Rbt.Receptor>
prm/blind_docking_60.prm

>  <SCORE>
24.3277

>  <SCORE.INTER>
4.22509

>  <SCORE.INTER.CONST>
1

>  <SCORE.INTER.POLAR>
-0.0931729

>  <SCORE.INTER.ROT>
10

>  <SCORE.INTER.SOLV>
32.3157

>  <SCORE.INTER.VDW>
-17.9113

>  <SCORE.INTER.norm>
0.105627

>  <SCORE.INTRA>
-0.284755

>  <SCORE.INTRA.DIHEDRAL>
-13.9635

>  <SCORE.INTRA.DIHEDRAL.0>
22.5778

>  <SCORE.INTRA.POLAR>
0

>  <SCORE.INTRA.POLAR.0>
0

>  <SCORE.INTRA.REPUL>
0

>  <SCORE.INTRA.REPUL.0>
0

>  <SCORE.INTRA.SOLV>
3.47368

>  <SCORE.INTRA.SOLV.lig_0>
-102.332

>  <SCORE.INTRA.VDW>
4.96018

>  <SCORE.INTRA.VDW.0>
-5.08747

>  <SCORE.INTRA.norm>
-0.00711887

>  <SCORE.RESTR>
20.3873

>  <SCORE.RESTR.CAVITY>
20.3873

>  <SCORE.RESTR.norm>
0.509684

>  <SCORE.SYSTEM>
0

>  <SCORE.SYSTEM.CONST>
0

>  <SCORE.SYSTEM.DIHEDRAL>
0

>  <SCORE.SYSTEM.SOLV>
0

>  <SCORE.SYSTEM.norm>
0

>  <SCORE.heavy>
40

>  <SCORE.norm>
0.608192

>  <RMSD>
33.187

$$$$
2g5q_lig
 OpenBabel11021811433D
libRbt.so/2013.1/901 2013/11/27
 40 42  0  0  0  0  0  0  0  0999 V2000
   20.6180   12.9423    4.2832 C   0  0  2  0  0  0  0  0  0  0  0  0
   20.0640   12.2982    3.1572 O   0  0  0  0  0  0  0  0  0  0  0  0
   19.5010   13.1362    5.3507 C   0  0  1  0  0  0  0  0  0  0  0  0
   18.4060   14.1387    4.8716 C   0  0  2  0  0  0  0  0  0  0  0  0
   19.0983   15.4970    4.5873 C   0  0  2  0  0  0  0  0  0  0  0  0
   18.1163   16.4568    4.1644 O   0  0  0  0  0  0  0  0  0  0  0  0
   20.1938   15.2708    3.4680 C   0  0  2  0  0  0  0  0  0  0  0  0
   21.1944   14.2660    3.9286 O   0  0  0  0  0  0  0  0  0  0  0  0
   20.9516   16.5469    3.1175 C   0  0  0  0  0  0  0  0  0  0  0  0
   21.5065   16.5068    1.7274 N   0  0  0  0  0  0  0  0  0  0  0  0
   21.7975    9.0480    0.8102 C   0  0  2  0  0  0  0  0  0  0  0  0
   22.5942    8.3318   -0.1788 N   0  0  0  0  0  0  0  0  0  0  0  0
   20.8171   10.0668    0.0915 C   0  0  0  0  0  0  0  0  0  0  0  0
   19.9468   10.8397    1.1590 C   0  0  2  0  0  0  0  0  0  0  0  0
   19.0242   11.7834    0.4719 N   0  0  0  0  0  0  0  0  0  0  0  0
   20.8994   11.5976    2.1671 C   0  0  2  0  0  0  0  0  0  0  0  0
   21.8620   10.5527    2.8588 C   0  0  2  0  0  0  0  0  0  0  0  0
   22.7277   11.2419    3.7662 O   0  0  0  0  0  0  0  0  0  0  0  0
   22.7314    9.8043    1.7776 C   0  0  1  0  0  0  0  0  0  0  0  0
   23.6081    8.8339    2.4163 O   0  0  0  0  0  0  0  0  0  0  0  0
   24.5983    8.0984    1.7404 C   0  0  2  0  0  0  0  0  0  0  0  0
   24.4121    6.5926    2.1292 C   0  0  2  0  0  0  0  0  0  0  0  0
   23.1433    6.1675    1.7475 O   0  0  0  0  0  0  0  0  0  0  0  0
   24.6402    6.3709    3.6723 C   0  0  1  0  0  0  0  0  0  0  0  0
   24.4685    4.9303    4.0540 N   0  0  0  0  0  0  0  0  0  0  0  0
   26.0917    6.8782    4.0375 C   0  0  2  0  0  0  0  0  0  0  0  0
   26.3606    6.6954    5.4290 O   0  0  0  0  0  0  0  0  0  0  0  0
   26.2118    8.3847    3.6271 C   0  0  2  0  0  0  0  0  0  0  0  0
   25.9301    8.5683    2.1620 O   0  0  0  0  0  0  0  0  0  0  0  0
   27.5795    8.9324    3.9155 C   0  0  0  0  0  0  0  0  0  0  0  0
   27.7023   10.2921    3.4670 O   0  0  0  0  0  0  0  0  0  0  0  0
   18.9182   11.8221    5.6533 O   0  0  0  0  0  0  0  0  0  0  0  0
   17.4537   14.2821    5.8564 O   0  0  0  0  0  0  0  0  0  0  0  0
   22.8761    3.5553   -2.4649 N   0  0  0  0  0  0  0  0  0  0  0  0
   22.3745    7.0246   -0.5899 C   0  0  0  0  0  0  0  0  0  0  0  0
   21.4760    6.3129   -0.1545 O   0  0  0  0  0  0  0  0  0  0  0  0
   23.4011    6.5582   -1.6477 C   0  0  1  0  0  0  0  0  0  0  0  0
   24.1095    5.2755   -1.1671 C   0  0  0  0  0  0  0  0  0  0  0  0
   23.2440    4.0107   -1.1258 C   0  0  0  0  0  0  0  0  0  0  0  0
   22.7188    6.3321   -2.9018 O   0  0  0  0  0  0  0  0  0  0  0  0
  1  2  1  6  0  0  0
  1  3  1  0  0  0  0
  1  8  1  0  0  0  0
  3  4  1  0  0  0  0
  3 32  1  6  0  0  0
  4  5  1  0  0  0  0
  4 33  1  1  0  0  0
  5  6  1  6  0  0  0
  5  7  1  0  0  0  0
  7  8  1  0  0  0  0
  7  9  1  1  0  0  0
  9 10  1  0  0  0  0
 11 12  1  6  0  0  0
 11 13  1  0  0  0  0
 11 19  1  0  0  0  0
 12 35  1  0  0  0  0
 13 14  1  0  0  0  0
 14 15  1  6  0  0  0
 14 16  1  0  0  0  0
 16  2  1  1  0  0  0
 16 17  1  0  0  0  0
 17 18  1  1  0  0  0
 17 19  1  0  0  0  0
 19 20  1  1  0  0  0
 21 20  1  1  0  0  0
 21 22  1  0  0  0  0
 21 29  1  0  0  0  0
 22 23  1  1  0  0  0
 22 24  1  0  0  0  0
 24 25  1  6  0  0  0
 24 26  1  0  0  0  0
 26 27  1  1  0  0  0
 26 28  1  0  0  0  0
 28 29  1  0  0  0  0
 28 30  1  6  0  0  0
 30 31  1  0  0  0  0
 34 39  1  0  0  0  0
 35 36  2  0  0  0  0
 37 35  1  1  0  0  0
 37 38  1  0  0  0  0
 37 40  1  0  0  0  0
 38 39  1  0  0  0  0
M  END
>  <CHROM.1>
-160.43813317,-154.56695477,-103.07158391,172.62710095,66.97701581,-130.25321652
176.75722428,124.16096281,69.69498361,68.56361511,22.33609429,9.92031017
2.31275209,-2.17483351,0.60969624,-2.39602018

>  <Name>
2g5q_lig

>  <RI>
224

>  <Rbt.Current_Directory>
/home/itssahil/PROJECTS/Mol_Feturizer/New_Systems/rnas/2g5q

>  <Rbt.Executable>
rbdock ($Id: //depot/dev/client3/rdock/2013.1/src/exe/rbdock.cxx#4 $)

>  <Rbt.Library>
libRbt.so (2013.1, Build901 2013/11/27)

>  <Rbt.Parameter_File>
/export/apps/rDock/src/rDock_2013.1_src/data/scripts/dock_solv.prm

>  <Rbt.Receptor>
prm/blind_docking_60.prm

>  <SCORE>
30.0874

>  <SCORE.INTER>
12.162

>  <SCORE.INTER.CONST>
1

>  <SCORE.INTER.POLAR>
0

>  <SCORE.INTER.ROT>
10

>  <SCORE.INTER.SOLV>
26.898

>  <SCORE.INTER.VDW>
-11.1247

>  <SCORE.INTER.norm>
0.304049

>  <SCORE.INTRA>
-1.35142

>  <SCORE.INTRA.DIHEDRAL>
-7.58202

>  <SCORE.INTRA.DIHEDRAL.0>
22.5778

>  <SCORE.INTRA.POLAR>
0

>  <SCORE.INTRA.POLAR.0>
0

>  <SCORE.INTRA.REPUL>
0

>  <SCORE.INTRA.REPUL.0>
0

>  <SCORE.INTRA.SOLV>
2.17252

>  <SCORE.INTRA.SOLV.lig_0>
-102.332

>  <SCORE.INTRA.VDW>
1.35333

>  <SCORE.INTRA.VDW.0>
-5.08747

>  <SCORE.INTRA.norm>
-0.0337856

>  <SCORE.RESTR>
19.2768

>  <SCORE.RESTR.CAVITY>
19.2768

>  <SCORE.RESTR.norm>
0.48192

>  <SCORE.SYSTEM>
0

>  <SCORE.SYSTEM.CONST>
0

>  <SCORE.SYSTEM.DIHEDRAL>
0

>  <SCORE.SYSTEM.SOLV>
0

>  <SCORE.SYSTEM.norm>
0

>  <SCORE.heavy>
40

>  <SCORE.norm>
0.752184

>  <RMSD>
33.207

$$$$
2g5q_lig
 OpenBabel11021811433D
libRbt.so/2013.1/901 2013/11/27
 40 42  0  0  0  0  0  0  0  0999 V2000
   22.4957   10.7359    2.7649 C   0  0  2  0  0  0  0  0  0  0  0  0
   21.5922    9.6877    2.4918 O   0  0  0  0  0  0  0  0  0  0  0  0
   21.7124   12.0816    2.7844 C   0  0  1  0  0  0  0  0  0  0  0  0
   21.1559   12.4513    1.3747 C   0  0  2  0  0  0  0  0  0  0  0  0
   22.3600   12.5617    0.4036 C   0  0  2  0  0  0  0  0  0  0  0  0
   21.8895   12.9246   -0.9045 O   0  0  0  0  0  0  0  0  0  0  0  0
   23.1040   11.1654    0.3751 C   0  0  2  0  0  0  0  0  0  0  0  0
   23.5742   10.8094    1.7444 O   0  0  0  0  0  0  0  0  0  0  0  0
   24.3211   11.1639   -0.5437 C   0  0  0  0  0  0  0  0  0  0  0  0
   25.2454   10.0233   -0.2498 N   0  0  0  0  0  0  0  0  0  0  0  0
   22.2264    5.7443    0.7241 C   0  0  2  0  0  0  0  0  0  0  0  0
   22.4815    4.6957   -0.2562 N   0  0  0  0  0  0  0  0  0  0  0  0
   20.9160    6.5500    0.3372 C   0  0  0  0  0  0  0  0  0  0  0  0
   20.6318    7.6826    1.4007 C   0  0  2  0  0  0  0  0  0  0  0  0
   19.3948    8.4231    1.0326 N   0  0  0  0  0  0  0  0  0  0  0  0
   21.8783    8.6506    1.4860 C   0  0  2  0  0  0  0  0  0  0  0  0
   23.1623    7.8129    1.8685 C   0  0  2  0  0  0  0  0  0  0  0  0
   24.2907    8.6904    1.9389 O   0  0  0  0  0  0  0  0  0  0  0  0
   23.4363    6.6993    0.7869 C   0  0  1  0  0  0  0  0  0  0  0  0
   24.6123    5.9214    1.1481 O   0  0  0  0  0  0  0  0  0  0  0  0
   24.5998    4.8437    2.0516 C   0  0  2  0  0  0  0  0  0  0  0  0
   24.3052    5.4276    3.4748 C   0  0  2  0  0  0  0  0  0  0  0  0
   23.0716    6.0715    3.4669 O   0  0  0  0  0  0  0  0  0  0  0  0
   25.4494    6.4078    3.9358 C   0  0  1  0  0  0  0  0  0  0  0  0
   25.1786    6.9690    5.3003 N   0  0  0  0  0  0  0  0  0  0  0  0
   26.8178    5.6174    3.9165 C   0  0  2  0  0  0  0  0  0  0  0  0
   27.8969    6.4560    4.3342 O   0  0  0  0  0  0  0  0  0  0  0  0
   27.0537    5.0631    2.4710 C   0  0  2  0  0  0  0  0  0  0  0  0
   25.9158    4.1802    2.0401 O   0  0  0  0  0  0  0  0  0  0  0  0
   28.3251    4.2701    2.3799 C   0  0  0  0  0  0  0  0  0  0  0  0
   28.7616    4.1388    1.0171 O   0  0  0  0  0  0  0  0  0  0  0  0
   20.6272   11.9701    3.7683 O   0  0  0  0  0  0  0  0  0  0  0  0
   20.4859   13.6526    1.4474 O   0  0  0  0  0  0  0  0  0  0  0  0
   22.1382    5.8674   -3.7448 N   0  0  0  0  0  0  0  0  0  0  0  0
   23.3109    4.8179   -1.3622 C   0  0  0  0  0  0  0  0  0  0  0  0
   23.9251    5.8402   -1.6465 O   0  0  0  0  0  0  0  0  0  0  0  0
   23.3612    3.5246   -2.2080 C   0  0  1  0  0  0  0  0  0  0  0  0
   22.1382    3.4580   -3.1450 C   0  0  0  0  0  0  0  0  0  0  0  0
   22.0990    4.5027   -4.2664 C   0  0  0  0  0  0  0  0  0  0  0  0
   24.5928    3.5013   -2.9642 O   0  0  0  0  0  0  0  0  0  0  0  0
  1  2  1  6  0  0  0
  1  3  1  0  0  0  0
  1  8  1  0  0  0  0
  3  4  1  0  0  0  0
  3 32  1  1  0  0  0
  4  5  1  0  0  0  0
  4 33  1  1  0  0  0
  5  6  1  6  0  0  0
  5  7  1  0  0  0  0
  7  8  1  0  0  0  0
  7  9  1  6  0  0  0
  9 10  1  0  0  0  0
 11 12  1  6  0  0  0
 11 13  1  0  0  0  0
 11 19  1  0  0  0  0
 12 35  1  0  0  0  0
 13 14  1  0  0  0  0
 14 15  1  6  0  0  0
 14 16  1  0  0  0  0
 16  2  1  1  0  0  0
 16 17  1  0  0  0  0
 17 18  1  6  0  0  0
 17 19  1  0  0  0  0
 19 20  1  1  0  0  0
 21 20  1  6  0  0  0
 21 22  1  0  0  0  0
 21 29  1  0  0  0  0
 22 23  1  6  0  0  0
 22 24  1  0  0  0  0
 24 25  1  1  0  0  0
 24 26  1  0  0  0  0
 26 27  1  6  0  0  0
 26 28  1  0  0  0  0
 28 29  1  0  0  0  0
 28 30  1  1  0  0  0
 30 31  1  0  0  0  0
 34 39  1  0  0  0  0
 35 36  2  0  0  0  0
 37 35  1  6  0  0  0
 37 38  1  0  0  0  0
 37 40  1  0  0  0  0
 38 39  1  0  0  0  0
M  END
>  <CHROM.1>
132.66100955,162.18248992,94.11244340,-177.58673281,-36.57933442,-68.11682233
-161.13291502,81.77102442,67.77518227,-58.07048078,23.53786762,7.54614441
1.02888048,-2.27396493,0.81054016,-2.44460580

>  <Name>
2g5q_lig

>  <RI>
224

>  <Rbt.Current_Directory>
/home/itssahil/PROJECTS/Mol_Feturizer/New_Systems/rnas/2g5q

>  <Rbt.Executable>
rbdock ($Id: //depot/dev/client3/rdock/2013.1/src/exe/rbdock.cxx#4 $)

>  <Rbt.Library>
libRbt.so (2013.1, Build901 2013/11/27)

>  <Rbt.Parameter_File>
/export/apps/rDock/src/rDock_2013.1_src/data/scripts/dock_solv.prm

>  <Rbt.Receptor>
prm/blind_docking_60.prm

>  <SCORE>
16.3926

>  <SCORE.INTER>
-7.20246

>  <SCORE.INTER.CONST>
1

>  <SCORE.INTER.POLAR>
-0.906235

>  <SCORE.INTER.ROT>
10

>  <SCORE.INTER.SOLV>
26.8401

>  <SCORE.INTER.VDW>
-20.9942

>  <SCORE.INTER.norm>
-0.180062

>  <SCORE.INTRA>
10.2173

>  <SCORE.INTRA.DIHEDRAL>
-8.89103

>  <SCORE.INTRA.DIHEDRAL.0>
22.5778

>  <SCORE.INTRA.POLAR>
0

>  <SCORE.INTRA.POLAR.0>
0

>  <SCORE.INTRA.REPUL>
0

>  <SCORE.INTRA.REPUL.0>
0

>  <SCORE.INTRA.SOLV>
8.92573

>  <SCORE.INTRA.SOLV.lig_0>
-102.332

>  <SCORE.INTRA.VDW>
10.1999

>  <SCORE.INTRA.VDW.0>
-5.08747

>  <SCORE.INTRA.norm>
0.255431

>  <SCORE.RESTR>
13.3778

>  <SCORE.RESTR.CAVITY>
13.3778

>  <SCORE.RESTR.norm>
0.334445

>  <SCORE.SYSTEM>
0

>  <SCORE.SYSTEM.CONST>
0

>  <SCORE.SYSTEM.DIHEDRAL>
0

>  <SCORE.SYSTEM.SOLV>
0

>  <SCORE.SYSTEM.norm>
0

>  <SCORE.heavy>
40

>  <SCORE.norm>
0.409815

>  <RMSD>
33.317

$$$$
2g5q_lig
 OpenBabel11021811433D
libRbt.so/2013.1/901 2013/11/27
 40 42  0  0  0  0  0  0  0  0999 V2000
   21.8006    4.1737   -1.2980 C   0  0  2  0  0  0  0  0  0  0  0  0
   22.2133    4.1876    0.0507 O   0  0  0  0  0  0  0  0  0  0  0  0
   22.8721    3.4237   -2.1432 C   0  0  1  0  0  0  0  0  0  0  0  0
   24.2229    4.2024   -2.1936 C   0  0  2  0  0  0  0  0  0  0  0  0
   23.9449    5.5941   -2.8187 C   0  0  2  0  0  0  0  0  0  0  0  0
   25.1727    6.3356   -2.9040 O   0  0  0  0  0  0  0  0  0  0  0  0
   22.8879    6.3437   -1.9104 C   0  0  2  0  0  0  0  0  0  0  0  0
   21.6281    5.5502   -1.8324 O   0  0  0  0  0  0  0  0  0  0  0  0
   22.5279    7.7267   -2.4426 C   0  0  0  0  0  0  0  0  0  0  0  0
   21.8064    7.6542   -3.7526 N   0  0  0  0  0  0  0  0  0  0  0  0
   22.3390    8.3516    1.3632 C   0  0  2  0  0  0  0  0  0  0  0  0
   22.1670    9.5478    2.1789 N   0  0  0  0  0  0  0  0  0  0  0  0
   20.9298    7.6951    1.0483 C   0  0  0  0  0  0  0  0  0  0  0  0
   21.1110    6.4027    0.1587 C   0  0  2  0  0  0  0  0  0  0  0  0
   19.7820    5.8032   -0.1388 N   0  0  0  0  0  0  0  0  0  0  0  0
   22.0514    5.3756    0.9060 C   0  0  2  0  0  0  0  0  0  0  0  0
   23.4410    6.0656    1.2059 C   0  0  2  0  0  0  0  0  0  0  0  0
   24.2885    5.1360    1.8881 O   0  0  0  0  0  0  0  0  0  0  0  0
   23.2389    7.3432    2.1070 C   0  0  1  0  0  0  0  0  0  0  0  0
   24.5189    7.9837    2.3714 O   0  0  0  0  0  0  0  0  0  0  0  0
   24.9150    8.4674    3.6312 C   0  0  2  0  0  0  0  0  0  0  0  0
   26.4478    8.7802    3.5532 C   0  0  2  0  0  0  0  0  0  0  0  0
   26.6775    9.7370    2.5692 O   0  0  0  0  0  0  0  0  0  0  0  0
   27.2819    7.4730    3.2736 C   0  0  1  0  0  0  0  0  0  0  0  0
   28.7522    7.7615    3.2017 N   0  0  0  0  0  0  0  0  0  0  0  0
   26.9708    6.4310    4.4204 C   0  0  2  0  0  0  0  0  0  0  0  0
   27.7074    5.2222    4.2244 O   0  0  0  0  0  0  0  0  0  0  0  0
   25.4284    6.1608    4.4443 C   0  0  2  0  0  0  0  0  0  0  0  0
   24.6610    7.4365    4.6533 O   0  0  0  0  0  0  0  0  0  0  0  0
   25.0489    5.1996    5.5333 C   0  0  0  0  0  0  0  0  0  0  0  0
   25.1673    5.8072    6.8301 O   0  0  0  0  0  0  0  0  0  0  0  0
   23.0560    2.0831   -1.5713 O   0  0  0  0  0  0  0  0  0  0  0  0
   25.1266    3.5026   -2.9625 O   0  0  0  0  0  0  0  0  0  0  0  0
   20.9180   13.7418    4.9398 N   0  0  0  0  0  0  0  0  0  0  0  0
   21.7935   10.7961    1.7011 C   0  0  0  0  0  0  0  0  0  0  0  0
   21.5704   11.0373    0.5198 O   0  0  0  0  0  0  0  0  0  0  0  0
   21.7065   11.8559    2.8235 C   0  0  1  0  0  0  0  0  0  0  0  0
   20.2476   12.0003    3.3020 C   0  0  0  0  0  0  0  0  0  0  0  0
   19.8961   13.3298    3.9797 C   0  0  0  0  0  0  0  0  0  0  0  0
   22.5708   11.4628    3.9134 O   0  0  0  0  0  0  0  0  0  0  0  0
  1  2  1  1  0  0  0
  1  3  1  0  0  0  0
  1  8  1  0  0  0  0
  3  4  1  0  0  0  0
  3 32  1  1  0  0  0
  4  5  1  0  0  0  0
  4 33  1  6  0  0  0
  5  6  1  1  0  0  0
  5  7  1  0  0  0  0
  7  8  1  0  0  0  0
  7  9  1  6  0  0  0
  9 10  1  0  0  0  0
 11 12  1  1  0  0  0
 11 13  1  0  0  0  0
 11 19  1  0  0  0  0
 12 35  1  0  0  0  0
 13 14  1  0  0  0  0
 14 15  1  1  0  0  0
 14 16  1  0  0  0  0
 16  2  1  6  0  0  0
 16 17  1  0  0  0  0
 17 18  1  1  0  0  0
 17 19  1  0  0  0  0
 19 20  1  6  0  0  0
 21 20  1  6  0  0  0
 21 22  1  0  0  0  0
 21 29  1  0  0  0  0
 22 23  1  6  0  0  0
 22 24  1  0  0  0  0
 24 25  1  1  0  0  0
 24 26  1  0  0  0  0
 26 27  1  6  0  0  0
 26 28  1  0  0  0  0
 28 29  1  0  0  0  0
 28 30  1  1  0  0  0
 30 31  1  0  0  0  0
 34 39  1  0  0  0  0
 35 36  2  0  0  0  0
 37 35  1  6  0  0  0
 37 38  1  0  0  0  0
 37 40  1  0  0  0  0
 38 39  1  0  0  0  0
M  END
>  <CHROM.1>
139.30548507,65.94240267,-79.87049579,11.81801981,104.41046560,167.66263240
71.48767749,-96.69174744,-157.08316996,-44.60956668,23.50124011,7.30217830
1.37702485,1.57085260,0.72170450,-2.35191958

>  <Name>
2g5q_lig

>  <RI>
224

>  <Rbt.Current_Directory>
/home/itssahil/PROJECTS/Mol_Feturizer/New_Systems/rnas/2g5q

>  <Rbt.Executable>
rbdock ($Id: //depot/dev/client3/rdock/2013.1/src/exe/rbdock.cxx#4 $)

>  <Rbt.Library>
libRbt.so (2013.1, Build901 2013/11/27)

>  <Rbt.Parameter_File>
/export/apps/rDock/src/rDock_2013.1_src/data/scripts/dock_solv.prm

>  <Rbt.Receptor>
prm/blind_docking_60.prm

>  <SCORE>
80.4476

>  <SCORE.INTER>
45.7473

>  <SCORE.INTER.CONST>
1

>  <SCORE.INTER.POLAR>
-1.78379

>  <SCORE.INTER.ROT>
10

>  <SCORE.INTER.SOLV>
28.8508

>  <SCORE.INTER.VDW>
16.5605

>  <SCORE.INTER.norm>
1.14368

>  <SCORE.INTRA>
17.8589

>  <SCORE.INTRA.DIHEDRAL>
1.54276

>  <SCORE.INTRA.DIHEDRAL.0>
22.5778

>  <SCORE.INTRA.POLAR>
0

>  <SCORE.INTRA.POLAR.0>
0

>  <SCORE.INTRA.REPUL>
0

>  <SCORE.INTRA.REPUL.0>
0

>  <SCORE.INTRA.SOLV>
5.64045

>  <SCORE.INTRA.SOLV.lig_0>
-102.332

>  <SCORE.INTRA.VDW>
14.2672

>  <SCORE.INTRA.VDW.0>
-5.08747

>  <SCORE.INTRA.norm>
0.446471

>  <SCORE.RESTR>
16.8415

>  <SCORE.RESTR.CAVITY>
16.8415

>  <SCORE.RESTR.norm>
0.421037

>  <SCORE.SYSTEM>
0

>  <SCORE.SYSTEM.CONST>
0

>  <SCORE.SYSTEM.DIHEDRAL>
0

>  <SCORE.SYSTEM.SOLV>
0

>  <SCORE.SYSTEM.norm>
0

>  <SCORE.heavy>
40

>  <SCORE.norm>
2.01119

>  <RMSD>
33.372

$$$$
2g5q_lig
 OpenBabel11021811433D
libRbt.so/2013.1/901 2013/11/27
 40 42  0  0  0  0  0  0  0  0999 V2000
   25.6313    5.0988    2.1264 C   0  0  2  0  0  0  0  0  0  0  0  0
   24.2650    4.7499    2.0920 O   0  0  0  0  0  0  0  0  0  0  0  0
   26.3397    4.2464    3.2202 C   0  0  1  0  0  0  0  0  0  0  0  0
   25.8442    4.6112    4.6538 C   0  0  2  0  0  0  0  0  0  0  0  0
   26.1411    6.1150    4.8896 C   0  0  2  0  0  0  0  0  0  0  0  0
   25.7190    6.4856    6.2121 O   0  0  0  0  0  0  0  0  0  0  0  0
   25.3703    6.9514    3.7895 C   0  0  2  0  0  0  0  0  0  0  0  0
   25.8207    6.5420    2.4285 O   0  0  0  0  0  0  0  0  0  0  0  0
   25.6037    8.4528    3.9187 C   0  0  0  0  0  0  0  0  0  0  0  0
   27.0073    8.8356    3.5648 N   0  0  0  0  0  0  0  0  0  0  0  0
   22.4790    8.0748   -0.1062 C   0  0  2  0  0  0  0  0  0  0  0  0
   21.5258    8.8723   -0.8685 N   0  0  0  0  0  0  0  0  0  0  0  0
   22.8372    6.7461   -0.8949 C   0  0  0  0  0  0  0  0  0  0  0  0
   23.8753    5.8824   -0.0757 C   0  0  2  0  0  0  0  0  0  0  0  0
   24.2113    4.6452   -0.8309 N   0  0  0  0  0  0  0  0  0  0  0  0
   23.2737    5.5434    1.3460 C   0  0  2  0  0  0  0  0  0  0  0  0
   22.9260    6.8889    2.0981 C   0  0  2  0  0  0  0  0  0  0  0  0
   22.3756    6.5794    3.3823 O   0  0  0  0  0  0  0  0  0  0  0  0
   21.8778    7.7275    1.2715 C   0  0  1  0  0  0  0  0  0  0  0  0
   21.5688    8.9717    1.9604 O   0  0  0  0  0  0  0  0  0  0  0  0
   22.4770    9.6697    2.7766 C   0  0  2  0  0  0  0  0  0  0  0  0
   21.9786   11.1514    2.8731 C   0  0  2  0  0  0  0  0  0  0  0  0
   20.7033   11.1776    3.4295 O   0  0  0  0  0  0  0  0  0  0  0  0
   21.9915   11.8493    1.4606 C   0  0  1  0  0  0  0  0  0  0  0  0
   21.5199   13.2710    1.5433 N   0  0  0  0  0  0  0  0  0  0  0  0
   23.4619   11.7793    0.8858 C   0  0  2  0  0  0  0  0  0  0  0  0
   23.5385   12.4057   -0.3963 O   0  0  0  0  0  0  0  0  0  0  0  0
   23.8983   10.2770    0.8129 C   0  0  2  0  0  0  0  0  0  0  0  0
   23.8174    9.6262    2.1656 O   0  0  0  0  0  0  0  0  0  0  0  0
   25.3026   10.1298    0.3031 C   0  0  0  0  0  0  0  0  0  0  0  0
   26.2398   10.0024    1.3850 O   0  0  0  0  0  0  0  0  0  0  0  0
   26.1031    2.8269    2.9248 O   0  0  0  0  0  0  0  0  0  0  0  0
   26.5111    3.8392    5.5793 O   0  0  0  0  0  0  0  0  0  0  0  0
   18.6063   11.0987    0.9665 N   0  0  0  0  0  0  0  0  0  0  0  0
   21.8474    9.9713   -1.6526 C   0  0  0  0  0  0  0  0  0  0  0  0
   22.9862   10.4052   -1.7875 O   0  0  0  0  0  0  0  0  0  0  0  0
   20.6054   10.6002   -2.3252 C   0  0  1  0  0  0  0  0  0  0  0  0
   19.6968   11.2453   -1.2592 C   0  0  0  0  0  0  0  0  0  0  0  0
   19.3594   10.3662   -0.0494 C   0  0  0  0  0  0  0  0  0  0  0  0
   21.0381   11.5798   -3.2961 O   0  0  0  0  0  0  0  0  0  0  0  0
  1  2  1  1  0  0  0
  1  3  1  0  0  0  0
  1  8  1  0  0  0  0
  3  4  1  0  0  0  0
  3 32  1  6  0  0  0
  4  5  1  0  0  0  0
  4 33  1  1  0  0  0
  5  6  1  1  0  0  0
  5  7  1  0  0  0  0
  7  8  1  0  0  0  0
  7  9  1  1  0  0  0
  9 10  1  0  0  0  0
 11 12  1  6  0  0  0
 11 13  1  0  0  0  0
 11 19  1  0  0  0  0
 12 35  1  0  0  0  0
 13 14  1  0  0  0  0
 14 15  1  6  0  0  0
 14 16  1  0  0  0  0
 16  2  1  1  0  0  0
 16 17  1  0  0  0  0
 17 18  1  1  0  0  0
 17 19  1  0  0  0  0
 19 20  1  1  0  0  0
 21 20  1  6  0  0  0
 21 22  1  0  0  0  0
 21 29  1  0  0  0  0
 22 23  1  6  0  0  0
 22 24  1  0  0  0  0
 24 25  1  1  0  0  0
 24 26  1  0  0  0  0
 26 27  1  6  0  0  0
 26 28  1  0  0  0  0
 28 29  1  0  0  0  0
 28 30  1  1  0  0  0
 30 31  1  0  0  0  0
 34 39  1  0  0  0  0
 35 36  2  0  0  0  0
 37 35  1  1  0  0  0
 37 38  1  0  0  0  0
 37 40  1  0  0  0  0
 38 39  1  0  0  0  0
M  END
>  <CHROM.1>
168.42234791,69.28129078,-99.80475118,45.15556494,-88.47729192,159.05992107
96.45203528,67.90343100,-49.53651400,174.41611946,23.43073605,8.37695755
1.53679292,0.33203824,0.97957036,-2.56007544

>  <Name>
2g5q_lig

>  <RI>
224

>  <Rbt.Current_Directory>
/home/itssahil/PROJECTS/Mol_Feturizer/New_Systems/rnas/2g5q

>  <Rbt.Executable>
rbdock ($Id: //depot/dev/client3/rdock/2013.1/src/exe/rbdock.cxx#4 $)

>  <Rbt.Library>
libRbt.so (2013.1, Build901 2013/11/27)

>  <Rbt.Parameter_File>
/export/apps/rDock/src/rDock_2013.1_src/data/scripts/dock_solv.prm

>  <Rbt.Receptor>
prm/blind_docking_100.prm

>  <SCORE>
17.008

>  <SCORE.INTER>
-7.18297

>  <SCORE.INTER.CONST>
1

>  <SCORE.INTER.POLAR>
0

>  <SCORE.INTER.ROT>
10

>  <SCORE.INTER.SOLV>
24.9195

>  <SCORE.INTER.VDW>
-23.3618

>  <SCORE.INTER.norm>
-0.179574

>  <SCORE.INTRA>
1.71698

>  <SCORE.INTRA.DIHEDRAL>
-9.53365

>  <SCORE.INTRA.DIHEDRAL.0>
22.5778

>  <SCORE.INTRA.POLAR>
0

>  <SCORE.INTRA.POLAR.0>
0

>  <SCORE.INTRA.REPUL>
0

>  <SCORE.INTRA.REPUL.0>
0

>  <SCORE.INTRA.SOLV>
11.7171

>  <SCORE.INTRA.SOLV.lig_0>
-102.332

>  <SCORE.INTRA.VDW>
0.62528

>  <SCORE.INTRA.VDW.0>
-5.08747

>  <SCORE.INTRA.norm>
0.0429246

>  <SCORE.RESTR>
22.474

>  <SCORE.RESTR.CAVITY>
22.474

>  <SCORE.RESTR.norm>
0.561849

>  <SCORE.SYSTEM>
0

>  <SCORE.SYSTEM.CONST>
0

>  <SCORE.SYSTEM.DIHEDRAL>
0

>  <SCORE.SYSTEM.SOLV>
0

>  <SCORE.SYSTEM.norm>
0

>  <SCORE.heavy>
40

>  <SCORE.norm>
0.4252

>  <RMSD>
33.404

$$$$
2g5q_lig
 OpenBabel11021811433D
libRbt.so/2013.1/901 2013/11/27
 40 42  0  0  0  0  0  0  0  0999 V2000
   20.9891   10.8889   -1.2624 C   0  0  2  0  0  0  0  0  0  0  0  0
   22.2458   10.5337   -1.7955 O   0  0  0  0  0  0  0  0  0  0  0  0
   21.0646   12.3503   -0.7299 C   0  0  1  0  0  0  0  0  0  0  0  0
   22.0186   12.4734    0.4983 C   0  0  2  0  0  0  0  0  0  0  0  0
   21.4803   11.5385    1.6124 C   0  0  2  0  0  0  0  0  0  0  0  0
   22.3214   11.6412    2.7727 O   0  0  0  0  0  0  0  0  0  0  0  0
   21.4601   10.0589    1.0517 C   0  0  2  0  0  0  0  0  0  0  0  0
   20.5877    9.9821   -0.1549 O   0  0  0  0  0  0  0  0  0  0  0  0
   20.9314    9.0506    2.0662 C   0  0  0  0  0  0  0  0  0  0  0  0
   19.4351    9.0398    2.1201 N   0  0  0  0  0  0  0  0  0  0  0  0
   22.2084    6.1769   -2.1021 C   0  0  2  0  0  0  0  0  0  0  0  0
   22.4504    4.8253   -2.5925 N   0  0  0  0  0  0  0  0  0  0  0  0
   21.4240    7.0231   -3.1904 C   0  0  0  0  0  0  0  0  0  0  0  0
   21.1535    8.4861   -2.6604 C   0  0  2  0  0  0  0  0  0  0  0  0
   20.4078    9.2655   -3.6853 N   0  0  0  0  0  0  0  0  0  0  0  0
   22.5274    9.1782   -2.2980 C   0  0  2  0  0  0  0  0  0  0  0  0
   23.2802    8.3058   -1.2168 C   0  0  2  0  0  0  0  0  0  0  0  0
   24.5266    8.9310   -0.8950 O   0  0  0  0  0  0  0  0  0  0  0  0
   23.5537    6.8559   -1.7716 C   0  0  1  0  0  0  0  0  0  0  0  0
   24.2361    6.0508   -0.7693 O   0  0  0  0  0  0  0  0  0  0  0  0
   23.5814    5.2092    0.1479 C   0  0  2  0  0  0  0  0  0  0  0  0
   22.8396    6.1255    1.1790 C   0  0  2  0  0  0  0  0  0  0  0  0
   21.9196    6.9276    0.5106 O   0  0  0  0  0  0  0  0  0  0  0  0
   23.8604    7.0021    1.9989 C   0  0  1  0  0  0  0  0  0  0  0  0
   23.1595    7.8802    2.9929 N   0  0  0  0  0  0  0  0  0  0  0  0
   24.8754    6.0328    2.7252 C   0  0  2  0  0  0  0  0  0  0  0  0
   25.8257    6.7729    3.4942 O   0  0  0  0  0  0  0  0  0  0  0  0
   25.5828    5.1488    1.6432 C   0  0  2  0  0  0  0  0  0  0  0  0
   24.5769    4.3718    0.8405 O   0  0  0  0  0  0  0  0  0  0  0  0
   26.5443    4.1758    2.2615 C   0  0  0  0  0  0  0  0  0  0  0  0
   25.8932    3.3497    3.2406 O   0  0  0  0  0  0  0  0  0  0  0  0
   21.5036   13.2204   -1.8292 O   0  0  0  0  0  0  0  0  0  0  0  0
   22.0370   13.7797    0.9349 O   0  0  0  0  0  0  0  0  0  0  0  0
   24.1148    1.9340   -5.3933 N   0  0  0  0  0  0  0  0  0  0  0  0
   21.8233    3.6792   -2.1241 C   0  0  0  0  0  0  0  0  0  0  0  0
   20.9883    3.6751   -1.2263 O   0  0  0  0  0  0  0  0  0  0  0  0
   22.3080    2.4028   -2.8496 C   0  0  1  0  0  0  0  0  0  0  0  0
   23.8452    2.4164   -2.9727 C   0  0  0  0  0  0  0  0  0  0  0  0
   24.4375    1.4881   -4.0394 C   0  0  0  0  0  0  0  0  0  0  0  0
   21.8591    1.2417   -2.1152 O   0  0  0  0  0  0  0  0  0  0  0  0
  1  2  1  1  0  0  0
  1  3  1  0  0  0  0
  1  8  1  0  0  0  0
  3  4  1  0  0  0  0
  3 32  1  6  0  0  0
  4  5  1  0  0  0  0
  4 33  1  1  0  0  0
  5  6  1  1  0  0  0
  5  7  1  0  0  0  0
  7  8  1  0  0  0  0
  7  9  1  1  0  0  0
  9 10  1  0  0  0  0
 11 12  1  6  0  0  0
 11 13  1  0  0  0  0
 11 19  1  0  0  0  0
 12 35  1  0  0  0  0
 13 14  1  0  0  0  0
 14 15  1  6  0  0  0
 14 16  1  0  0  0  0
 16  2  1  1  0  0  0
 16 17  1  0  0  0  0
 17 18  1  6  0  0  0
 17 19  1  0  0  0  0
 19 20  1  1  0  0  0
 21 20  1  6  0  0  0
 21 22  1  0  0  0  0
 21 29  1  0  0  0  0
 22 23  1  6  0  0  0
 22 24  1  0  0  0  0
 24 25  1  1  0  0  0
 24 26  1  0  0  0  0
 26 27  1  6  0  0  0
 26 28  1  0  0  0  0
 28 29  1  0  0  0  0
 28 30  1  1  0  0  0
 30 31  1  0  0  0  0
 34 39  1  0  0  0  0
 35 36  2  0  0  0  0
 37 35  1  1  0  0  0
 37 38  1  0  0  0  0
 37 40  1  0  0  0  0
 38 39  1  0  0  0  0
M  END
>  <CHROM.1>
175.76491921,80.67391990,-108.97105204,22.14881888,-26.13767033,-70.71444146
55.88016119,44.87279269,-160.71458414,68.45718315,22.76219460,7.25010856
-0.35914086,2.06636479,-1.04143794,0.65398097

>  <Name>
2g5q_lig

>  <RI>
0

>  <Rbt.Current_Directory>
/home/itssahil/PROJECTS/Mol_Feturizer/New_Systems/rnas/2g5q

>  <Rbt.Executable>
rbdock ($Id: //depot/dev/client3/rdock/2013.1/src/exe/rbdock.cxx#4 $)

>  <Rbt.Library>
libRbt.so (2013.1, Build901 2013/11/27)

>  <Rbt.Parameter_File>
/export/apps/rDock/src/rDock_2013.1_src/data/scripts/dock_solv.prm

>  <Rbt.Receptor>
prm/blind_docking_40.prm

>  <SCORE>
15.1868

>  <SCORE.INTER>
-0.659792

>  <SCORE.INTER.CONST>
1

>  <SCORE.INTER.POLAR>
0

>  <SCORE.INTER.ROT>
10

>  <SCORE.INTER.SOLV>
20.2426

>  <SCORE.INTER.VDW>
-17.4541

>  <SCORE.INTER.norm>
-0.0164948

>  <SCORE.INTRA>
4.011

>  <SCORE.INTRA.DIHEDRAL>
-7.49316

>  <SCORE.INTRA.DIHEDRAL.0>
22.5778

>  <SCORE.INTRA.POLAR>
0

>  <SCORE.INTRA.POLAR.0>
0

>  <SCORE.INTRA.REPUL>
0

>  <SCORE.INTRA.REPUL.0>
0

>  <SCORE.INTRA.SOLV>
7.96041

>  <SCORE.INTRA.SOLV.lig_0>
-102.332

>  <SCORE.INTRA.VDW>
3.77737

>  <SCORE.INTRA.VDW.0>
-5.08747

>  <SCORE.INTRA.norm>
0.100275

>  <SCORE.RESTR>
11.8356

>  <SCORE.RESTR.CAVITY>
11.8356

>  <SCORE.RESTR.norm>
0.29589

>  <SCORE.SYSTEM>
0

>  <SCORE.SYSTEM.CONST>
0

>  <SCORE.SYSTEM.DIHEDRAL>
0

>  <SCORE.SYSTEM.SOLV>
0

>  <SCORE.SYSTEM.norm>
0

>  <SCORE.heavy>
40

>  <SCORE.norm>
0.37967

>  <RMSD>
33.425

$$$$
2g5q_lig
 OpenBabel11021811433D
libRbt.so/2013.1/901 2013/11/27
 40 42  0  0  0  0  0  0  0  0999 V2000
   24.6370    5.4760    4.5387 C   0  0  2  0  0  0  0  0  0  0  0  0
   24.9877    6.8365    4.4139 O   0  0  0  0  0  0  0  0  0  0  0  0
   25.9389    4.6321    4.6714 C   0  0  1  0  0  0  0  0  0  0  0  0
   26.7871    4.6611    3.3625 C   0  0  2  0  0  0  0  0  0  0  0  0
   25.9104    4.0923    2.2167 C   0  0  2  0  0  0  0  0  0  0  0  0
   26.6662    4.0808    0.9948 O   0  0  0  0  0  0  0  0  0  0  0  0
   24.6210    4.9997    2.0813 C   0  0  2  0  0  0  0  0  0  0  0  0
   23.8604    5.0004    3.3636 O   0  0  0  0  0  0  0  0  0  0  0  0
   23.6746    4.5205    0.9858 C   0  0  0  0  0  0  0  0  0  0  0  0
   22.6059    5.5258    0.6873 N   0  0  0  0  0  0  0  0  0  0  0  0
   24.1275   10.1327    1.6804 C   0  0  2  0  0  0  0  0  0  0  0  0
   23.9608   10.8995    0.4516 N   0  0  0  0  0  0  0  0  0  0  0  0
   25.6235    9.6218    1.8095 C   0  0  0  0  0  0  0  0  0  0  0  0
   25.8104    8.7966    3.1432 C   0  0  2  0  0  0  0  0  0  0  0  0
   27.2196    8.3329    3.2577 N   0  0  0  0  0  0  0  0  0  0  0  0
   24.8014    7.5802    3.1564 C   0  0  2  0  0  0  0  0  0  0  0  0
   23.3251    8.1274    3.0218 C   0  0  2  0  0  0  0  0  0  0  0  0
   22.4138    7.0239    3.0276 O   0  0  0  0  0  0  0  0  0  0  0  0
   23.1565    8.9339    1.6779 C   0  0  1  0  0  0  0  0  0  0  0  0
   21.7995    9.4471    1.5624 O   0  0  0  0  0  0  0  0  0  0  0  0
   20.6812    8.8729    2.1931 C   0  0  2  0  0  0  0  0  0  0  0  0
   19.5371    8.7806    1.1274 C   0  0  2  0  0  0  0  0  0  0  0  0
   19.9564    7.9888    0.0627 O   0  0  0  0  0  0  0  0  0  0  0  0
   19.1062   10.2121    0.6295 C   0  0  1  0  0  0  0  0  0  0  0  0
   18.0072   10.1344   -0.3885 N   0  0  0  0  0  0  0  0  0  0  0  0
   18.6491   11.0572    1.8842 C   0  0  2  0  0  0  0  0  0  0  0  0
   18.2378   12.3687    1.4931 O   0  0  0  0  0  0  0  0  0  0  0  0
   19.8337   11.1129    2.9070 C   0  0  2  0  0  0  0  0  0  0  0  0
   20.2586    9.7299    3.3153 O   0  0  0  0  0  0  0  0  0  0  0  0
   19.4638   11.8763    4.1456 C   0  0  0  0  0  0  0  0  0  0  0  0
   19.0895   13.2280    3.8330 O   0  0  0  0  0  0  0  0  0  0  0  0
   26.7090    5.1472    5.8115 O   0  0  0  0  0  0  0  0  0  0  0  0
   27.9162    3.8903    3.5310 O   0  0  0  0  0  0  0  0  0  0  0  0
   23.4947   12.1749   -4.8302 N   0  0  0  0  0  0  0  0  0  0  0  0
   23.6621   10.3629   -0.7930 C   0  0  0  0  0  0  0  0  0  0  0  0
   23.5102    9.1643   -1.0022 O   0  0  0  0  0  0  0  0  0  0  0  0
   23.5588   11.4447   -1.8928 C   0  0  1  0  0  0  0  0  0  0  0  0
   22.4172   11.0978   -2.8698 C   0  0  0  0  0  0  0  0  0  0  0  0
   22.2550   12.0401   -4.0681 C   0  0  0  0  0  0  0  0  0  0  0  0
   23.3342   12.7306   -1.2720 O   0  0  0  0  0  0  0  0  0  0  0  0
  1  2  1  6  0  0  0
  1  3  1  0  0  0  0
  1  8  1  0  0  0  0
  3  4  1  0  0  0  0
  3 32  1  1  0  0  0
  4  5  1  0  0  0  0
  4 33  1  1  0  0  0
  5  6  1  6  0  0  0
  5  7  1  0  0  0  0
  7  8  1  0  0  0  0
  7  9  1  6  0  0  0
  9 10  1  0  0  0  0
 11 12  1  6  0  0  0
 11 13  1  0  0  0  0
 11 19  1  0  0  0  0
 12 35  1  0  0  0  0
 13 14  1  0  0  0  0
 14 15  1  6  0  0  0
 14 16  1  0  0  0  0
 16  2  1  1  0  0  0
 16 17  1  0  0  0  0
 17 18  1  6  0  0  0
 17 19  1  0  0  0  0
 19 20  1  1  0  0  0
 21 20  1  6  0  0  0
 21 22  1  0  0  0  0
 21 29  1  0  0  0  0
 22 23  1  6  0  0  0
 22 24  1  0  0  0  0
 24 25  1  6  0  0  0
 24 26  1  0  0  0  0
 26 27  1  6  0  0  0
 26 28  1  0  0  0  0
 28 29  1  0  0  0  0
 28 30  1  1  0  0  0
 30 31  1  0  0  0  0
 34 39  1  0  0  0  0
 35 36  2  0  0  0  0
 37 35  1  1  0  0  0
 37 38  1  0  0  0  0
 37 40  1  0  0  0  0
 38 39  1  0  0  0  0
M  END
>  <CHROM.1>
110.50883283,-168.79150982,86.39864329,-155.98181185,-144.68747914,-133.76350208
-59.43208064,-141.93408387,-176.26128061,54.78190806,23.03194183,8.54509236
1.61663544,0.75926516,-0.57682173,2.13166173

>  <Name>
2g5q_lig

>  <RI>
224

>  <Rbt.Current_Directory>
/home/itssahil/PROJECTS/Mol_Feturizer/New_Systems/rnas/2g5q

>  <Rbt.Executable>
rbdock ($Id: //depot/dev/client3/rdock/2013.1/src/exe/rbdock.cxx#4 $)

>  <Rbt.Library>
libRbt.so (2013.1, Build901 2013/11/27)

>  <Rbt.Parameter_File>
/export/apps/rDock/src/rDock_2013.1_src/data/scripts/dock_solv.prm

>  <Rbt.Receptor>
prm/blind_docking_100.prm

>  <SCORE>
20.3467

>  <SCORE.INTER>
-5.57897

>  <SCORE.INTER.CONST>
1

>  <SCORE.INTER.POLAR>
-0.804178

>  <SCORE.INTER.ROT>
10

>  <SCORE.INTER.SOLV>
25.1867

>  <SCORE.INTER.VDW>
-19.701

>  <SCORE.INTER.norm>
-0.139474

>  <SCORE.INTRA>
6.9865

>  <SCORE.INTRA.DIHEDRAL>
0.649398

>  <SCORE.INTRA.DIHEDRAL.0>
22.5778

>  <SCORE.INTRA.POLAR>
0

>  <SCORE.INTRA.POLAR.0>
0

>  <SCORE.INTRA.REPUL>
0.0141634

>  <SCORE.INTRA.REPUL.0>
0

>  <SCORE.INTRA.SOLV>
6.29929

>  <SCORE.INTRA.SOLV.lig_0>
-102.332

>  <SCORE.INTRA.VDW>
3.44134

>  <SCORE.INTRA.VDW.0>
-5.08747

>  <SCORE.INTRA.norm>
0.174663

>  <SCORE.RESTR>
18.9392

>  <SCORE.RESTR.CAVITY>
18.9392

>  <SCORE.RESTR.norm>
0.47348

>  <SCORE.SYSTEM>
0

>  <SCORE.SYSTEM.CONST>
0

>  <SCORE.SYSTEM.DIHEDRAL>
0

>  <SCORE.SYSTEM.SOLV>
0

>  <SCORE.SYSTEM.norm>
0

>  <SCORE.heavy>
40

>  <SCORE.norm>
0.508668

>  <RMSD>
33.449

$$$$
2g5q_lig
 OpenBabel11021811433D
libRbt.so/2013.1/901 2013/11/27
 40 42  0  0  0  0  0  0  0  0999 V2000
   21.9136   10.8056    2.2951 C   0  0  2  0  0  0  0  0  0  0  0  0
   21.4751    9.5357    1.8655 O   0  0  0  0  0  0  0  0  0  0  0  0
   20.8424   11.8657    1.9032 C   0  0  1  0  0  0  0  0  0  0  0  0
   20.7292   12.0341    0.3564 C   0  0  2  0  0  0  0  0  0  0  0  0
   22.1180   12.4734   -0.1756 C   0  0  2  0  0  0  0  0  0  0  0  0
   22.0490   12.6620   -1.5983 O   0  0  0  0  0  0  0  0  0  0  0  0
   23.1705   11.3533    0.2007 C   0  0  2  0  0  0  0  0  0  0  0  0
   23.2164   11.1723    1.6799 O   0  0  0  0  0  0  0  0  0  0  0  0
   24.5830   11.6903   -0.2651 C   0  0  0  0  0  0  0  0  0  0  0  0
   25.5629   10.6153    0.0896 N   0  0  0  0  0  0  0  0  0  0  0  0
   24.5626    6.4488    1.7401 C   0  0  2  0  0  0  0  0  0  0  0  0
   25.3283    5.2484    2.0543 N   0  0  0  0  0  0  0  0  0  0  0  0
   24.4877    7.3992    3.0078 C   0  0  0  0  0  0  0  0  0  0  0  0
   23.6651    8.7043    2.6696 C   0  0  2  0  0  0  0  0  0  0  0  0
   23.6118    9.5919    3.8627 N   0  0  0  0  0  0  0  0  0  0  0  0
   22.2150    8.3031    2.1856 C   0  0  2  0  0  0  0  0  0  0  0  0
   22.3305    7.3549    0.9268 C   0  0  2  0  0  0  0  0  0  0  0  0
   21.0167    6.9878    0.4943 O   0  0  0  0  0  0  0  0  0  0  0  0
   23.1411    6.0526    1.2902 C   0  0  1  0  0  0  0  0  0  0  0  0
   23.2565    5.1869    0.1259 O   0  0  0  0  0  0  0  0  0  0  0  0
   24.3035    5.2576   -0.8106 C   0  0  2  0  0  0  0  0  0  0  0  0
   23.9689    6.4233   -1.8017 C   0  0  2  0  0  0  0  0  0  0  0  0
   23.8646    7.6181   -1.0958 O   0  0  0  0  0  0  0  0  0  0  0  0
   22.6461    6.1259   -2.6044 C   0  0  1  0  0  0  0  0  0  0  0  0
   22.3195    7.2350   -3.5601 N   0  0  0  0  0  0  0  0  0  0  0  0
   22.8300    4.7584   -3.3748 C   0  0  2  0  0  0  0  0  0  0  0  0
   21.6602    4.4376   -4.1303 O   0  0  0  0  0  0  0  0  0  0  0  0
   23.1593    3.6379   -2.3314 C   0  0  2  0  0  0  0  0  0  0  0  0
   24.3921    3.9816   -1.5427 O   0  0  0  0  0  0  0  0  0  0  0  0
   23.3795    2.3087   -2.9934 C   0  0  0  0  0  0  0  0  0  0  0  0
   22.2108    1.8847   -3.7140 O   0  0  0  0  0  0  0  0  0  0  0  0
   19.5564   11.4601    2.4861 O   0  0  0  0  0  0  0  0  0  0  0  0
   19.7802   12.9899    0.0680 O   0  0  0  0  0  0  0  0  0  0  0  0
   25.8142    5.0159    5.2290 N   0  0  0  0  0  0  0  0  0  0  0  0
   26.5805    5.2310    2.6524 C   0  0  0  0  0  0  0  0  0  0  0  0
   27.1952    6.2396    2.9814 O   0  0  0  0  0  0  0  0  0  0  0  0
   27.1237    3.7960    2.8427 C   0  0  1  0  0  0  0  0  0  0  0  0
   27.6312    3.6102    4.2870 C   0  0  0  0  0  0  0  0  0  0  0  0
   26.5810    3.7823    5.3906 C   0  0  0  0  0  0  0  0  0  0  0  0
   26.0752    2.8489    2.5380 O   0  0  0  0  0  0  0  0  0  0  0  0
  1  2  1  6  0  0  0
  1  3  1  0  0  0  0
  1  8  1  0  0  0  0
  3  4  1  0  0  0  0
  3 32  1  6  0  0  0
  4  5  1  0  0  0  0
  4 33  1  1  0  0  0
  5  6  1  6  0  0  0
  5  7  1  0  0  0  0
  7  8  1  0  0  0  0
  7  9  1  1  0  0  0
  9 10  1  0  0  0  0
 11 12  1  1  0  0  0
 11 13  1  0  0  0  0
 11 19  1  0  0  0  0
 12 35  1  0  0  0  0
 13 14  1  0  0  0  0
 14 15  1  1  0  0  0
 14 16  1  0  0  0  0
 16  2  1  6  0  0  0
 16 17  1  0  0  0  0
 17 18  1  1  0  0  0
 17 19  1  0  0  0  0
 19 20  1  6  0  0  0
 21 20  1  1  0  0  0
 21 22  1  0  0  0  0
 21 29  1  0  0  0  0
 22 23  1  1  0  0  0
 22 24  1  0  0  0  0
 24 25  1  6  0  0  0
 24 26  1  0  0  0  0
 26 27  1  1  0  0  0
 26 28  1  0  0  0  0
 28 29  1  0  0  0  0
 28 30  1  6  0  0  0
 30 31  1  0  0  0  0
 34 39  1  0  0  0  0
 35 36  2  0  0  0  0
 37 35  1  1  0  0  0
 37 38  1  0  0  0  0
 37 40  1  0  0  0  0
 38 39  1  0  0  0  0
M  END
>  <CHROM.1>
-174.81502224,-179.54656012,-49.87258360,-15.64649561,-30.00704474,-81.11737131
-60.31078837,-131.13649392,61.35655989,-49.60468459,23.47653621,7.35187245
0.60385443,-2.33722484,0.96656812,-2.46379667

>  <Name>
2g5q_lig

>  <RI>
224

>  <Rbt.Current_Directory>
/home/itssahil/PROJECTS/Mol_Feturizer/New_Systems/rnas/2g5q

>  <Rbt.Executable>
rbdock ($Id: //depot/dev/client3/rdock/2013.1/src/exe/rbdock.cxx#4 $)

>  <Rbt.Library>
libRbt.so (2013.1, Build901 2013/11/27)

>  <Rbt.Parameter_File>
/export/apps/rDock/src/rDock_2013.1_src/data/scripts/dock_solv.prm

>  <Rbt.Receptor>
prm/blind_docking_60.prm

>  <SCORE>
21.3095

>  <SCORE.INTER>
-3.62515

>  <SCORE.INTER.CONST>
1

>  <SCORE.INTER.POLAR>
-0.824621

>  <SCORE.INTER.ROT>
10

>  <SCORE.INTER.SOLV>
32.8589

>  <SCORE.INTER.VDW>
-20.8877

>  <SCORE.INTER.norm>
-0.0906288

>  <SCORE.INTRA>
6.93594

>  <SCORE.INTRA.DIHEDRAL>
-7.97581

>  <SCORE.INTRA.DIHEDRAL.0>
22.5778

>  <SCORE.INTRA.POLAR>
0

>  <SCORE.INTRA.POLAR.0>
0

>  <SCORE.INTRA.REPUL>
0

>  <SCORE.INTRA.REPUL.0>
0

>  <SCORE.INTRA.SOLV>
9.57113

>  <SCORE.INTRA.SOLV.lig_0>
-102.332

>  <SCORE.INTRA.VDW>
6.13828

>  <SCORE.INTRA.VDW.0>
-5.08747

>  <SCORE.INTRA.norm>
0.173398

>  <SCORE.RESTR>
17.9987

>  <SCORE.RESTR.CAVITY>
17.9987

>  <SCORE.RESTR.norm>
0.449968

>  <SCORE.SYSTEM>
0

>  <SCORE.SYSTEM.CONST>
0

>  <SCORE.SYSTEM.DIHEDRAL>
0

>  <SCORE.SYSTEM.SOLV>
0

>  <SCORE.SYSTEM.norm>
0

>  <SCORE.heavy>
40

>  <SCORE.norm>
0.532738

>  <RMSD>
33.517

$$$$
2g5q_lig
 OpenBabel11021811433D
libRbt.so/2013.1/901 2013/11/27
 40 42  0  0  0  0  0  0  0  0999 V2000
   22.9908    2.9535   -2.7332 C   0  0  2  0  0  0  0  0  0  0  0  0
   23.7383    4.1187   -2.4632 O   0  0  0  0  0  0  0  0  0  0  0  0
   21.9742    3.2619   -3.8718 C   0  0  1  0  0  0  0  0  0  0  0  0
   20.8863    4.2843   -3.4194 C   0  0  2  0  0  0  0  0  0  0  0  0
   20.1402    3.6759   -2.2036 C   0  0  2  0  0  0  0  0  0  0  0  0
   19.1114    4.5804   -1.7704 O   0  0  0  0  0  0  0  0  0  0  0  0
   21.1950    3.4182   -1.0524 C   0  0  2  0  0  0  0  0  0  0  0  0
   22.2542    2.4841   -1.5302 O   0  0  0  0  0  0  0  0  0  0  0  0
   20.5688    2.8038    0.1950 C   0  0  0  0  0  0  0  0  0  0  0  0
   20.0241    1.4339   -0.0665 N   0  0  0  0  0  0  0  0  0  0  0  0
   23.3393    8.1748   -0.8928 C   0  0  2  0  0  0  0  0  0  0  0  0
   22.7538    9.3872   -0.3331 N   0  0  0  0  0  0  0  0  0  0  0  0
   22.6552    7.8253   -2.2805 C   0  0  0  0  0  0  0  0  0  0  0  0
   23.2916    6.5163   -2.8938 C   0  0  2  0  0  0  0  0  0  0  0  0
   22.6494    6.2059   -4.1997 N   0  0  0  0  0  0  0  0  0  0  0  0
   23.1265    5.3213   -1.8727 C   0  0  2  0  0  0  0  0  0  0  0  0
   23.8152    5.7076   -0.5040 C   0  0  2  0  0  0  0  0  0  0  0  0
   23.6589    4.6268    0.4208 O   0  0  0  0  0  0  0  0  0  0  0  0
   23.1552    7.0065    0.0978 C   0  0  1  0  0  0  0  0  0  0  0  0
   23.7996    7.3670    1.3521 O   0  0  0  0  0  0  0  0  0  0  0  0
   23.4697    6.8071    2.5994 C   0  0  2  0  0  0  0  0  0  0  0  0
   24.1272    7.7017    3.7042 C   0  0  2  0  0  0  0  0  0  0  0  0
   23.6337    8.9992    3.6063 O   0  0  0  0  0  0  0  0  0  0  0  0
   25.6985    7.6863    3.5884 C   0  0  1  0  0  0  0  0  0  0  0  0
   26.3380    8.5370    4.6456 N   0  0  0  0  0  0  0  0  0  0  0  0
   26.1899    6.1886    3.7013 C   0  0  2  0  0  0  0  0  0  0  0  0
   27.6139    6.1110    3.6103 O   0  0  0  0  0  0  0  0  0  0  0  0
   25.5003    5.3506    2.5722 C   0  0  2  0  0  0  0  0  0  0  0  0
   24.0030    5.4353    2.6764 O   0  0  0  0  0  0  0  0  0  0  0  0
   25.8951    3.9035    2.6336 C   0  0  0  0  0  0  0  0  0  0  0  0
   27.3232    3.7501    2.5912 O   0  0  0  0  0  0  0  0  0  0  0  0
   22.7202    3.7636   -5.0337 O   0  0  0  0  0  0  0  0  0  0  0  0
   20.0093    4.5094   -4.4574 O   0  0  0  0  0  0  0  0  0  0  0  0
   20.3184   12.5662    2.5579 N   0  0  0  0  0  0  0  0  0  0  0  0
   23.4113   10.6008   -0.1880 C   0  0  0  0  0  0  0  0  0  0  0  0
   24.5785   10.7892   -0.5126 O   0  0  0  0  0  0  0  0  0  0  0  0
   22.5119   11.6871    0.4458 C   0  0  1  0  0  0  0  0  0  0  0  0
   22.5023   11.5359    1.9805 C   0  0  0  0  0  0  0  0  0  0  0  0
   21.1235   11.3483    2.6240 C   0  0  0  0  0  0  0  0  0  0  0  0
   23.0006   12.9911    0.0586 O   0  0  0  0  0  0  0  0  0  0  0  0
  1  2  1  1  0  0  0
  1  3  1  0  0  0  0
  1  8  1  0  0  0  0
  3  4  1  0  0  0  0
  3 32  1  6  0  0  0
  4  5  1  0  0  0  0
  4 33  1  6  0  0  0
  5  6  1  1  0  0  0
  5  7  1  0  0  0  0
  7  8  1  0  0  0  0
  7  9  1  1  0  0  0
  9 10  1  0  0  0  0
 11 12  1  1  0  0  0
 11 13  1  0  0  0  0
 11 19  1  0  0  0  0
 12 35  1  0  0  0  0
 13 14  1  0  0  0  0
 14 15  1  6  0  0  0
 14 16  1  0  0  0  0
 16  2  1  6  0  0  0
 16 17  1  0  0  0  0
 17 18  1  1  0  0  0
 17 19  1  0  0  0  0
 19 20  1  1  0  0  0
 21 20  1  6  0  0  0
 21 22  1  0  0  0  0
 21 29  1  0  0  0  0
 22 23  1  6  0  0  0
 22 24  1  0  0  0  0
 24 25  1  1  0  0  0
 24 26  1  0  0  0  0
 26 27  1  6  0  0  0
 26 28  1  0  0  0  0
 28 29  1  0  0  0  0
 28 30  1  1  0  0  0
 30 31  1  0  0  0  0
 34 39  1  0  0  0  0
 35 36  2  0  0  0  0
 37 35  1  6  0  0  0
 37 38  1  0  0  0  0
 37 40  1  0  0  0  0
 38 39  1  0  0  0  0
M  END
>  <CHROM.1>
67.18760778,64.66232554,-112.14776461,-118.92976919,156.96846215,-166.30670369
-55.21123043,82.36243574,-122.95554060,-69.93925307,23.14071896,6.51756819
0.08384481,-2.06602207,-0.91048368,0.29758917

>  <Name>
2g5q_lig

>  <RI>
224

>  <Rbt.Current_Directory>
/home/itssahil/PROJECTS/Mol_Feturizer/New_Systems/rnas/2g5q

>  <Rbt.Executable>
rbdock ($Id: //depot/dev/client3/rdock/2013.1/src/exe/rbdock.cxx#4 $)

>  <Rbt.Library>
libRbt.so (2013.1, Build901 2013/11/27)

>  <Rbt.Parameter_File>
/export/apps/rDock/src/rDock_2013.1_src/data/scripts/dock_solv.prm

>  <Rbt.Receptor>
prm/blind_docking_60.prm

>  <SCORE>
11.6373

>  <SCORE.INTER>
-10.1384

>  <SCORE.INTER.CONST>
1

>  <SCORE.INTER.POLAR>
-0.415141

>  <SCORE.INTER.ROT>
10

>  <SCORE.INTER.SOLV>
20.9052

>  <SCORE.INTER.VDW>
-22.6102

>  <SCORE.INTER.norm>
-0.25346

>  <SCORE.INTRA>
3.06584

>  <SCORE.INTRA.DIHEDRAL>
-3.81285

>  <SCORE.INTRA.DIHEDRAL.0>
22.5778

>  <SCORE.INTRA.POLAR>
0

>  <SCORE.INTRA.POLAR.0>
0

>  <SCORE.INTRA.REPUL>
0

>  <SCORE.INTRA.REPUL.0>
0

>  <SCORE.INTRA.SOLV>
7.09776

>  <SCORE.INTRA.SOLV.lig_0>
-102.332

>  <SCORE.INTRA.VDW>
1.42338

>  <SCORE.INTRA.VDW.0>
-5.08747

>  <SCORE.INTRA.norm>
0.0766459

>  <SCORE.RESTR>
18.7099

>  <SCORE.RESTR.CAVITY>
18.7099

>  <SCORE.RESTR.norm>
0.467747

>  <SCORE.SYSTEM>
0

>  <SCORE.SYSTEM.CONST>
0

>  <SCORE.SYSTEM.DIHEDRAL>
0

>  <SCORE.SYSTEM.SOLV>
0

>  <SCORE.SYSTEM.norm>
0

>  <SCORE.heavy>
40

>  <SCORE.norm>
0.290933

>  <RMSD>
33.523

$$$$
2g5q_lig
 OpenBabel11021811433D
libRbt.so/2013.1/901 2013/11/27
 40 42  0  0  0  0  0  0  0  0999 V2000
   23.7522    2.7824   -2.7053 C   0  0  2  0  0  0  0  0  0  0  0  0
   24.1129    4.1408   -2.8247 O   0  0  0  0  0  0  0  0  0  0  0  0
   22.8159    2.4056   -3.8911 C   0  0  1  0  0  0  0  0  0  0  0  0
   21.4449    3.1453   -3.8078 C   0  0  2  0  0  0  0  0  0  0  0  0
   20.7739    2.7507   -2.4666 C   0  0  2  0  0  0  0  0  0  0  0  0
   19.4943    3.3956   -2.3623 O   0  0  0  0  0  0  0  0  0  0  0  0
   21.7312    3.1886   -1.2851 C   0  0  2  0  0  0  0  0  0  0  0  0
   23.0528    2.5121   -1.4216 O   0  0  0  0  0  0  0  0  0  0  0  0
   21.1731    2.8340    0.0890 C   0  0  0  0  0  0  0  0  0  0  0  0
   20.1193    3.8002    0.5337 N   0  0  0  0  0  0  0  0  0  0  0  0
   23.2987    7.9415   -0.8326 C   0  0  2  0  0  0  0  0  0  0  0  0
   22.5888    9.0260   -0.1649 N   0  0  0  0  0  0  0  0  0  0  0  0
   22.6879    7.6921   -2.2750 C   0  0  0  0  0  0  0  0  0  0  0  0
   23.4588    6.5226   -3.0047 C   0  0  2  0  0  0  0  0  0  0  0  0
   22.8839    6.3064   -4.3600 N   0  0  0  0  0  0  0  0  0  0  0  0
   23.3769    5.2097   -2.1286 C   0  0  2  0  0  0  0  0  0  0  0  0
   23.9894    5.4981   -0.7008 C   0  0  2  0  0  0  0  0  0  0  0  0
   23.9084    4.3099    0.0927 O   0  0  0  0  0  0  0  0  0  0  0  0
   23.1963    6.6568    0.0155 C   0  0  1  0  0  0  0  0  0  0  0  0
   23.7702    6.9287    1.3251 O   0  0  0  0  0  0  0  0  0  0  0  0
   23.3881    6.2697    2.5075 C   0  0  2  0  0  0  0  0  0  0  0  0
   23.4745    7.3111    3.6742 C   0  0  2  0  0  0  0  0  0  0  0  0
   22.6184    8.3761    3.4111 O   0  0  0  0  0  0  0  0  0  0  0  0
   24.9534    7.8145    3.8794 C   0  0  1  0  0  0  0  0  0  0  0  0
   25.0474    8.8093    4.9982 N   0  0  0  0  0  0  0  0  0  0  0  0
   25.8695    6.5594    4.1672 C   0  0  2  0  0  0  0  0  0  0  0  0
   27.2276    6.9552    4.3700 O   0  0  0  0  0  0  0  0  0  0  0  0
   25.7402    5.5613    2.9673 C   0  0  2  0  0  0  0  0  0  0  0  0
   24.3095    5.1479    2.7621 O   0  0  0  0  0  0  0  0  0  0  0  0
   26.5615    4.3233    3.1825 C   0  0  0  0  0  0  0  0  0  0  0  0
   26.4244    3.4086    2.0828 O   0  0  0  0  0  0  0  0  0  0  0  0
   23.5108    2.7206   -5.1465 O   0  0  0  0  0  0  0  0  0  0  0  0
   20.6544    2.7660   -4.8701 O   0  0  0  0  0  0  0  0  0  0  0  0
   22.7643   13.9282   -0.4726 N   0  0  0  0  0  0  0  0  0  0  0  0
   23.1303   10.2652    0.1468 C   0  0  0  0  0  0  0  0  0  0  0  0
   24.2867   10.5882   -0.1019 O   0  0  0  0  0  0  0  0  0  0  0  0
   22.1167   11.1898    0.8597 C   0  0  1  0  0  0  0  0  0  0  0  0
   21.2798   11.9593   -0.1822 C   0  0  0  0  0  0  0  0  0  0  0  0
   22.0719   12.8382   -1.1571 C   0  0  0  0  0  0  0  0  0  0  0  0
   21.2685   10.3913    1.7154 O   0  0  0  0  0  0  0  0  0  0  0  0
  1  2  1  6  0  0  0
  1  3  1  0  0  0  0
  1  8  1  0  0  0  0
  3  4  1  0  0  0  0
  3 32  1  6  0  0  0
  4  5  1  0  0  0  0
  4 33  1  6  0  0  0
  5  6  1  1  0  0  0
  5  7  1  0  0  0  0
  7  8  1  0  0  0  0
  7  9  1  1  0  0  0
  9 10  1  0  0  0  0
 11 12  1  1  0  0  0
 11 13  1  0  0  0  0
 11 19  1  0  0  0  0
 12 35  1  0  0  0  0
 13 14  1  0  0  0  0
 14 15  1  6  0  0  0
 14 16  1  0  0  0  0
 16  2  1  6  0  0  0
 16 17  1  0  0  0  0
 17 18  1  1  0  0  0
 17 19  1  0  0  0  0
 19 20  1  1  0  0  0
 21 20  1  6  0  0  0
 21 22  1  0  0  0  0
 21 29  1  0  0  0  0
 22 23  1  6  0  0  0
 22 24  1  0  0  0  0
 24 25  1  1  0  0  0
 24 26  1  0  0  0  0
 26 27  1  6  0  0  0
 26 28  1  0  0  0  0
 28 29  1  0  0  0  0
 28 30  1  1  0  0  0
 30 31  1  0  0  0  0
 34 39  1  0  0  0  0
 35 36  2  0  0  0  0
 37 35  1  6  0  0  0
 37 38  1  0  0  0  0
 37 40  1  0  0  0  0
 38 39  1  0  0  0  0
M  END
>  <CHROM.1>
94.56740087,-78.48260224,-112.66536009,-149.49349749,152.11532028,-145.16684058
179.38574195,-86.78459228,-58.78457575,-64.12153276,23.21510243,6.32271449
-0.08245240,-1.96027431,-1.05334979,0.32238922

>  <Name>
2g5q_lig

>  <RI>
0

>  <Rbt.Current_Directory>
/home/itssahil/PROJECTS/Mol_Feturizer/New_Systems/rnas/2g5q

>  <Rbt.Executable>
rbdock ($Id: //depot/dev/client3/rdock/2013.1/src/exe/rbdock.cxx#4 $)

>  <Rbt.Library>
libRbt.so (2013.1, Build901 2013/11/27)

>  <Rbt.Parameter_File>
/export/apps/rDock/src/rDock_2013.1_src/data/scripts/dock_solv.prm

>  <Rbt.Receptor>
prm/blind_docking_40.prm

>  <SCORE>
16.915

>  <SCORE.INTER>
5.77769

>  <SCORE.INTER.CONST>
1

>  <SCORE.INTER.POLAR>
-1.30108

>  <SCORE.INTER.ROT>
10

>  <SCORE.INTER.SOLV>
31.1549

>  <SCORE.INTER.VDW>
-12.4629

>  <SCORE.INTER.norm>
0.144442

>  <SCORE.INTRA>
1.79699

>  <SCORE.INTRA.DIHEDRAL>
-2.88877

>  <SCORE.INTRA.DIHEDRAL.0>
22.5778

>  <SCORE.INTRA.POLAR>
0

>  <SCORE.INTRA.POLAR.0>
0

>  <SCORE.INTRA.REPUL>
0

>  <SCORE.INTRA.REPUL.0>
0

>  <SCORE.INTRA.SOLV>
5.33464

>  <SCORE.INTRA.SOLV.lig_0>
-102.332

>  <SCORE.INTRA.VDW>
0.57406

>  <SCORE.INTRA.VDW.0>
-5.08747

>  <SCORE.INTRA.norm>
0.0449249

>  <SCORE.RESTR>
9.34027

>  <SCORE.RESTR.CAVITY>
9.34027

>  <SCORE.RESTR.norm>
0.233507

>  <SCORE.SYSTEM>
0

>  <SCORE.SYSTEM.CONST>
0

>  <SCORE.SYSTEM.DIHEDRAL>
0

>  <SCORE.SYSTEM.SOLV>
0

>  <SCORE.SYSTEM.norm>
0

>  <SCORE.heavy>
40

>  <SCORE.norm>
0.422874

>  <RMSD>
33.578

$$$$
2g5q_lig
 OpenBabel11021811433D
libRbt.so/2013.1/901 2013/11/27
 40 42  0  0  0  0  0  0  0  0999 V2000
   24.1483    5.8628    4.2104 C   0  0  2  0  0  0  0  0  0  0  0  0
   24.5919    7.1988    4.1224 O   0  0  0  0  0  0  0  0  0  0  0  0
   25.3775    4.9415    4.4656 C   0  0  1  0  0  0  0  0  0  0  0  0
   26.3472    4.9135    3.2440 C   0  0  2  0  0  0  0  0  0  0  0  0
   25.5511    4.3947    2.0184 C   0  0  2  0  0  0  0  0  0  0  0  0
   26.4183    4.3323    0.8745 O   0  0  0  0  0  0  0  0  0  0  0  0
   24.3386    5.3786    1.7619 C   0  0  2  0  0  0  0  0  0  0  0  0
   23.4602    5.4309    2.9654 O   0  0  0  0  0  0  0  0  0  0  0  0
   23.4738    4.9538    0.5798 C   0  0  0  0  0  0  0  0  0  0  0  0
   24.2718    4.8178   -0.6798 N   0  0  0  0  0  0  0  0  0  0  0  0
   24.2226   10.6175    1.4292 C   0  0  2  0  0  0  0  0  0  0  0  0
   24.1505   11.4122    0.2089 N   0  0  0  0  0  0  0  0  0  0  0  0
   25.6121    9.8566    1.5069 C   0  0  0  0  0  0  0  0  0  0  0  0
   25.6974    8.9999    2.8311 C   0  0  2  0  0  0  0  0  0  0  0  0
   27.0091    8.3005    2.8973 N   0  0  0  0  0  0  0  0  0  0  0  0
   24.4955    7.9744    2.8741 C   0  0  2  0  0  0  0  0  0  0  0  0
   23.1315    8.7677    2.7903 C   0  0  2  0  0  0  0  0  0  0  0  0
   22.0451    7.8369    2.8230 O   0  0  0  0  0  0  0  0  0  0  0  0
   23.0607    9.6029    1.4552 C   0  0  1  0  0  0  0  0  0  0  0  0
   21.8089   10.3422    1.3865 O   0  0  0  0  0  0  0  0  0  0  0  0
   20.9085   10.2730    0.3082 C   0  0  2  0  0  0  0  0  0  0  0  0
   19.5582    9.7026    0.8600 C   0  0  2  0  0  0  0  0  0  0  0  0
   19.0676   10.5469    1.8514 O   0  0  0  0  0  0  0  0  0  0  0  0
   19.7412    8.2367    1.4080 C   0  0  1  0  0  0  0  0  0  0  0  0
   18.4518    7.6797    1.9348 N   0  0  0  0  0  0  0  0  0  0  0  0
   20.3041    7.3360    0.2379 C   0  0  2  0  0  0  0  0  0  0  0  0
   20.4847    5.9873    0.6743 O   0  0  0  0  0  0  0  0  0  0  0  0
   21.6506    7.9568   -0.2664 C   0  0  2  0  0  0  0  0  0  0  0  0
   21.4517    9.3742   -0.7259 O   0  0  0  0  0  0  0  0  0  0  0  0
   22.2338    7.1705   -1.4045 C   0  0  0  0  0  0  0  0  0  0  0  0
   23.6590    7.3384   -1.4783 O   0  0  0  0  0  0  0  0  0  0  0  0
   26.0649    5.4131    5.6752 O   0  0  0  0  0  0  0  0  0  0  0  0
   27.4058    4.0759    3.5185 O   0  0  0  0  0  0  0  0  0  0  0  0
   21.9901   11.6180   -4.3767 N   0  0  0  0  0  0  0  0  0  0  0  0
   23.9342   10.9058   -1.0650 C   0  0  0  0  0  0  0  0  0  0  0  0
   23.7848    9.7139   -1.3107 O   0  0  0  0  0  0  0  0  0  0  0  0
   23.9196   12.0120   -2.1451 C   0  0  1  0  0  0  0  0  0  0  0  0
   22.5308   12.6802   -2.1986 C   0  0  0  0  0  0  0  0  0  0  0  0
   21.4780   11.9639   -3.0523 C   0  0  0  0  0  0  0  0  0  0  0  0
   24.9479   12.9819   -1.8431 O   0  0  0  0  0  0  0  0  0  0  0  0
  1  2  1  6  0  0  0
  1  3  1  0  0  0  0
  1  8  1  0  0  0  0
  3  4  1  0  0  0  0
  3 32  1  1  0  0  0
  4  5  1  0  0  0  0
  4 33  1  1  0  0  0
  5  6  1  6  0  0  0
  5  7  1  0  0  0  0
  7  8  1  0  0  0  0
  7  9  1  6  0  0  0
  9 10  1  0  0  0  0
 11 12  1  6  0  0  0
 11 13  1  0  0  0  0
 11 19  1  0  0  0  0
 12 35  1  0  0  0  0
 13 14  1  0  0  0  0
 14 15  1  6  0  0  0
 14 16  1  0  0  0  0
 16  2  1  1  0  0  0
 16 17  1  0  0  0  0
 17 18  1  6  0  0  0
 17 19  1  0  0  0  0
 19 20  1  1  0  0  0
 21 20  1  1  0  0  0
 21 22  1  0  0  0  0
 21 29  1  0  0  0  0
 22 23  1  1  0  0  0
 22 24  1  0  0  0  0
 24 25  1  6  0  0  0
 24 26  1  0  0  0  0
 26 27  1  1  0  0  0
 26 28  1  0  0  0  0
 28 29  1  0  0  0  0
 28 30  1  6  0  0  0
 30 31  1  0  0  0  0
 34 39  1  0  0  0  0
 35 36  2  0  0  0  0
 37 35  1  1  0  0  0
 37 38  1  0  0  0  0
 37 40  1  0  0  0  0
 38 39  1  0  0  0  0
M  END
>  <CHROM.1>
114.36575628,-56.34584585,75.40492860,-148.83803393,114.49309197,118.08246068
-154.49017685,-82.27247858,-84.03284428,-48.80405190,23.32557059,8.19915740
1.01539639,1.12605416,0.05240847,2.49616835

>  <Name>
2g5q_lig

>  <RI>
224

>  <Rbt.Current_Directory>
/home/itssahil/PROJECTS/Mol_Feturizer/New_Systems/rnas/2g5q

>  <Rbt.Executable>
rbdock ($Id: //depot/dev/client3/rdock/2013.1/src/exe/rbdock.cxx#4 $)

>  <Rbt.Library>
libRbt.so (2013.1, Build901 2013/11/27)

>  <Rbt.Parameter_File>
/export/apps/rDock/src/rDock_2013.1_src/data/scripts/dock_solv.prm

>  <Rbt.Receptor>
prm/blind_docking_100.prm

>  <SCORE>
28.6536

>  <SCORE.INTER>
2.9001

>  <SCORE.INTER.CONST>
1

>  <SCORE.INTER.POLAR>
-1.15144

>  <SCORE.INTER.ROT>
10

>  <SCORE.INTER.SOLV>
29.726

>  <SCORE.INTER.VDW>
-14.4038

>  <SCORE.INTER.norm>
0.0725025

>  <SCORE.INTRA>
10.6498

>  <SCORE.INTRA.DIHEDRAL>
8.30502

>  <SCORE.INTRA.DIHEDRAL.0>
22.5778

>  <SCORE.INTRA.POLAR>
0

>  <SCORE.INTRA.POLAR.0>
0

>  <SCORE.INTRA.REPUL>
0

>  <SCORE.INTRA.REPUL.0>
0

>  <SCORE.INTRA.SOLV>
10.4643

>  <SCORE.INTRA.SOLV.lig_0>
-102.332

>  <SCORE.INTRA.VDW>
1.26518

>  <SCORE.INTRA.VDW.0>
-5.08747

>  <SCORE.INTRA.norm>
0.266246

>  <SCORE.RESTR>
15.1037

>  <SCORE.RESTR.CAVITY>
15.1037

>  <SCORE.RESTR.norm>
0.377593

>  <SCORE.SYSTEM>
0

>  <SCORE.SYSTEM.CONST>
0

>  <SCORE.SYSTEM.DIHEDRAL>
0

>  <SCORE.SYSTEM.SOLV>
0

>  <SCORE.SYSTEM.norm>
0

>  <SCORE.heavy>
40

>  <SCORE.norm>
0.716341

>  <RMSD>
33.589

$$$$
2g5q_lig
 OpenBabel11021811433D
libRbt.so/2013.1/901 2013/11/27
 40 42  0  0  0  0  0  0  0  0999 V2000
   24.5550    5.8484    3.5490 C   0  0  2  0  0  0  0  0  0  0  0  0
   25.0263    7.1752    3.4653 O   0  0  0  0  0  0  0  0  0  0  0  0
   25.6950    4.8820    3.1116 C   0  0  1  0  0  0  0  0  0  0  0  0
   26.0431    5.0399    1.5991 C   0  0  2  0  0  0  0  0  0  0  0  0
   24.7597    4.7372    0.7830 C   0  0  2  0  0  0  0  0  0  0  0  0
   25.0460    4.8498   -0.6205 O   0  0  0  0  0  0  0  0  0  0  0  0
   23.6393    5.7652    1.2208 C   0  0  2  0  0  0  0  0  0  0  0  0
   23.3676    5.6330    2.6808 O   0  0  0  0  0  0  0  0  0  0  0  0
   22.3204    5.5490    0.4864 C   0  0  0  0  0  0  0  0  0  0  0  0
   21.2387    6.4494    0.9973 N   0  0  0  0  0  0  0  0  0  0  0  0
   22.0602    9.8189    1.6515 C   0  0  2  0  0  0  0  0  0  0  0  0
   21.1323   10.9270    1.4597 N   0  0  0  0  0  0  0  0  0  0  0  0
   21.6453    8.9701    2.9256 C   0  0  0  0  0  0  0  0  0  0  0  0
   22.6439    7.7642    3.1330 C   0  0  2  0  0  0  0  0  0  0  0  0
   22.2374    6.9701    4.3238 N   0  0  0  0  0  0  0  0  0  0  0  0
   24.1159    8.3189    3.2862 C   0  0  2  0  0  0  0  0  0  0  0  0
   24.4909    9.1607    2.0027 C   0  0  2  0  0  0  0  0  0  0  0  0
   25.8217    9.6672    2.1465 O   0  0  0  0  0  0  0  0  0  0  0  0
   23.4920   10.3670    1.8234 C   0  0  1  0  0  0  0  0  0  0  0  0
   23.8322   11.1333    0.6337 O   0  0  0  0  0  0  0  0  0  0  0  0
   24.3813   10.5759   -0.5351 C   0  0  2  0  0  0  0  0  0  0  0  0
   24.5814   11.7416   -1.5619 C   0  0  2  0  0  0  0  0  0  0  0  0
   25.4433   12.6923   -1.0237 O   0  0  0  0  0  0  0  0  0  0  0  0
   23.2028   12.3922   -1.9602 C   0  0  1  0  0  0  0  0  0  0  0  0
   23.3836   13.5072   -2.9473 N   0  0  0  0  0  0  0  0  0  0  0  0
   22.2740   11.2611   -2.5564 C   0  0  2  0  0  0  0  0  0  0  0  0
   21.0062   11.7943   -2.9444 O   0  0  0  0  0  0  0  0  0  0  0  0
   22.1127   10.1310   -1.4843 C   0  0  2  0  0  0  0  0  0  0  0  0
   23.4501    9.5737   -1.0834 O   0  0  0  0  0  0  0  0  0  0  0  0
   21.2646    9.0006   -1.9909 C   0  0  0  0  0  0  0  0  0  0  0  0
   21.0026    8.0400   -0.9548 O   0  0  0  0  0  0  0  0  0  0  0  0
   26.8699    5.1423    3.9542 O   0  0  0  0  0  0  0  0  0  0  0  0
   27.0446    4.1553    1.2648 O   0  0  0  0  0  0  0  0  0  0  0  0
   17.8801   12.7054    4.4455 N   0  0  0  0  0  0  0  0  0  0  0  0
   20.2434   11.4016    2.4140 C   0  0  0  0  0  0  0  0  0  0  0  0
   20.1327   10.9293    3.5401 O   0  0  0  0  0  0  0  0  0  0  0  0
   19.3938   12.5837    1.8931 C   0  0  1  0  0  0  0  0  0  0  0  0
   17.8933   12.2461    2.0055 C   0  0  0  0  0  0  0  0  0  0  0  0
   17.4101   11.8072    3.3927 C   0  0  0  0  0  0  0  0  0  0  0  0
   19.7148   13.7692    2.6553 O   0  0  0  0  0  0  0  0  0  0  0  0
  1  2  1  6  0  0  0
  1  3  1  0  0  0  0
  1  8  1  0  0  0  0
  3  4  1  0  0  0  0
  3 32  1  1  0  0  0
  4  5  1  0  0  0  0
  4 33  1  6  0  0  0
  5  6  1  6  0  0  0
  5  7  1  0  0  0  0
  7  8  1  0  0  0  0
  7  9  1  6  0  0  0
  9 10  1  0  0  0  0
 11 12  1  1  0  0  0
 11 13  1  0  0  0  0
 11 19  1  0  0  0  0
 12 35  1  0  0  0  0
 13 14  1  0  0  0  0
 14 15  1  1  0  0  0
 14 16  1  0  0  0  0
 16  2  1  6  0  0  0
 16 17  1  0  0  0  0
 17 18  1  1  0  0  0
 17 19  1  0  0  0  0
 19 20  1  6  0  0  0
 21 20  1  1  0  0  0
 21 22  1  0  0  0  0
 21 29  1  0  0  0  0
 22 23  1  1  0  0  0
 22 24  1  0  0  0  0
 24 25  1  6  0  0  0
 24 26  1  0  0  0  0
 26 27  1  1  0  0  0
 26 28  1  0  0  0  0
 28 29  1  0  0  0  0
 28 30  1  6  0  0  0
 30 31  1  0  0  0  0
 34 39  1  0  0  0  0
 35 36  2  0  0  0  0
 37 35  1  1  0  0  0
 37 38  1  0  0  0  0
 37 40  1  0  0  0  0
 38 39  1  0  0  0  0
M  END
>  <CHROM.1>
155.37177878,174.98824103,16.02921052,-3.21553420,-86.58142190,179.61974207
-173.72047052,122.58749735,53.78235637,48.05773850,22.82260445,9.09966217
1.17463385,0.71571652,-0.71371888,2.30952410

>  <Name>
2g5q_lig

>  <RI>
224

>  <Rbt.Current_Directory>
/home/itssahil/PROJECTS/Mol_Feturizer/New_Systems/rnas/2g5q

>  <Rbt.Executable>
rbdock ($Id: //depot/dev/client3/rdock/2013.1/src/exe/rbdock.cxx#4 $)

>  <Rbt.Library>
libRbt.so (2013.1, Build901 2013/11/27)

>  <Rbt.Parameter_File>
/export/apps/rDock/src/rDock_2013.1_src/data/scripts/dock_solv.prm

>  <Rbt.Receptor>
prm/blind_docking_100.prm

>  <SCORE>
38.1502

>  <SCORE.INTER>
1.82708

>  <SCORE.INTER.CONST>
1

>  <SCORE.INTER.POLAR>
-0.097022

>  <SCORE.INTER.ROT>
10

>  <SCORE.INTER.SOLV>
29.0695

>  <SCORE.INTER.VDW>
-18.415

>  <SCORE.INTER.norm>
0.0456771

>  <SCORE.INTRA>
17.8976

>  <SCORE.INTRA.DIHEDRAL>
-5.52666

>  <SCORE.INTRA.DIHEDRAL.0>
22.5778

>  <SCORE.INTRA.POLAR>
0

>  <SCORE.INTRA.POLAR.0>
0

>  <SCORE.INTRA.REPUL>
0

>  <SCORE.INTRA.REPUL.0>
0

>  <SCORE.INTRA.SOLV>
12.8423

>  <SCORE.INTRA.SOLV.lig_0>
-102.332

>  <SCORE.INTRA.VDW>
14.2398

>  <SCORE.INTRA.VDW.0>
-5.08747

>  <SCORE.INTRA.norm>
0.447441

>  <SCORE.RESTR>
18.4255

>  <SCORE.RESTR.CAVITY>
18.4255

>  <SCORE.RESTR.norm>
0.460638

>  <SCORE.SYSTEM>
0

>  <SCORE.SYSTEM.CONST>
0

>  <SCORE.SYSTEM.DIHEDRAL>
0

>  <SCORE.SYSTEM.SOLV>
0

>  <SCORE.SYSTEM.norm>
0

>  <SCORE.heavy>
40

>  <SCORE.norm>
0.953755

>  <RMSD>
33.602

$$$$
2g5q_lig
 OpenBabel11021811433D
libRbt.so/2013.1/901 2013/11/27
 40 42  0  0  0  0  0  0  0  0999 V2000
   24.5239    5.4172    4.1584 C   0  0  2  0  0  0  0  0  0  0  0  0
   24.7013    6.8160    4.1233 O   0  0  0  0  0  0  0  0  0  0  0  0
   25.8975    4.7441    4.4502 C   0  0  1  0  0  0  0  0  0  0  0  0
   26.9047    4.9445    3.2759 C   0  0  2  0  0  0  0  0  0  0  0  0
   26.2776    4.3213    2.0018 C   0  0  2  0  0  0  0  0  0  0  0  0
   27.1878    4.4655    0.8994 O   0  0  0  0  0  0  0  0  0  0  0  0
   24.9082    5.0590    1.7110 C   0  0  2  0  0  0  0  0  0  0  0  0
   23.9865    4.9007    2.8722 O   0  0  0  0  0  0  0  0  0  0  0  0
   24.1938    4.5131    0.4793 C   0  0  0  0  0  0  0  0  0  0  0  0
   22.8997    5.2205    0.2209 N   0  0  0  0  0  0  0  0  0  0  0  0
   23.6827   10.1582    1.5023 C   0  0  2  0  0  0  0  0  0  0  0  0
   23.4985   10.9647    0.3018 N   0  0  0  0  0  0  0  0  0  0  0  0
   25.2083    9.7551    1.6637 C   0  0  0  0  0  0  0  0  0  0  0  0
   25.4136    8.8871    2.9671 C   0  0  2  0  0  0  0  0  0  0  0  0
   26.8495    8.5253    3.1128 N   0  0  0  0  0  0  0  0  0  0  0  0
   24.5002    7.5994    2.8925 C   0  0  2  0  0  0  0  0  0  0  0  0
   22.9918    8.0403    2.7279 C   0  0  2  0  0  0  0  0  0  0  0  0
   22.1675    6.8728    2.6542 O   0  0  0  0  0  0  0  0  0  0  0  0
   22.8065    8.8915    1.4141 C   0  0  1  0  0  0  0  0  0  0  0  0
   21.4188    9.3066    1.2714 O   0  0  0  0  0  0  0  0  0  0  0  0
   20.4256    9.0910    2.2437 C   0  0  2  0  0  0  0  0  0  0  0  0
   19.0415    9.0997    1.5107 C   0  0  2  0  0  0  0  0  0  0  0  0
   19.0154    8.0890    0.5546 O   0  0  0  0  0  0  0  0  0  0  0  0
   18.7535   10.5031    0.8549 C   0  0  1  0  0  0  0  0  0  0  0  0
   17.4274   10.5229    0.1540 N   0  0  0  0  0  0  0  0  0  0  0  0
   18.8037   11.6012    1.9903 C   0  0  2  0  0  0  0  0  0  0  0  0
   18.5416   12.9001    1.4554 O   0  0  0  0  0  0  0  0  0  0  0  0
   20.2083   11.5420    2.6803 C   0  0  2  0  0  0  0  0  0  0  0  0
   20.4754   10.1736    3.2424 O   0  0  0  0  0  0  0  0  0  0  0  0
   20.3224   12.5397    3.7962 C   0  0  0  0  0  0  0  0  0  0  0  0
   19.3846   12.2563    4.8474 O   0  0  0  0  0  0  0  0  0  0  0  0
   26.4279    5.3005    5.7020 O   0  0  0  0  0  0  0  0  0  0  0  0
   28.0939    4.3197    3.5806 O   0  0  0  0  0  0  0  0  0  0  0  0
   23.5385   14.6819   -2.5738 N   0  0  0  0  0  0  0  0  0  0  0  0
   23.3211   10.4637   -0.9803 C   0  0  0  0  0  0  0  0  0  0  0  0
   23.3069    9.2679   -1.2511 O   0  0  0  0  0  0  0  0  0  0  0  0
   23.1603   11.5832   -2.0344 C   0  0  1  0  0  0  0  0  0  0  0  0
   24.4535   12.4190   -2.1193 C   0  0  0  0  0  0  0  0  0  0  0  0
   24.4106   13.6199   -3.0712 C   0  0  0  0  0  0  0  0  0  0  0  0
   22.8458   10.9873   -3.3133 O   0  0  0  0  0  0  0  0  0  0  0  0
  1  2  1  6  0  0  0
  1  3  1  0  0  0  0
  1  8  1  0  0  0  0
  3  4  1  0  0  0  0
  3 32  1  1  0  0  0
  4  5  1  0  0  0  0
  4 33  1  1  0  0  0
  5  6  1  6  0  0  0
  5  7  1  0  0  0  0
  7  8  1  0  0  0  0
  7  9  1  6  0  0  0
  9 10  1  0  0  0  0
 11 12  1  6  0  0  0
 11 13  1  0  0  0  0
 11 19  1  0  0  0  0
 12 35  1  0  0  0  0
 13 14  1  0  0  0  0
 14 15  1  6  0  0  0
 14 16  1  0  0  0  0
 16  2  1  1  0  0  0
 16 17  1  0  0  0  0
 17 18  1  6  0  0  0
 17 19  1  0  0  0  0
 19 20  1  1  0  0  0
 21 20  1  6  0  0  0
 21 22  1  0  0  0  0
 21 29  1  0  0  0  0
 22 23  1  6  0  0  0
 22 24  1  0  0  0  0
 24 25  1  1  0  0  0
 24 26  1  0  0  0  0
 26 27  1  6  0  0  0
 26 28  1  0  0  0  0
 28 29  1  0  0  0  0
 28 30  1  1  0  0  0
 30 31  1  0  0  0  0
 34 39  1  0  0  0  0
 35 36  2  0  0  0  0
 37 35  1  1  0  0  0
 37 38  1  0  0  0  0
 37 40  1  0  0  0  0
 38 39  1  0  0  0  0
M  END
>  <CHROM.1>
114.74137758,179.89309781,84.42634517,-152.33797269,-113.36398409,-156.11398334
63.19768266,63.83984395,-176.64259371,69.79078787,23.04210127,8.73972163
1.56403753,0.82867189,-0.49071423,2.34428769

>  <Name>
2g5q_lig

>  <RI>
224

>  <Rbt.Current_Directory>
/home/itssahil/PROJECTS/Mol_Feturizer/New_Systems/rnas/2g5q

>  <Rbt.Executable>
rbdock ($Id: //depot/dev/client3/rdock/2013.1/src/exe/rbdock.cxx#4 $)

>  <Rbt.Library>
libRbt.so (2013.1, Build901 2013/11/27)

>  <Rbt.Parameter_File>
/export/apps/rDock/src/rDock_2013.1_src/data/scripts/dock_solv.prm

>  <Rbt.Receptor>
prm/blind_docking_100.prm

>  <SCORE>
13.1365

>  <SCORE.INTER>
-9.72026

>  <SCORE.INTER.CONST>
1

>  <SCORE.INTER.POLAR>
-0.488946

>  <SCORE.INTER.ROT>
10

>  <SCORE.INTER.SOLV>
22.3087

>  <SCORE.INTER.VDW>
-22.5533

>  <SCORE.INTER.norm>
-0.243007

>  <SCORE.INTRA>
3.63729

>  <SCORE.INTRA.DIHEDRAL>
-1.20748

>  <SCORE.INTRA.DIHEDRAL.0>
22.5778

>  <SCORE.INTRA.POLAR>
0

>  <SCORE.INTRA.POLAR.0>
0

>  <SCORE.INTRA.REPUL>
0

>  <SCORE.INTRA.REPUL.0>
0

>  <SCORE.INTRA.SOLV>
4.53733

>  <SCORE.INTRA.SOLV.lig_0>
-102.332

>  <SCORE.INTRA.VDW>
1.97237

>  <SCORE.INTRA.VDW.0>
-5.08747

>  <SCORE.INTRA.norm>
0.0909322

>  <SCORE.RESTR>
19.2195

>  <SCORE.RESTR.CAVITY>
19.2195

>  <SCORE.RESTR.norm>
0.480487

>  <SCORE.SYSTEM>
0

>  <SCORE.SYSTEM.CONST>
0

>  <SCORE.SYSTEM.DIHEDRAL>
0

>  <SCORE.SYSTEM.SOLV>
0

>  <SCORE.SYSTEM.norm>
0

>  <SCORE.heavy>
40

>  <SCORE.norm>
0.328413

>  <RMSD>
33.630

$$$$
2g5q_lig
 OpenBabel11021811433D
libRbt.so/2013.1/901 2013/11/27
 40 42  0  0  0  0  0  0  0  0999 V2000
   24.5833    5.9927    4.0778 C   0  0  2  0  0  0  0  0  0  0  0  0
   24.9995    7.2830    3.6886 O   0  0  0  0  0  0  0  0  0  0  0  0
   25.8435    5.1116    4.3233 C   0  0  1  0  0  0  0  0  0  0  0  0
   26.6341    4.8466    3.0049 C   0  0  2  0  0  0  0  0  0  0  0  0
   25.6795    4.1289    2.0156 C   0  0  2  0  0  0  0  0  0  0  0  0
   26.3796    3.8459    0.7933 O   0  0  0  0  0  0  0  0  0  0  0  0
   24.4351    5.0711    1.7552 C   0  0  2  0  0  0  0  0  0  0  0  0
   23.7322    5.3550    3.0390 O   0  0  0  0  0  0  0  0  0  0  0  0
   23.4178    4.4548    0.8007 C   0  0  0  0  0  0  0  0  0  0  0  0
   23.8484    4.5679   -0.6288 N   0  0  0  0  0  0  0  0  0  0  0  0
   21.9576    9.7172    1.7140 C   0  0  2  0  0  0  0  0  0  0  0  0
   20.9833   10.7722    1.4616 N   0  0  0  0  0  0  0  0  0  0  0  0
   21.5517    8.8936    3.0073 C   0  0  0  0  0  0  0  0  0  0  0  0
   22.6008    7.7450    3.2804 C   0  0  2  0  0  0  0  0  0  0  0  0
   22.2028    6.9734    4.4888 N   0  0  0  0  0  0  0  0  0  0  0  0
   24.0407    8.3748    3.4481 C   0  0  2  0  0  0  0  0  0  0  0  0
   24.4072    9.1893    2.1445 C   0  0  2  0  0  0  0  0  0  0  0  0
   25.7085    9.7638    2.3012 O   0  0  0  0  0  0  0  0  0  0  0  0
   23.3572   10.3392    1.8995 C   0  0  1  0  0  0  0  0  0  0  0  0
   23.6902   11.0798    0.6917 O   0  0  0  0  0  0  0  0  0  0  0  0
   24.3744   10.5315   -0.4080 C   0  0  2  0  0  0  0  0  0  0  0  0
   24.5787   11.6795   -1.4538 C   0  0  2  0  0  0  0  0  0  0  0  0
   25.3227   12.7053   -0.8787 O   0  0  0  0  0  0  0  0  0  0  0  0
   23.1965   12.2165   -1.9866 C   0  0  1  0  0  0  0  0  0  0  0  0
   23.3817   13.3137   -2.9927 N   0  0  0  0  0  0  0  0  0  0  0  0
   22.4036   11.0045   -2.6189 C   0  0  2  0  0  0  0  0  0  0  0  0
   21.1390   11.4327   -3.1284 O   0  0  0  0  0  0  0  0  0  0  0  0
   22.2317    9.8960   -1.5261 C   0  0  2  0  0  0  0  0  0  0  0  0
   23.5661    9.4492   -0.9972 O   0  0  0  0  0  0  0  0  0  0  0  0
   21.5114    8.6930   -2.0624 C   0  0  0  0  0  0  0  0  0  0  0  0
   22.1052    8.2324   -3.2872 O   0  0  0  0  0  0  0  0  0  0  0  0
   26.6886    5.7819    5.3206 O   0  0  0  0  0  0  0  0  0  0  0  0
   27.7273    4.0542    3.2776 O   0  0  0  0  0  0  0  0  0  0  0  0
   20.4906   12.4620    3.5598 N   0  0  0  0  0  0  0  0  0  0  0  0
   19.6067   10.5995    1.4277 C   0  0  0  0  0  0  0  0  0  0  0  0
   19.0483    9.5219    1.6016 O   0  0  0  0  0  0  0  0  0  0  0  0
   18.8539   11.9164    1.1284 C   0  0  1  0  0  0  0  0  0  0  0  0
   18.2787   12.5045    2.4328 C   0  0  0  0  0  0  0  0  0  0  0  0
   19.0633   12.1868    3.7110 C   0  0  0  0  0  0  0  0  0  0  0  0
   19.7622   12.8480    0.4987 O   0  0  0  0  0  0  0  0  0  0  0  0
  1  2  1  6  0  0  0
  1  3  1  0  0  0  0
  1  8  1  0  0  0  0
  3  4  1  0  0  0  0
  3 32  1  1  0  0  0
  4  5  1  0  0  0  0
  4 33  1  1  0  0  0
  5  6  1  6  0  0  0
  5  7  1  0  0  0  0
  7  8  1  0  0  0  0
  7  9  1  6  0  0  0
  9 10  1  0  0  0  0
 11 12  1  1  0  0  0
 11 13  1  0  0  0  0
 11 19  1  0  0  0  0
 12 35  1  0  0  0  0
 13 14  1  0  0  0  0
 14 15  1  1  0  0  0
 14 16  1  0  0  0  0
 16  2  1  6  0  0  0
 16 17  1  0  0  0  0
 17 18  1  1  0  0  0
 17 19  1  0  0  0  0
 19 20  1  6  0  0  0
 21 20  1  1  0  0  0
 21 22  1  0  0  0  0
 21 29  1  0  0  0  0
 22 23  1  1  0  0  0
 22 24  1  0  0  0  0
 24 25  1  6  0  0  0
 24 26  1  0  0  0  0
 26 27  1  1  0  0  0
 26 28  1  0  0  0  0
 28 29  1  0  0  0  0
 28 30  1  6  0  0  0
 30 31  1  0  0  0  0
 34 39  1  0  0  0  0
 35 36  2  0  0  0  0
 37 35  1  1  0  0  0
 37 38  1  0  0  0  0
 37 40  1  0  0  0  0
 38 39  1  0  0  0  0
M  END
>  <CHROM.1>
-176.84696752,-78.58552367,-49.45569022,-16.42432816,-91.04593329,-177.53150988
50.73189704,-101.36648567,29.49019311,49.41152072,23.11356892,8.85084380
1.20988758,0.75555356,-0.77979236,2.05752273

>  <Name>
2g5q_lig

>  <RI>
224

>  <Rbt.Current_Directory>
/home/itssahil/PROJECTS/Mol_Feturizer/New_Systems/rnas/2g5q

>  <Rbt.Executable>
rbdock ($Id: //depot/dev/client3/rdock/2013.1/src/exe/rbdock.cxx#4 $)

>  <Rbt.Library>
libRbt.so (2013.1, Build901 2013/11/27)

>  <Rbt.Parameter_File>
/export/apps/rDock/src/rDock_2013.1_src/data/scripts/dock_solv.prm

>  <Rbt.Receptor>
prm/blind_docking_100.prm

>  <SCORE>
22.9568

>  <SCORE.INTER>
-1.56145

>  <SCORE.INTER.CONST>
1

>  <SCORE.INTER.POLAR>
-1.0096

>  <SCORE.INTER.ROT>
10

>  <SCORE.INTER.SOLV>
29.7495

>  <SCORE.INTER.VDW>
-17.8588

>  <SCORE.INTER.norm>
-0.0390362

>  <SCORE.INTRA>
5.49627

>  <SCORE.INTRA.DIHEDRAL>
-6.09689

>  <SCORE.INTRA.DIHEDRAL.0>
22.5778

>  <SCORE.INTRA.POLAR>
0

>  <SCORE.INTRA.POLAR.0>
0

>  <SCORE.INTRA.REPUL>
0

>  <SCORE.INTRA.REPUL.0>
0

>  <SCORE.INTRA.SOLV>
8.56946

>  <SCORE.INTRA.SOLV.lig_0>
-102.332

>  <SCORE.INTRA.VDW>
4.25999

>  <SCORE.INTRA.VDW.0>
-5.08747

>  <SCORE.INTRA.norm>
0.137407

>  <SCORE.RESTR>
19.022

>  <SCORE.RESTR.CAVITY>
19.022

>  <SCORE.RESTR.norm>
0.475549

>  <SCORE.SYSTEM>
0

>  <SCORE.SYSTEM.CONST>
0

>  <SCORE.SYSTEM.DIHEDRAL>
0

>  <SCORE.SYSTEM.SOLV>
0

>  <SCORE.SYSTEM.norm>
0

>  <SCORE.heavy>
40

>  <SCORE.norm>
0.57392

>  <RMSD>
33.630

$$$$
2g5q_lig
 OpenBabel11021811433D
libRbt.so/2013.1/901 2013/11/27
 40 42  0  0  0  0  0  0  0  0999 V2000
   24.6571    5.8218    3.5517 C   0  0  2  0  0  0  0  0  0  0  0  0
   25.0843    7.1655    3.5140 O   0  0  0  0  0  0  0  0  0  0  0  0
   25.8259    4.9098    3.0752 C   0  0  1  0  0  0  0  0  0  0  0  0
   26.1609    5.1333    1.5681 C   0  0  2  0  0  0  0  0  0  0  0  0
   24.8840    4.8180    0.7466 C   0  0  2  0  0  0  0  0  0  0  0  0
   25.1592    4.9903   -0.6530 O   0  0  0  0  0  0  0  0  0  0  0  0
   23.7327    5.7922    1.2257 C   0  0  2  0  0  0  0  0  0  0  0  0
   23.4729    5.5988    2.6810 O   0  0  0  0  0  0  0  0  0  0  0  0
   22.4179    5.5592    0.4891 C   0  0  0  0  0  0  0  0  0  0  0  0
   22.0429    4.1101    0.4540 N   0  0  0  0  0  0  0  0  0  0  0  0
   21.9696    9.7037    1.8015 C   0  0  2  0  0  0  0  0  0  0  0  0
   21.0058   10.7852    1.6363 N   0  0  0  0  0  0  0  0  0  0  0  0
   21.6370    8.8672    3.1075 C   0  0  0  0  0  0  0  0  0  0  0  0
   22.6746    7.6900    3.2864 C   0  0  2  0  0  0  0  0  0  0  0  0
   22.3452    6.9068    4.5079 N   0  0  0  0  0  0  0  0  0  0  0  0
   24.1377    8.2832    3.3602 C   0  0  2  0  0  0  0  0  0  0  0  0
   24.4301    9.1116    2.0468 C   0  0  2  0  0  0  0  0  0  0  0  0
   25.7528    9.6530    2.1187 O   0  0  0  0  0  0  0  0  0  0  0  0
   23.3935   10.2897    1.8959 C   0  0  1  0  0  0  0  0  0  0  0  0
   23.6575   11.0434    0.6791 O   0  0  0  0  0  0  0  0  0  0  0  0
   24.3396   10.5277   -0.4375 C   0  0  2  0  0  0  0  0  0  0  0  0
   24.4945   11.6931   -1.4725 C   0  0  2  0  0  0  0  0  0  0  0  0
   25.2180   12.7330   -0.8967 O   0  0  0  0  0  0  0  0  0  0  0  0
   23.0894   12.1963   -1.9774 C   0  0  1  0  0  0  0  0  0  0  0  0
   23.2273   13.3099   -2.9729 N   0  0  0  0  0  0  0  0  0  0  0  0
   22.3214   10.9695   -2.6118 C   0  0  2  0  0  0  0  0  0  0  0  0
   21.0373   11.3672   -3.0965 O   0  0  0  0  0  0  0  0  0  0  0  0
   22.1984    9.8439   -1.5299 C   0  0  2  0  0  0  0  0  0  0  0  0
   23.5532    9.4295   -1.0271 O   0  0  0  0  0  0  0  0  0  0  0  0
   21.5043    8.6271   -2.0694 C   0  0  0  0  0  0  0  0  0  0  0  0
   22.1487    8.1434   -3.2592 O   0  0  0  0  0  0  0  0  0  0  0  0
   26.9959    5.1782    3.9220 O   0  0  0  0  0  0  0  0  0  0  0  0
   27.1891    4.2946    1.1981 O   0  0  0  0  0  0  0  0  0  0  0  0
   19.3580   11.5232    4.4903 N   0  0  0  0  0  0  0  0  0  0  0  0
   19.6302   10.6596    1.7714 C   0  0  0  0  0  0  0  0  0  0  0  0
   19.0630    9.6067    2.0416 O   0  0  0  0  0  0  0  0  0  0  0  0
   18.8889   11.9940    1.5258 C   0  0  1  0  0  0  0  0  0  0  0  0
   19.3641   13.0566    2.5374 C   0  0  0  0  0  0  0  0  0  0  0  0
   18.9367   12.8311    3.9924 C   0  0  0  0  0  0  0  0  0  0  0  0
   19.1325   12.4279    0.1687 O   0  0  0  0  0  0  0  0  0  0  0  0
  1  2  1  6  0  0  0
  1  3  1  0  0  0  0
  1  8  1  0  0  0  0
  3  4  1  0  0  0  0
  3 32  1  1  0  0  0
  4  5  1  0  0  0  0
  4 33  1  6  0  0  0
  5  6  1  6  0  0  0
  5  7  1  0  0  0  0
  7  8  1  0  0  0  0
  7  9  1  6  0  0  0
  9 10  1  0  0  0  0
 11 12  1  1  0  0  0
 11 13  1  0  0  0  0
 11 19  1  0  0  0  0
 12 35  1  0  0  0  0
 13 14  1  0  0  0  0
 14 15  1  1  0  0  0
 14 16  1  0  0  0  0
 16  2  1  6  0  0  0
 16 17  1  0  0  0  0
 17 18  1  1  0  0  0
 17 19  1  0  0  0  0
 19 20  1  6  0  0  0
 21 20  1  1  0  0  0
 21 22  1  0  0  0  0
 21 29  1  0  0  0  0
 22 23  1  1  0  0  0
 22 24  1  0  0  0  0
 24 25  1  6  0  0  0
 24 26  1  0  0  0  0
 26 27  1  1  0  0  0
 26 28  1  0  0  0  0
 28 29  1  0  0  0  0
 28 30  1  6  0  0  0
 30 31  1  0  0  0  0
 34 39  1  0  0  0  0
 35 36  2  0  0  0  0
 37 35  1  1  0  0  0
 37 38  1  0  0  0  0
 37 40  1  0  0  0  0
 38 39  1  0  0  0  0
M  END
>  <CHROM.1>
154.46087934,48.53848055,-45.69653955,1.11835212,-96.13572830,-175.95752279
54.72156828,-59.95856677,-69.71886865,55.95955374,22.92982611,8.90191359
1.01187054,0.70153120,-0.79816938,2.14614252

>  <Name>
2g5q_lig

>  <RI>
224

>  <Rbt.Current_Directory>
/home/itssahil/PROJECTS/Mol_Feturizer/New_Systems/rnas/2g5q

>  <Rbt.Executable>
rbdock ($Id: //depot/dev/client3/rdock/2013.1/src/exe/rbdock.cxx#4 $)

>  <Rbt.Library>
libRbt.so (2013.1, Build901 2013/11/27)

>  <Rbt.Parameter_File>
/export/apps/rDock/src/rDock_2013.1_src/data/scripts/dock_solv.prm

>  <Rbt.Receptor>
prm/blind_docking_100.prm

>  <SCORE>
26.9832

>  <SCORE.INTER>
-1.70817

>  <SCORE.INTER.CONST>
1

>  <SCORE.INTER.POLAR>
-1.03963

>  <SCORE.INTER.ROT>
10

>  <SCORE.INTER.SOLV>
34.8341

>  <SCORE.INTER.VDW>
-19.5514

>  <SCORE.INTER.norm>
-0.0427043

>  <SCORE.INTRA>
10.2358

>  <SCORE.INTRA.DIHEDRAL>
-5.89065

>  <SCORE.INTRA.DIHEDRAL.0>
22.5778

>  <SCORE.INTRA.POLAR>
0

>  <SCORE.INTRA.POLAR.0>
0

>  <SCORE.INTRA.REPUL>
0

>  <SCORE.INTRA.REPUL.0>
0

>  <SCORE.INTRA.SOLV>
8.11747

>  <SCORE.INTRA.SOLV.lig_0>
-102.332

>  <SCORE.INTRA.VDW>
9.12234

>  <SCORE.INTRA.VDW.0>
-5.08747

>  <SCORE.INTRA.norm>
0.255894

>  <SCORE.RESTR>
18.4556

>  <SCORE.RESTR.CAVITY>
18.4556

>  <SCORE.RESTR.norm>
0.461391

>  <SCORE.SYSTEM>
0

>  <SCORE.SYSTEM.CONST>
0

>  <SCORE.SYSTEM.DIHEDRAL>
0

>  <SCORE.SYSTEM.SOLV>
0

>  <SCORE.SYSTEM.norm>
0

>  <SCORE.heavy>
40

>  <SCORE.norm>
0.67458

>  <RMSD>
33.635

$$$$
2g5q_lig
 OpenBabel11021811433D
libRbt.so/2013.1/901 2013/11/27
 40 42  0  0  0  0  0  0  0  0999 V2000
   24.5227    5.8012    3.4641 C   0  0  2  0  0  0  0  0  0  0  0  0
   25.0132    7.1237    3.4626 O   0  0  0  0  0  0  0  0  0  0  0  0
   25.6625    4.8426    3.0094 C   0  0  1  0  0  0  0  0  0  0  0  0
   26.0562    5.0732    1.5176 C   0  0  2  0  0  0  0  0  0  0  0  0
   24.7931    4.8310    0.6510 C   0  0  2  0  0  0  0  0  0  0  0  0
   25.1211    5.0117   -0.7361 O   0  0  0  0  0  0  0  0  0  0  0  0
   23.6736    5.8510    1.1099 C   0  0  2  0  0  0  0  0  0  0  0  0
   23.3582    5.6477    2.5528 O   0  0  0  0  0  0  0  0  0  0  0  0
   22.3738    5.6915    0.3284 C   0  0  0  0  0  0  0  0  0  0  0  0
   21.7782    4.3287    0.5009 N   0  0  0  0  0  0  0  0  0  0  0  0
   22.0344    9.8483    1.7951 C   0  0  2  0  0  0  0  0  0  0  0  0
   21.1239   10.9779    1.6511 N   0  0  0  0  0  0  0  0  0  0  0  0
   21.6531    8.9963    3.0774 C   0  0  0  0  0  0  0  0  0  0  0  0
   22.6326    7.7672    3.2331 C   0  0  2  0  0  0  0  0  0  0  0  0
   22.2576    6.9703    4.4325 N   0  0  0  0  0  0  0  0  0  0  0  0
   24.1215    8.2885    3.3310 C   0  0  2  0  0  0  0  0  0  0  0  0
   24.4623    9.1345    2.0407 C   0  0  2  0  0  0  0  0  0  0  0  0
   25.8086    9.6107    2.1345 O   0  0  0  0  0  0  0  0  0  0  0  0
   23.4837   10.3637    1.9131 C   0  0  1  0  0  0  0  0  0  0  0  0
   23.7919   11.1341    0.7174 O   0  0  0  0  0  0  0  0  0  0  0  0
   24.4805   10.6219   -0.3969 C   0  0  2  0  0  0  0  0  0  0  0  0
   24.4613   11.7252   -1.5085 C   0  0  2  0  0  0  0  0  0  0  0  0
   25.0875   12.8739   -1.0341 O   0  0  0  0  0  0  0  0  0  0  0  0
   22.9891   12.0378   -1.9748 C   0  0  1  0  0  0  0  0  0  0  0  0
   22.9606   13.0905   -3.0431 N   0  0  0  0  0  0  0  0  0  0  0  0
   22.3373   10.6950   -2.4939 C   0  0  2  0  0  0  0  0  0  0  0  0
   20.9978   10.9174   -2.9394 O   0  0  0  0  0  0  0  0  0  0  0  0
   22.3856    9.6378   -1.3395 C   0  0  2  0  0  0  0  0  0  0  0  0
   23.7978    9.4077   -0.8783 O   0  0  0  0  0  0  0  0  0  0  0  0
   21.8098    8.3193   -1.7682 C   0  0  0  0  0  0  0  0  0  0  0  0
   20.4141    8.4390   -2.0886 O   0  0  0  0  0  0  0  0  0  0  0  0
   26.8158    5.0424    3.8971 O   0  0  0  0  0  0  0  0  0  0  0  0
   27.0556    4.1927    1.1662 O   0  0  0  0  0  0  0  0  0  0  0  0
   19.0418   10.1719    2.8154 N   0  0  0  0  0  0  0  0  0  0  0  0
   20.9881   12.0179    2.5601 C   0  0  0  0  0  0  0  0  0  0  0  0
   21.6235   12.0997    3.6055 O   0  0  0  0  0  0  0  0  0  0  0  0
   19.9317   13.0558    2.1158 C   0  0  1  0  0  0  0  0  0  0  0  0
   18.6406   12.3389    1.6716 C   0  0  0  0  0  0  0  0  0  0  0  0
   18.1016   11.2764    2.6365 C   0  0  0  0  0  0  0  0  0  0  0  0
   19.6686   13.9617    3.2110 O   0  0  0  0  0  0  0  0  0  0  0  0
  1  2  1  6  0  0  0
  1  3  1  0  0  0  0
  1  8  1  0  0  0  0
  3  4  1  0  0  0  0
  3 32  1  1  0  0  0
  4  5  1  0  0  0  0
  4 33  1  6  0  0  0
  5  6  1  6  0  0  0
  5  7  1  0  0  0  0
  7  8  1  0  0  0  0
  7  9  1  6  0  0  0
  9 10  1  0  0  0  0
 11 12  1  1  0  0  0
 11 13  1  0  0  0  0
 11 19  1  0  0  0  0
 12 35  1  0  0  0  0
 13 14  1  0  0  0  0
 14 15  1  1  0  0  0
 14 16  1  0  0  0  0
 16  2  1  6  0  0  0
 16 17  1  0  0  0  0
 17 18  1  1  0  0  0
 17 19  1  0  0  0  0
 19 20  1  6  0  0  0
 21 20  1  1  0  0  0
 21 22  1  0  0  0  0
 21 29  1  0  0  0  0
 22 23  1  1  0  0  0
 22 24  1  0  0  0  0
 24 25  1  6  0  0  0
 24 26  1  0  0  0  0
 26 27  1  1  0  0  0
 26 28  1  0  0  0  0
 28 29  1  0  0  0  0
 28 30  1  6  0  0  0
 30 31  1  0  0  0  0
 34 39  1  0  0  0  0
 35 36  2  0  0  0  0
 37 35  1  1  0  0  0
 37 38  1  0  0  0  0
 37 40  1  0  0  0  0
 38 39  1  0  0  0  0
M  END
>  <CHROM.1>
155.99677519,60.79788228,62.81711363,1.10061519,-97.44681237,174.01643489
-63.58128419,47.56905155,48.99053754,-62.49278754,22.95642651,8.97246728
1.10240454,0.65261128,-0.87940108,2.13800094

>  <Name>
2g5q_lig

>  <RI>
224

>  <Rbt.Current_Directory>
/home/itssahil/PROJECTS/Mol_Feturizer/New_Systems/rnas/2g5q

>  <Rbt.Executable>
rbdock ($Id: //depot/dev/client3/rdock/2013.1/src/exe/rbdock.cxx#4 $)

>  <Rbt.Library>
libRbt.so (2013.1, Build901 2013/11/27)

>  <Rbt.Parameter_File>
/export/apps/rDock/src/rDock_2013.1_src/data/scripts/dock_solv.prm

>  <Rbt.Receptor>
prm/blind_docking_100.prm

>  <SCORE>
30.2423

>  <SCORE.INTER>
-0.208167

>  <SCORE.INTER.CONST>
1

>  <SCORE.INTER.POLAR>
-0.384018

>  <SCORE.INTER.ROT>
10

>  <SCORE.INTER.SOLV>
33.0565

>  <SCORE.INTER.VDW>
-20.1442

>  <SCORE.INTER.norm>
-0.00520417

>  <SCORE.INTRA>
11.6127

>  <SCORE.INTRA.DIHEDRAL>
-6.29353

>  <SCORE.INTRA.DIHEDRAL.0>
22.5778

>  <SCORE.INTRA.POLAR>
0

>  <SCORE.INTRA.POLAR.0>
0

>  <SCORE.INTRA.REPUL>
0

>  <SCORE.INTRA.REPUL.0>
0

>  <SCORE.INTRA.SOLV>
10.6708

>  <SCORE.INTRA.SOLV.lig_0>
-102.332

>  <SCORE.INTRA.VDW>
9.42405

>  <SCORE.INTRA.VDW.0>
-5.08747

>  <SCORE.INTRA.norm>
0.290317

>  <SCORE.RESTR>
18.8378

>  <SCORE.RESTR.CAVITY>
18.8378

>  <SCORE.RESTR.norm>
0.470945

>  <SCORE.SYSTEM>
0

>  <SCORE.SYSTEM.CONST>
0

>  <SCORE.SYSTEM.DIHEDRAL>
0

>  <SCORE.SYSTEM.SOLV>
0

>  <SCORE.SYSTEM.norm>
0

>  <SCORE.heavy>
40

>  <SCORE.norm>
0.756058

>  <RMSD>
33.655

$$$$
2g5q_lig
 OpenBabel11021811433D
libRbt.so/2013.1/901 2013/11/27
 40 42  0  0  0  0  0  0  0  0999 V2000
   25.0225    5.8762    3.7984 C   0  0  2  0  0  0  0  0  0  0  0  0
   25.3998    7.1980    3.4822 O   0  0  0  0  0  0  0  0  0  0  0  0
   26.2970    4.9818    3.8198 C   0  0  1  0  0  0  0  0  0  0  0  0
   26.9321    4.8399    2.4020 C   0  0  2  0  0  0  0  0  0  0  0  0
   25.8676    4.2101    1.4665 C   0  0  2  0  0  0  0  0  0  0  0  0
   26.4236    4.0412    0.1524 O   0  0  0  0  0  0  0  0  0  0  0  0
   24.6075    5.1666    1.4340 C   0  0  2  0  0  0  0  0  0  0  0  0
   24.0557    5.3310    2.8093 O   0  0  0  0  0  0  0  0  0  0  0  0
   23.4853    4.6344    0.5491 C   0  0  0  0  0  0  0  0  0  0  0  0
   22.3058    5.5563    0.5223 N   0  0  0  0  0  0  0  0  0  0  0  0
   22.2351    9.6442    1.7277 C   0  0  2  0  0  0  0  0  0  0  0  0
   21.2303   10.6868    1.5568 N   0  0  0  0  0  0  0  0  0  0  0  0
   21.8961    8.7588    2.9994 C   0  0  0  0  0  0  0  0  0  0  0  0
   22.9782    7.6233    3.1841 C   0  0  2  0  0  0  0  0  0  0  0  0
   22.6428    6.7937    4.3729 N   0  0  0  0  0  0  0  0  0  0  0  0
   24.4102    8.2774    3.3242 C   0  0  2  0  0  0  0  0  0  0  0  0
   24.7097    9.1531    2.0435 C   0  0  2  0  0  0  0  0  0  0  0  0
   26.0040    9.7493    2.1754 O   0  0  0  0  0  0  0  0  0  0  0  0
   23.6276   10.2887    1.8868 C   0  0  1  0  0  0  0  0  0  0  0  0
   23.8988   11.0860    0.6998 O   0  0  0  0  0  0  0  0  0  0  0  0
   24.5465   10.5975   -0.4492 C   0  0  2  0  0  0  0  0  0  0  0  0
   24.4941   11.7266   -1.5334 C   0  0  2  0  0  0  0  0  0  0  0  0
   25.1412   12.8616   -1.0543 O   0  0  0  0  0  0  0  0  0  0  0  0
   23.0082   12.0553   -1.9415 C   0  0  1  0  0  0  0  0  0  0  0  0
   22.9476   13.1329   -2.9834 N   0  0  0  0  0  0  0  0  0  0  0  0
   22.3331   10.7273   -2.4690 C   0  0  2  0  0  0  0  0  0  0  0  0
   20.9801   10.9649   -2.8629 O   0  0  0  0  0  0  0  0  0  0  0  0
   22.4163    9.6433   -1.3418 C   0  0  2  0  0  0  0  0  0  0  0  0
   23.8424    9.3974   -0.9349 O   0  0  0  0  0  0  0  0  0  0  0  0
   21.8204    8.3373   -1.7810 C   0  0  0  0  0  0  0  0  0  0  0  0
   20.4238    8.4782   -2.0884 O   0  0  0  0  0  0  0  0  0  0  0  0
   27.2533    5.5633    4.7713 O   0  0  0  0  0  0  0  0  0  0  0  0
   28.0443    4.0308    2.4771 O   0  0  0  0  0  0  0  0  0  0  0  0
   19.3306   11.4118    4.4599 N   0  0  0  0  0  0  0  0  0  0  0  0
   19.8686   10.5302    1.7744 C   0  0  0  0  0  0  0  0  0  0  0  0
   19.3500    9.4787    2.1330 O   0  0  0  0  0  0  0  0  0  0  0  0
   19.0737   11.8271    1.4972 C   0  0  1  0  0  0  0  0  0  0  0  0
   19.4880   12.9250    2.4977 C   0  0  0  0  0  0  0  0  0  0  0  0
   18.9971   12.7354    3.9376 C   0  0  0  0  0  0  0  0  0  0  0  0
   19.3176   12.2498    0.1366 O   0  0  0  0  0  0  0  0  0  0  0  0
  1  2  1  6  0  0  0
  1  3  1  0  0  0  0
  1  8  1  0  0  0  0
  3  4  1  0  0  0  0
  3 32  1  1  0  0  0
  4  5  1  0  0  0  0
  4 33  1  1  0  0  0
  5  6  1  6  0  0  0
  5  7  1  0  0  0  0
  7  8  1  0  0  0  0
  7  9  1  6  0  0  0
  9 10  1  0  0  0  0
 11 12  1  1  0  0  0
 11 13  1  0  0  0  0
 11 19  1  0  0  0  0
 12 35  1  0  0  0  0
 13 14  1  0  0  0  0
 14 15  1  1  0  0  0
 14 16  1  0  0  0  0
 16  2  1  6  0  0  0
 16 17  1  0  0  0  0
 17 18  1  1  0  0  0
 17 19  1  0  0  0  0
 19 20  1  6  0  0  0
 21 20  1  1  0  0  0
 21 22  1  0  0  0  0
 21 29  1  0  0  0  0
 22 23  1  1  0  0  0
 22 24  1  0  0  0  0
 24 25  1  6  0  0  0
 24 26  1  0  0  0  0
 26 27  1  1  0  0  0
 26 28  1  0  0  0  0
 28 29  1  0  0  0  0
 28 30  1  6  0  0  0
 30 31  1  0  0  0  0
 34 39  1  0  0  0  0
 35 36  2  0  0  0  0
 37 35  1  1  0  0  0
 37 38  1  0  0  0  0
 37 40  1  0  0  0  0
 38 39  1  0  0  0  0
M  END
>  <CHROM.1>
177.17857212,-179.58480858,-38.71219917,-14.77556655,-90.77187237,173.97672709
-61.87217698,-64.55724918,-72.33420296,51.93855022,23.18965178,8.80142939
1.20174012,0.69672548,-0.71546772,2.10609023

>  <Name>
2g5q_lig

>  <RI>
224

>  <Rbt.Current_Directory>
/home/itssahil/PROJECTS/Mol_Feturizer/New_Systems/rnas/2g5q

>  <Rbt.Executable>
rbdock ($Id: //depot/dev/client3/rdock/2013.1/src/exe/rbdock.cxx#4 $)

>  <Rbt.Library>
libRbt.so (2013.1, Build901 2013/11/27)

>  <Rbt.Parameter_File>
/export/apps/rDock/src/rDock_2013.1_src/data/scripts/dock_solv.prm

>  <Rbt.Receptor>
prm/blind_docking_100.prm

>  <SCORE>
37.0362

>  <SCORE.INTER>
14.6196

>  <SCORE.INTER.CONST>
1

>  <SCORE.INTER.POLAR>
-0.422685

>  <SCORE.INTER.ROT>
10

>  <SCORE.INTER.SOLV>
31.302

>  <SCORE.INTER.VDW>
-9.54533

>  <SCORE.INTER.norm>
0.365489

>  <SCORE.INTRA>
3.7789

>  <SCORE.INTRA.DIHEDRAL>
-10.5027

>  <SCORE.INTRA.DIHEDRAL.0>
22.5778

>  <SCORE.INTRA.POLAR>
0

>  <SCORE.INTRA.POLAR.0>
0

>  <SCORE.INTRA.REPUL>
0

>  <SCORE.INTRA.REPUL.0>
0

>  <SCORE.INTRA.SOLV>
9.22759

>  <SCORE.INTRA.SOLV.lig_0>
-102.332

>  <SCORE.INTRA.VDW>
4.41644

>  <SCORE.INTRA.VDW.0>
-5.08747

>  <SCORE.INTRA.norm>
0.0944725

>  <SCORE.RESTR>
18.6378

>  <SCORE.RESTR.CAVITY>
18.6378

>  <SCORE.RESTR.norm>
0.465945

>  <SCORE.SYSTEM>
0

>  <SCORE.SYSTEM.CONST>
0

>  <SCORE.SYSTEM.DIHEDRAL>
0

>  <SCORE.SYSTEM.SOLV>
0

>  <SCORE.SYSTEM.norm>
0

>  <SCORE.heavy>
40

>  <SCORE.norm>
0.925906

>  <RMSD>
33.658

$$$$
2g5q_lig
 OpenBabel11021811433D
libRbt.so/2013.1/901 2013/11/27
 40 42  0  0  0  0  0  0  0  0999 V2000
   21.1532    2.5921   -2.4573 C   0  0  2  0  0  0  0  0  0  0  0  0
   22.0820    3.2855   -1.6535 O   0  0  0  0  0  0  0  0  0  0  0  0
   21.9260    1.6003   -3.3758 C   0  0  1  0  0  0  0  0  0  0  0  0
   22.8126    2.3455   -4.4209 C   0  0  2  0  0  0  0  0  0  0  0  0
   21.8816    3.2379   -5.2822 C   0  0  2  0  0  0  0  0  0  0  0  0
   22.6601    3.9256   -6.2749 O   0  0  0  0  0  0  0  0  0  0  0  0
   21.1485    4.2609   -4.3230 C   0  0  2  0  0  0  0  0  0  0  0  0
   20.3555    3.5222   -3.2991 O   0  0  0  0  0  0  0  0  0  0  0  0
   20.1906    5.1851   -5.0673 C   0  0  0  0  0  0  0  0  0  0  0  0
   20.8886    5.9849   -6.1233 N   0  0  0  0  0  0  0  0  0  0  0  0
   23.5300    7.3210   -0.8197 C   0  0  2  0  0  0  0  0  0  0  0  0
   23.6200    8.7758   -0.7854 N   0  0  0  0  0  0  0  0  0  0  0  0
   23.5324    6.8064   -2.3200 C   0  0  0  0  0  0  0  0  0  0  0  0
   23.4422    5.2301   -2.3617 C   0  0  2  0  0  0  0  0  0  0  0  0
   23.4567    4.7599   -3.7733 N   0  0  0  0  0  0  0  0  0  0  0  0
   22.1346    4.7567   -1.6107 C   0  0  2  0  0  0  0  0  0  0  0  0
   22.1663    5.2909   -0.1239 C   0  0  2  0  0  0  0  0  0  0  0  0
   20.9786    4.8664    0.5521 O   0  0  0  0  0  0  0  0  0  0  0  0
   22.2407    6.8654   -0.1054 C   0  0  1  0  0  0  0  0  0  0  0  0
   22.2822    7.3541    1.2649 O   0  0  0  0  0  0  0  0  0  0  0  0
   22.3698    6.5246    2.3973 C   0  0  2  0  0  0  0  0  0  0  0  0
   22.7118    7.4379    3.6229 C   0  0  2  0  0  0  0  0  0  0  0  0
   21.7077    8.3868    3.7901 O   0  0  0  0  0  0  0  0  0  0  0  0
   24.1162    8.1294    3.4431 C   0  0  1  0  0  0  0  0  0  0  0  0
   24.4550    9.0031    4.6145 N   0  0  0  0  0  0  0  0  0  0  0  0
   25.2049    6.9998    3.2531 C   0  0  2  0  0  0  0  0  0  0  0  0
   26.5062    7.5679    3.0918 O   0  0  0  0  0  0  0  0  0  0  0  0
   24.8072    6.1262    2.0157 C   0  0  2  0  0  0  0  0  0  0  0  0
   23.4386    5.5304    2.1941 O   0  0  0  0  0  0  0  0  0  0  0  0
   25.7817    5.0071    1.7885 C   0  0  0  0  0  0  0  0  0  0  0  0
   25.5317    4.3432    0.5389 O   0  0  0  0  0  0  0  0  0  0  0  0
   22.7386    0.7205   -2.5251 O   0  0  0  0  0  0  0  0  0  0  0  0
   23.4608    1.4232   -5.2125 O   0  0  0  0  0  0  0  0  0  0  0  0
   21.2655   12.2737    1.9066 N   0  0  0  0  0  0  0  0  0  0  0  0
   22.5645    9.6375   -0.5218 C   0  0  0  0  0  0  0  0  0  0  0  0
   21.4190    9.2654   -0.2923 O   0  0  0  0  0  0  0  0  0  0  0  0
   22.9902   11.1232   -0.5668 C   0  0  1  0  0  0  0  0  0  0  0  0
   23.4037   11.5973    0.8412 C   0  0  0  0  0  0  0  0  0  0  0  0
   22.3865   11.3375    1.9583 C   0  0  0  0  0  0  0  0  0  0  0  0
   24.0806   11.2748   -1.5035 O   0  0  0  0  0  0  0  0  0  0  0  0
  1  2  1  6  0  0  0
  1  3  1  0  0  0  0
  1  8  1  0  0  0  0
  3  4  1  0  0  0  0
  3 32  1  1  0  0  0
  4  5  1  0  0  0  0
  4 33  1  6  0  0  0
  5  6  1  6  0  0  0
  5  7  1  0  0  0  0
  7  8  1  0  0  0  0
  7  9  1  6  0  0  0
  9 10  1  0  0  0  0
 11 12  1  6  0  0  0
 11 13  1  0  0  0  0
 11 19  1  0  0  0  0
 12 35  1  0  0  0  0
 13 14  1  0  0  0  0
 14 15  1  6  0  0  0
 14 16  1  0  0  0  0
 16  2  1  1  0  0  0
 16 17  1  0  0  0  0
 17 18  1  1  0  0  0
 17 19  1  0  0  0  0
 19 20  1  1  0  0  0
 21 20  1  6  0  0  0
 21 22  1  0  0  0  0
 21 29  1  0  0  0  0
 22 23  1  6  0  0  0
 22 24  1  0  0  0  0
 24 25  1  1  0  0  0
 24 26  1  0  0  0  0
 26 27  1  6  0  0  0
 26 28  1  0  0  0  0
 28 29  1  0  0  0  0
 28 30  1  1  0  0  0
 30 31  1  0  0  0  0
 34 39  1  0  0  0  0
 35 36  2  0  0  0  0
 37 35  1  1  0  0  0
 37 38  1  0  0  0  0
 37 40  1  0  0  0  0
 38 39  1  0  0  0  0
M  END
>  <CHROM.1>
125.38632375,-58.75971937,103.78942331,-108.41279119,-113.95726099,167.44355859
-170.89746368,-91.95056323,-52.40769646,-75.84929679,22.83915795,6.26307659
-0.69057471,-1.98698751,-1.18411223,0.42270028

>  <Name>
2g5q_lig

>  <RI>
224

>  <Rbt.Current_Directory>
/home/itssahil/PROJECTS/Mol_Feturizer/New_Systems/rnas/2g5q

>  <Rbt.Executable>
rbdock ($Id: //depot/dev/client3/rdock/2013.1/src/exe/rbdock.cxx#4 $)

>  <Rbt.Library>
libRbt.so (2013.1, Build901 2013/11/27)

>  <Rbt.Parameter_File>
/export/apps/rDock/src/rDock_2013.1_src/data/scripts/dock_solv.prm

>  <Rbt.Receptor>
prm/blind_docking_60.prm

>  <SCORE>
57.0799

>  <SCORE.INTER>
19.5065

>  <SCORE.INTER.CONST>
1

>  <SCORE.INTER.POLAR>
-0.720616

>  <SCORE.INTER.ROT>
10

>  <SCORE.INTER.SOLV>
28.4109

>  <SCORE.INTER.VDW>
-4.33057

>  <SCORE.INTER.norm>
0.487663

>  <SCORE.INTRA>
15.3979

>  <SCORE.INTRA.DIHEDRAL>
2.90948

>  <SCORE.INTRA.DIHEDRAL.0>
22.5778

>  <SCORE.INTRA.POLAR>
0

>  <SCORE.INTRA.POLAR.0>
0

>  <SCORE.INTRA.REPUL>
0.0388082

>  <SCORE.INTRA.REPUL.0>
0

>  <SCORE.INTRA.SOLV>
10.9299

>  <SCORE.INTRA.SOLV.lig_0>
-102.332

>  <SCORE.INTRA.VDW>
8.28414

>  <SCORE.INTRA.VDW.0>
-5.08747

>  <SCORE.INTRA.norm>
0.384947

>  <SCORE.RESTR>
22.1755

>  <SCORE.RESTR.CAVITY>
22.1755

>  <SCORE.RESTR.norm>
0.554388

>  <SCORE.SYSTEM>
0

>  <SCORE.SYSTEM.CONST>
0

>  <SCORE.SYSTEM.DIHEDRAL>
0

>  <SCORE.SYSTEM.SOLV>
0

>  <SCORE.SYSTEM.norm>
0

>  <SCORE.heavy>
40

>  <SCORE.norm>
1.427

>  <RMSD>
33.660

$$$$
2g5q_lig
 OpenBabel11021811433D
libRbt.so/2013.1/901 2013/11/27
 40 42  0  0  0  0  0  0  0  0999 V2000
   24.4770    5.6109    4.3957 C   0  0  2  0  0  0  0  0  0  0  0  0
   24.7911    6.9742    4.2156 O   0  0  0  0  0  0  0  0  0  0  0  0
   25.8011    4.8084    4.5617 C   0  0  1  0  0  0  0  0  0  0  0  0
   26.6487    4.8071    3.2521 C   0  0  2  0  0  0  0  0  0  0  0  0
   25.7882    4.1689    2.1309 C   0  0  2  0  0  0  0  0  0  0  0  0
   26.5446    4.1282    0.9100 O   0  0  0  0  0  0  0  0  0  0  0  0
   24.4750    5.0350    1.9596 C   0  0  2  0  0  0  0  0  0  0  0  0
   23.7140    5.0674    3.2413 O   0  0  0  0  0  0  0  0  0  0  0  0
   23.5422    4.4865    0.8850 C   0  0  0  0  0  0  0  0  0  0  0  0
   24.0967    4.6802   -0.4922 N   0  0  0  0  0  0  0  0  0  0  0  0
   23.6757   10.1155    1.3932 C   0  0  2  0  0  0  0  0  0  0  0  0
   23.4578   10.8356    0.1444 N   0  0  0  0  0  0  0  0  0  0  0  0
   25.2097    9.7452    1.5526 C   0  0  0  0  0  0  0  0  0  0  0  0
   25.4514    8.9710    2.9079 C   0  0  2  0  0  0  0  0  0  0  0  0
   26.8950    8.6396    3.0505 N   0  0  0  0  0  0  0  0  0  0  0  0
   24.5562    7.6689    2.9383 C   0  0  2  0  0  0  0  0  0  0  0  0
   23.0386    8.0770    2.7729 C   0  0  2  0  0  0  0  0  0  0  0  0
   22.2306    6.8960    2.7944 O   0  0  0  0  0  0  0  0  0  0  0  0
   22.8170    8.8339    1.4080 C   0  0  1  0  0  0  0  0  0  0  0  0
   21.4209    9.2194    1.2639 O   0  0  0  0  0  0  0  0  0  0  0  0
   20.4512    9.0676    2.2713 C   0  0  2  0  0  0  0  0  0  0  0  0
   19.0454    9.1945    1.5926 C   0  0  2  0  0  0  0  0  0  0  0  0
   18.9043    8.2028    0.6266 O   0  0  0  0  0  0  0  0  0  0  0  0
   18.8437   10.6255    0.9646 C   0  0  1  0  0  0  0  0  0  0  0  0
   17.4977   10.7585    0.3158 N   0  0  0  0  0  0  0  0  0  0  0  0
   19.0224   11.6998    2.1097 C   0  0  2  0  0  0  0  0  0  0  0  0
   18.8428   13.0227    1.6002 O   0  0  0  0  0  0  0  0  0  0  0  0
   20.4431   11.5216    2.7440 C   0  0  2  0  0  0  0  0  0  0  0  0
   20.6232   10.1286    3.2797 O   0  0  0  0  0  0  0  0  0  0  0  0
   20.6769   12.4911    3.8661 C   0  0  0  0  0  0  0  0  0  0  0  0
   20.5400   13.8498    3.4187 O   0  0  0  0  0  0  0  0  0  0  0  0
   26.5565    5.3898    5.6795 O   0  0  0  0  0  0  0  0  0  0  0  0
   27.7981    4.0744    3.4511 O   0  0  0  0  0  0  0  0  0  0  0  0
   23.4890   12.0115   -4.7263 N   0  0  0  0  0  0  0  0  0  0  0  0
   24.4069   11.6076   -0.5110 C   0  0  0  0  0  0  0  0  0  0  0  0
   25.5501   11.7785   -0.1021 O   0  0  0  0  0  0  0  0  0  0  0  0
   23.8566   12.2438   -1.8082 C   0  0  1  0  0  0  0  0  0  0  0  0
   22.7999   11.3178   -2.4440 C   0  0  0  0  0  0  0  0  0  0  0  0
   22.3545   11.6892   -3.8632 C   0  0  0  0  0  0  0  0  0  0  0  0
   23.2900   13.5368   -1.4977 O   0  0  0  0  0  0  0  0  0  0  0  0
  1  2  1  6  0  0  0
  1  3  1  0  0  0  0
  1  8  1  0  0  0  0
  3  4  1  0  0  0  0
  3 32  1  1  0  0  0
  4  5  1  0  0  0  0
  4 33  1  1  0  0  0
  5  6  1  6  0  0  0
  5  7  1  0  0  0  0
  7  8  1  0  0  0  0
  7  9  1  6  0  0  0
  9 10  1  0  0  0  0
 11 12  1  6  0  0  0
 11 13  1  0  0  0  0
 11 19  1  0  0  0  0
 12 35  1  0  0  0  0
 13 14  1  0  0  0  0
 14 15  1  6  0  0  0
 14 16  1  0  0  0  0
 16  2  1  1  0  0  0
 16 17  1  0  0  0  0
 17 18  1  6  0  0  0
 17 19  1  0  0  0  0
 19 20  1  1  0  0  0
 21 20  1  6  0  0  0
 21 22  1  0  0  0  0
 21 29  1  0  0  0  0
 22 23  1  6  0  0  0
 22 24  1  0  0  0  0
 24 25  1  1  0  0  0
 24 26  1  0  0  0  0
 26 27  1  6  0  0  0
 26 28  1  0  0  0  0
 28 29  1  0  0  0  0
 28 30  1  1  0  0  0
 30 31  1  0  0  0  0
 34 39  1  0  0  0  0
 35 36  2  0  0  0  0
 37 35  1  1  0  0  0
 37 38  1  0  0  0  0
 37 40  1  0  0  0  0
 38 39  1  0  0  0  0
M  END
>  <CHROM.1>
111.96179890,-70.72500669,-26.85329501,-160.39866860,-112.79483240,-163.55310206
-58.30600240,-31.71428499,-169.13072374,45.61553032,23.08997893,8.82154997
1.57504123,0.87070580,-0.53824537,2.32979080

>  <Name>
2g5q_lig

>  <RI>
224

>  <Rbt.Current_Directory>
/home/itssahil/PROJECTS/Mol_Feturizer/New_Systems/rnas/2g5q

>  <Rbt.Executable>
rbdock ($Id: //depot/dev/client3/rdock/2013.1/src/exe/rbdock.cxx#4 $)

>  <Rbt.Library>
libRbt.so (2013.1, Build901 2013/11/27)

>  <Rbt.Parameter_File>
/export/apps/rDock/src/rDock_2013.1_src/data/scripts/dock_solv.prm

>  <Rbt.Receptor>
prm/blind_docking_100.prm

>  <SCORE>
18.734

>  <SCORE.INTER>
-6.40092

>  <SCORE.INTER.CONST>
1

>  <SCORE.INTER.POLAR>
-0.679723

>  <SCORE.INTER.ROT>
10

>  <SCORE.INTER.SOLV>
30.0741

>  <SCORE.INTER.VDW>
-22.2929

>  <SCORE.INTER.norm>
-0.160023

>  <SCORE.INTRA>
6.54151

>  <SCORE.INTRA.DIHEDRAL>
-1.91082

>  <SCORE.INTRA.DIHEDRAL.0>
22.5778

>  <SCORE.INTRA.POLAR>
0

>  <SCORE.INTRA.POLAR.0>
0

>  <SCORE.INTRA.REPUL>
0

>  <SCORE.INTRA.REPUL.0>
0

>  <SCORE.INTRA.SOLV>
2.67934

>  <SCORE.INTRA.SOLV.lig_0>
-102.332

>  <SCORE.INTRA.VDW>
6.15725

>  <SCORE.INTRA.VDW.0>
-5.08747

>  <SCORE.INTRA.norm>
0.163538

>  <SCORE.RESTR>
18.5934

>  <SCORE.RESTR.CAVITY>
18.5934

>  <SCORE.RESTR.norm>
0.464835

>  <SCORE.SYSTEM>
0

>  <SCORE.SYSTEM.CONST>
0

>  <SCORE.SYSTEM.DIHEDRAL>
0

>  <SCORE.SYSTEM.SOLV>
0

>  <SCORE.SYSTEM.norm>
0

>  <SCORE.heavy>
40

>  <SCORE.norm>
0.46835

>  <RMSD>
33.675

$$$$
2g5q_lig
 OpenBabel11021811433D
libRbt.so/2013.1/901 2013/11/27
 40 42  0  0  0  0  0  0  0  0999 V2000
   20.4770    4.8555   -1.6328 C   0  0  2  0  0  0  0  0  0  0  0  0
   20.7185    4.9932   -0.2499 O   0  0  0  0  0  0  0  0  0  0  0  0
   20.8108    3.3951   -2.0577 C   0  0  1  0  0  0  0  0  0  0  0  0
   22.3347    3.0862   -1.9313 C   0  0  2  0  0  0  0  0  0  0  0  0
   23.0976    4.0827   -2.8423 C   0  0  2  0  0  0  0  0  0  0  0  0
   24.5074    3.8149   -2.7712 O   0  0  0  0  0  0  0  0  0  0  0  0
   22.7708    5.5518   -2.3536 C   0  0  2  0  0  0  0  0  0  0  0  0
   21.3027    5.8004   -2.4299 O   0  0  0  0  0  0  0  0  0  0  0  0
   23.4622    6.6206   -3.1934 C   0  0  0  0  0  0  0  0  0  0  0  0
   24.8964    6.8010   -2.8031 N   0  0  0  0  0  0  0  0  0  0  0  0
   23.2483    7.1233    2.6031 C   0  0  2  0  0  0  0  0  0  0  0  0
   24.3053    7.9649    3.1510 N   0  0  0  0  0  0  0  0  0  0  0  0
   23.8754    5.9218    1.7790 C   0  0  0  0  0  0  0  0  0  0  0  0
   22.7337    5.0033    1.1896 C   0  0  2  0  0  0  0  0  0  0  0  0
   23.3349    3.8747    0.4288 N   0  0  0  0  0  0  0  0  0  0  0  0
   21.7790    5.8698    0.2754 C   0  0  2  0  0  0  0  0  0  0  0  0
   21.1782    7.0566    1.1283 C   0  0  2  0  0  0  0  0  0  0  0  0
   20.3192    7.8434    0.2970 O   0  0  0  0  0  0  0  0  0  0  0  0
   22.3329    7.9688    1.6937 C   0  0  1  0  0  0  0  0  0  0  0  0
   21.7774    9.0538    2.4889 O   0  0  0  0  0  0  0  0  0  0  0  0
   22.5292   10.1323    2.9887 C   0  0  2  0  0  0  0  0  0  0  0  0
   21.6765   11.4310    2.7898 C   0  0  2  0  0  0  0  0  0  0  0  0
   20.4765   11.3101    3.4839 O   0  0  0  0  0  0  0  0  0  0  0  0
   21.4175   11.7133    1.2614 C   0  0  1  0  0  0  0  0  0  0  0  0
   20.6051   12.9582    1.0603 N   0  0  0  0  0  0  0  0  0  0  0  0
   22.8158   11.8331    0.5349 C   0  0  2  0  0  0  0  0  0  0  0  0
   22.6450   12.0975   -0.8591 O   0  0  0  0  0  0  0  0  0  0  0  0
   23.6154   10.5072    0.7695 C   0  0  2  0  0  0  0  0  0  0  0  0
   23.7929   10.2376    2.2377 O   0  0  0  0  0  0  0  0  0  0  0  0
   24.9739   10.5568    0.1325 C   0  0  0  0  0  0  0  0  0  0  0  0
   25.9377    9.8180    0.9008 O   0  0  0  0  0  0  0  0  0  0  0  0
   20.0156    2.4796   -1.2285 O   0  0  0  0  0  0  0  0  0  0  0  0
   22.5741    1.7900   -2.3312 O   0  0  0  0  0  0  0  0  0  0  0  0
   25.2250    6.4631    5.3054 N   0  0  0  0  0  0  0  0  0  0  0  0
   25.6667    7.7390    3.0029 C   0  0  0  0  0  0  0  0  0  0  0  0
   26.1392    6.7872    2.3913 O   0  0  0  0  0  0  0  0  0  0  0  0
   26.5236    8.8137    3.7108 C   0  0  1  0  0  0  0  0  0  0  0  0
   26.7313    8.4335    5.1908 C   0  0  0  0  0  0  0  0  0  0  0  0
   26.5877    6.9439    5.5236 C   0  0  0  0  0  0  0  0  0  0  0  0
   27.7909    8.9349    3.0261 O   0  0  0  0  0  0  0  0  0  0  0  0
  1  2  1  1  0  0  0
  1  3  1  0  0  0  0
  1  8  1  0  0  0  0
  3  4  1  0  0  0  0
  3 32  1  1  0  0  0
  4  5  1  0  0  0  0
  4 33  1  6  0  0  0
  5  6  1  1  0  0  0
  5  7  1  0  0  0  0
  7  8  1  0  0  0  0
  7  9  1  6  0  0  0
  9 10  1  0  0  0  0
 11 12  1  6  0  0  0
 11 13  1  0  0  0  0
 11 19  1  0  0  0  0
 12 35  1  0  0  0  0
 13 14  1  0  0  0  0
 14 15  1  6  0  0  0
 14 16  1  0  0  0  0
 16  2  1  1  0  0  0
 16 17  1  0  0  0  0
 17 18  1  6  0  0  0
 17 19  1  0  0  0  0
 19 20  1  1  0  0  0
 21 20  1  6  0  0  0
 21 22  1  0  0  0  0
 21 29  1  0  0  0  0
 22 23  1  1  0  0  0
 22 24  1  0  0  0  0
 24 25  1  1  0  0  0
 24 26  1  0  0  0  0
 26 27  1  6  0  0  0
 26 28  1  0  0  0  0
 28 29  1  0  0  0  0
 28 30  1  6  0  0  0
 30 31  1  0  0  0  0
 34 39  1  0  0  0  0
 35 36  2  0  0  0  0
 37 35  1  6  0  0  0
 37 38  1  0  0  0  0
 37 40  1  0  0  0  0
 38 39  1  0  0  0  0
M  END
>  <CHROM.1>
114.29322626,-79.84581306,-1.30633199,-123.99786388,68.95234005,138.17704421
146.69921091,85.97013873,23.25453504,-65.15084058,23.17507187,7.43542495
0.79778772,1.90094564,0.70447475,-2.71698547

>  <Name>
2g5q_lig

>  <RI>
224

>  <Rbt.Current_Directory>
/home/itssahil/PROJECTS/Mol_Feturizer/New_Systems/rnas/2g5q

>  <Rbt.Executable>
rbdock ($Id: //depot/dev/client3/rdock/2013.1/src/exe/rbdock.cxx#4 $)

>  <Rbt.Library>
libRbt.so (2013.1, Build901 2013/11/27)

>  <Rbt.Parameter_File>
/export/apps/rDock/src/rDock_2013.1_src/data/scripts/dock_solv.prm

>  <Rbt.Receptor>
prm/blind_docking_60.prm

>  <SCORE>
30.8997

>  <SCORE.INTER>
-1.5671

>  <SCORE.INTER.CONST>
1

>  <SCORE.INTER.POLAR>
-1.2896

>  <SCORE.INTER.ROT>
10

>  <SCORE.INTER.SOLV>
31.3301

>  <SCORE.INTER.VDW>
-17.4561

>  <SCORE.INTER.norm>
-0.0391774

>  <SCORE.INTRA>
16.7158

>  <SCORE.INTRA.DIHEDRAL>
8.23815

>  <SCORE.INTRA.DIHEDRAL.0>
22.5778

>  <SCORE.INTRA.POLAR>
0

>  <SCORE.INTRA.POLAR.0>
0

>  <SCORE.INTRA.REPUL>
0

>  <SCORE.INTRA.REPUL.0>
0

>  <SCORE.INTRA.SOLV>
12.2447

>  <SCORE.INTRA.SOLV.lig_0>
-102.332

>  <SCORE.INTRA.VDW>
6.47434

>  <SCORE.INTRA.VDW.0>
-5.08747

>  <SCORE.INTRA.norm>
0.417895

>  <SCORE.RESTR>
15.751

>  <SCORE.RESTR.CAVITY>
15.751

>  <SCORE.RESTR.norm>
0.393775

>  <SCORE.SYSTEM>
0

>  <SCORE.SYSTEM.CONST>
0

>  <SCORE.SYSTEM.DIHEDRAL>
0

>  <SCORE.SYSTEM.SOLV>
0

>  <SCORE.SYSTEM.norm>
0

>  <SCORE.heavy>
40

>  <SCORE.norm>
0.772493

>  <RMSD>
33.685

$$$$
2g5q_lig
 OpenBabel11021811433D
libRbt.so/2013.1/901 2013/11/27
 40 42  0  0  0  0  0  0  0  0999 V2000
   24.7157    5.6148    4.5813 C   0  0  2  0  0  0  0  0  0  0  0  0
   24.9974    6.9835    4.3893 O   0  0  0  0  0  0  0  0  0  0  0  0
   26.0595    4.8317    4.6581 C   0  0  1  0  0  0  0  0  0  0  0  0
   26.8219    4.8495    3.2972 C   0  0  2  0  0  0  0  0  0  0  0  0
   25.9012    4.2036    2.2294 C   0  0  2  0  0  0  0  0  0  0  0  0
   26.5787    4.1801    0.9626 O   0  0  0  0  0  0  0  0  0  0  0  0
   24.5670    5.0504    2.1471 C   0  0  2  0  0  0  0  0  0  0  0  0
   23.8889    5.0651    3.4748 O   0  0  0  0  0  0  0  0  0  0  0  0
   23.5759    4.4929    1.1309 C   0  0  0  0  0  0  0  0  0  0  0  0
   23.9756    4.8110   -0.2765 N   0  0  0  0  0  0  0  0  0  0  0  0
   24.0828   10.0740    1.4414 C   0  0  2  0  0  0  0  0  0  0  0  0
   23.9211   10.7597    0.1649 N   0  0  0  0  0  0  0  0  0  0  0  0
   25.5943    9.6366    1.6416 C   0  0  0  0  0  0  0  0  0  0  0  0
   25.7754    8.8996    3.0268 C   0  0  2  0  0  0  0  0  0  0  0  0
   27.1986    8.5048    3.2072 N   0  0  0  0  0  0  0  0  0  0  0  0
   24.8178    7.6436    3.0850 C   0  0  2  0  0  0  0  0  0  0  0  0
   23.3248    8.1176    2.8778 C   0  0  2  0  0  0  0  0  0  0  0  0
   22.4603    6.9781    2.9245 O   0  0  0  0  0  0  0  0  0  0  0  0
   23.1630    8.8362    1.4840 C   0  0  1  0  0  0  0  0  0  0  0  0
   21.7899    9.2826    1.3011 O   0  0  0  0  0  0  0  0  0  0  0  0
   20.7310    8.9571    2.1677 C   0  0  2  0  0  0  0  0  0  0  0  0
   19.4192    8.9195    1.3128 C   0  0  2  0  0  0  0  0  0  0  0  0
   19.5435    7.9598    0.3127 O   0  0  0  0  0  0  0  0  0  0  0  0
   19.0993   10.3349    0.6988 C   0  0  1  0  0  0  0  0  0  0  0  0
   17.8416   10.3103   -0.1185 N   0  0  0  0  0  0  0  0  0  0  0  0
   18.9776   11.3738    1.8834 C   0  0  2  0  0  0  0  0  0  0  0  0
   18.6795   12.6803    1.3871 O   0  0  0  0  0  0  0  0  0  0  0  0
   20.3169   11.3645    2.6951 C   0  0  2  0  0  0  0  0  0  0  0  0
   20.6219    9.9877    3.2157 O   0  0  0  0  0  0  0  0  0  0  0  0
   20.2669   12.3083    3.8615 C   0  0  0  0  0  0  0  0  0  0  0  0
   19.2333   11.9378    4.7884 O   0  0  0  0  0  0  0  0  0  0  0  0
   26.8759    5.4192    5.7288 O   0  0  0  0  0  0  0  0  0  0  0  0
   27.9923    4.1334    3.4184 O   0  0  0  0  0  0  0  0  0  0  0  0
   25.6245   14.6339   -3.0498 N   0  0  0  0  0  0  0  0  0  0  0  0
   22.8747   11.6116   -0.1596 C   0  0  0  0  0  0  0  0  0  0  0  0
   21.9512   11.8807    0.6007 O   0  0  0  0  0  0  0  0  0  0  0  0
   22.9934   12.1718   -1.5958 C   0  0  1  0  0  0  0  0  0  0  0  0
   24.2641   13.0364   -1.7224 C   0  0  0  0  0  0  0  0  0  0  0  0
   24.3921   13.8490   -3.0160 C   0  0  0  0  0  0  0  0  0  0  0  0
   23.0226   11.0710   -2.5321 O   0  0  0  0  0  0  0  0  0  0  0  0
  1  2  1  6  0  0  0
  1  3  1  0  0  0  0
  1  8  1  0  0  0  0
  3  4  1  0  0  0  0
  3 32  1  1  0  0  0
  4  5  1  0  0  0  0
  4 33  1  1  0  0  0
  5  6  1  6  0  0  0
  5  7  1  0  0  0  0
  7  8  1  0  0  0  0
  7  9  1  6  0  0  0
  9 10  1  0  0  0  0
 11 12  1  6  0  0  0
 11 13  1  0  0  0  0
 11 19  1  0  0  0  0
 12 35  1  0  0  0  0
 13 14  1  0  0  0  0
 14 15  1  6  0  0  0
 14 16  1  0  0  0  0
 16  2  1  1  0  0  0
 16 17  1  0  0  0  0
 17 18  1  6  0  0  0
 17 19  1  0  0  0  0
 19 20  1  1  0  0  0
 21 20  1  6  0  0  0
 21 22  1  0  0  0  0
 21 29  1  0  0  0  0
 22 23  1  6  0  0  0
 22 24  1  0  0  0  0
 24 25  1  1  0  0  0
 24 26  1  0  0  0  0
 26 27  1  6  0  0  0
 26 28  1  0  0  0  0
 28 29  1  0  0  0  0
 28 30  1  1  0  0  0
 30 31  1  0  0  0  0
 34 39  1  0  0  0  0
 35 36  2  0  0  0  0
 37 35  1  1  0  0  0
 37 38  1  0  0  0  0
 37 40  1  0  0  0  0
 38 39  1  0  0  0  0
M  END
>  <CHROM.1>
104.66404866,-75.93990643,-159.47838167,-155.17356828,-127.26546537,-149.93305245
61.43302859,-63.40666981,-170.07174862,-179.89368868,23.18638134,8.80171669
1.70938426,0.94298417,-0.37373429,2.46725429

>  <Name>
2g5q_lig

>  <RI>
224

>  <Rbt.Current_Directory>
/home/itssahil/PROJECTS/Mol_Feturizer/New_Systems/rnas/2g5q

>  <Rbt.Executable>
rbdock ($Id: //depot/dev/client3/rdock/2013.1/src/exe/rbdock.cxx#4 $)

>  <Rbt.Library>
libRbt.so (2013.1, Build901 2013/11/27)

>  <Rbt.Parameter_File>
/export/apps/rDock/src/rDock_2013.1_src/data/scripts/dock_solv.prm

>  <Rbt.Receptor>
prm/blind_docking_100.prm

>  <SCORE>
12.5378

>  <SCORE.INTER>
-10.25

>  <SCORE.INTER.CONST>
1

>  <SCORE.INTER.POLAR>
-0.801404

>  <SCORE.INTER.ROT>
10

>  <SCORE.INTER.SOLV>
25.3095

>  <SCORE.INTER.VDW>
-22.8652

>  <SCORE.INTER.norm>
-0.256251

>  <SCORE.INTRA>
3.52732

>  <SCORE.INTRA.DIHEDRAL>
-0.941574

>  <SCORE.INTRA.DIHEDRAL.0>
22.5778

>  <SCORE.INTRA.POLAR>
0

>  <SCORE.INTRA.POLAR.0>
0

>  <SCORE.INTRA.REPUL>
0

>  <SCORE.INTRA.REPUL.0>
0

>  <SCORE.INTRA.SOLV>
3.05482

>  <SCORE.INTRA.SOLV.lig_0>
-102.332

>  <SCORE.INTRA.VDW>
2.47069

>  <SCORE.INTRA.VDW.0>
-5.08747

>  <SCORE.INTRA.norm>
0.0881829

>  <SCORE.RESTR>
19.2605

>  <SCORE.RESTR.CAVITY>
19.2605

>  <SCORE.RESTR.norm>
0.481512

>  <SCORE.SYSTEM>
0

>  <SCORE.SYSTEM.CONST>
0

>  <SCORE.SYSTEM.DIHEDRAL>
0

>  <SCORE.SYSTEM.SOLV>
0

>  <SCORE.SYSTEM.norm>
0

>  <SCORE.heavy>
40

>  <SCORE.norm>
0.313444

>  <RMSD>
33.699

$$$$
2g5q_lig
 OpenBabel11021811433D
libRbt.so/2013.1/901 2013/11/27
 40 42  0  0  0  0  0  0  0  0999 V2000
   20.5910   13.1873    0.4970 C   0  0  2  0  0  0  0  0  0  0  0  0
   21.9569   13.1305    0.1498 O   0  0  0  0  0  0  0  0  0  0  0  0
   20.3615   14.4098    1.4338 C   0  0  1  0  0  0  0  0  0  0  0  0
   21.0705   14.2283    2.8115 C   0  0  2  0  0  0  0  0  0  0  0  0
   20.4988   12.9480    3.4740 C   0  0  2  0  0  0  0  0  0  0  0  0
   21.1120   12.7582    4.7594 O   0  0  0  0  0  0  0  0  0  0  0  0
   20.7896   11.7219    2.5168 C   0  0  2  0  0  0  0  0  0  0  0  0
   20.1497   11.9478    1.1892 O   0  0  0  0  0  0  0  0  0  0  0  0
   20.2544   10.4040    3.0667 C   0  0  0  0  0  0  0  0  0  0  0  0
   20.0526    9.3857    1.9877 N   0  0  0  0  0  0  0  0  0  0  0  0
   22.5904    8.9934   -1.0994 C   0  0  2  0  0  0  0  0  0  0  0  0
   23.1346    7.8249   -1.7807 N   0  0  0  0  0  0  0  0  0  0  0  0
   22.0196   10.0287   -2.1568 C   0  0  0  0  0  0  0  0  0  0  0  0
   21.4224   11.2931   -1.4224 C   0  0  2  0  0  0  0  0  0  0  0  0
   20.8806   12.2507   -2.4242 N   0  0  0  0  0  0  0  0  0  0  0  0
   22.5428   11.9640   -0.5321 C   0  0  2  0  0  0  0  0  0  0  0  0
   23.0888   10.9030    0.5037 C   0  0  2  0  0  0  0  0  0  0  0  0
   24.1074   11.5107    1.3044 O   0  0  0  0  0  0  0  0  0  0  0  0
   23.6937    9.6575   -0.2499 C   0  0  1  0  0  0  0  0  0  0  0  0
   24.1846    8.6765    0.7066 O   0  0  0  0  0  0  0  0  0  0  0  0
   23.4485    8.2136    1.8120 C   0  0  2  0  0  0  0  0  0  0  0  0
   24.4062    7.3237    2.6745 C   0  0  2  0  0  0  0  0  0  0  0  0
   25.4930    8.0836    3.0961 O   0  0  0  0  0  0  0  0  0  0  0  0
   24.8835    6.0559    1.8697 C   0  0  1  0  0  0  0  0  0  0  0  0
   25.7981    5.1943    2.6893 N   0  0  0  0  0  0  0  0  0  0  0  0
   23.6050    5.2445    1.4179 C   0  0  2  0  0  0  0  0  0  0  0  0
   23.9760    4.0741    0.6866 O   0  0  0  0  0  0  0  0  0  0  0  0
   22.6930    6.1863    0.5612 C   0  0  2  0  0  0  0  0  0  0  0  0
   22.3052    7.4134    1.3382 O   0  0  0  0  0  0  0  0  0  0  0  0
   21.4371    5.4929    0.1189 C   0  0  0  0  0  0  0  0  0  0  0  0
   21.6644    4.0909   -0.0992 O   0  0  0  0  0  0  0  0  0  0  0  0
   20.8434   15.6153    0.7463 O   0  0  0  0  0  0  0  0  0  0  0  0
   20.8240   15.3290    3.6021 O   0  0  0  0  0  0  0  0  0  0  0  0
   24.3863    2.9299   -3.4941 N   0  0  0  0  0  0  0  0  0  0  0  0
   22.4000    6.9289   -2.5446 C   0  0  0  0  0  0  0  0  0  0  0  0
   21.1909    7.0176   -2.7281 O   0  0  0  0  0  0  0  0  0  0  0  0
   23.2741    5.7938   -3.1260 C   0  0  1  0  0  0  0  0  0  0  0  0
   23.6235    4.7769   -2.0206 C   0  0  0  0  0  0  0  0  0  0  0  0
   23.4845    3.2993   -2.4050 C   0  0  0  0  0  0  0  0  0  0  0  0
   22.5610    5.1547   -4.2088 O   0  0  0  0  0  0  0  0  0  0  0  0
  1  2  1  1  0  0  0
  1  3  1  0  0  0  0
  1  8  1  0  0  0  0
  3  4  1  0  0  0  0
  3 32  1  6  0  0  0
  4  5  1  0  0  0  0
  4 33  1  1  0  0  0
  5  6  1  1  0  0  0
  5  7  1  0  0  0  0
  7  8  1  0  0  0  0
  7  9  1  1  0  0  0
  9 10  1  0  0  0  0
 11 12  1  6  0  0  0
 11 13  1  0  0  0  0
 11 19  1  0  0  0  0
 12 35  1  0  0  0  0
 13 14  1  0  0  0  0
 14 15  1  6  0  0  0
 14 16  1  0  0  0  0
 16  2  1  1  0  0  0
 16 17  1  0  0  0  0
 17 18  1  6  0  0  0
 17 19  1  0  0  0  0
 19 20  1  1  0  0  0
 21 20  1  6  0  0  0
 21 22  1  0  0  0  0
 21 29  1  0  0  0  0
 22 23  1  6  0  0  0
 22 24  1  0  0  0  0
 24 25  1  1  0  0  0
 24 26  1  0  0  0  0
 26 27  1  6  0  0  0
 26 28  1  0  0  0  0
 28 29  1  0  0  0  0
 28 30  1  1  0  0  0
 30 31  1  0  0  0  0
 34 39  1  0  0  0  0
 35 36  2  0  0  0  0
 37 35  1  1  0  0  0
 37 38  1  0  0  0  0
 37 40  1  0  0  0  0
 38 39  1  0  0  0  0
M  END
>  <CHROM.1>
169.16948582,158.07292329,-64.02696018,29.77600516,-70.74939510,-172.64877015
-32.44220421,75.35449426,135.32440297,62.09386198,22.41577274,9.04524466
0.38565926,2.24958689,-1.14914971,0.98056270

>  <Name>
2g5q_lig

>  <RI>
224

>  <Rbt.Current_Directory>
/home/itssahil/PROJECTS/Mol_Feturizer/New_Systems/rnas/2g5q

>  <Rbt.Executable>
rbdock ($Id: //depot/dev/client3/rdock/2013.1/src/exe/rbdock.cxx#4 $)

>  <Rbt.Library>
libRbt.so (2013.1, Build901 2013/11/27)

>  <Rbt.Parameter_File>
/export/apps/rDock/src/rDock_2013.1_src/data/scripts/dock_solv.prm

>  <Rbt.Receptor>
prm/blind_docking_60.prm

>  <SCORE>
31.6764

>  <SCORE.INTER>
8.13313

>  <SCORE.INTER.CONST>
1

>  <SCORE.INTER.POLAR>
0

>  <SCORE.INTER.ROT>
10

>  <SCORE.INTER.SOLV>
21.5897

>  <SCORE.INTER.VDW>
-12.0411

>  <SCORE.INTER.norm>
0.203328

>  <SCORE.INTRA>
2.05946

>  <SCORE.INTRA.DIHEDRAL>
-8.24634

>  <SCORE.INTRA.DIHEDRAL.0>
22.5778

>  <SCORE.INTRA.POLAR>
0

>  <SCORE.INTRA.POLAR.0>
0

>  <SCORE.INTRA.REPUL>
0

>  <SCORE.INTRA.REPUL.0>
0

>  <SCORE.INTRA.SOLV>
7.99355

>  <SCORE.INTRA.SOLV.lig_0>
-102.332

>  <SCORE.INTRA.VDW>
2.18585

>  <SCORE.INTRA.VDW.0>
-5.08747

>  <SCORE.INTRA.norm>
0.0514865

>  <SCORE.RESTR>
21.4838

>  <SCORE.RESTR.CAVITY>
21.4838

>  <SCORE.RESTR.norm>
0.537094

>  <SCORE.SYSTEM>
0

>  <SCORE.SYSTEM.CONST>
0

>  <SCORE.SYSTEM.DIHEDRAL>
0

>  <SCORE.SYSTEM.SOLV>
0

>  <SCORE.SYSTEM.norm>
0

>  <SCORE.heavy>
40

>  <SCORE.norm>
0.791909

>  <RMSD>
33.699

$$$$
2g5q_lig
 OpenBabel11021811433D
libRbt.so/2013.1/901 2013/11/27
 40 42  0  0  0  0  0  0  0  0999 V2000
   21.2155   12.0970   -1.6723 C   0  0  2  0  0  0  0  0  0  0  0  0
   22.5021   11.6365   -2.0217 O   0  0  0  0  0  0  0  0  0  0  0  0
   21.3469   13.5019   -1.0137 C   0  0  1  0  0  0  0  0  0  0  0  0
   22.0844   13.4342    0.3593 C   0  0  2  0  0  0  0  0  0  0  0  0
   21.2715   12.4957    1.2884 C   0  0  2  0  0  0  0  0  0  0  0  0
   21.9080   12.4250    2.5746 O   0  0  0  0  0  0  0  0  0  0  0  0
   21.1974   11.0682    0.6096 C   0  0  2  0  0  0  0  0  0  0  0  0
   20.5408   11.1710   -0.7250 O   0  0  0  0  0  0  0  0  0  0  0  0
   20.4034   10.0622    1.4362 C   0  0  0  0  0  0  0  0  0  0  0  0
   20.0453    8.8428    0.6446 N   0  0  0  0  0  0  0  0  0  0  0  0
   22.2368    7.3102   -1.4833 C   0  0  2  0  0  0  0  0  0  0  0  0
   22.5031    5.8831   -1.6192 N   0  0  0  0  0  0  0  0  0  0  0  0
   21.8316    7.9287   -2.8865 C   0  0  0  0  0  0  0  0  0  0  0  0
   21.5352    9.4734   -2.7425 C   0  0  2  0  0  0  0  0  0  0  0  0
   21.1457   10.0388   -4.0625 N   0  0  0  0  0  0  0  0  0  0  0  0
   22.8096   10.2025   -2.1574 C   0  0  2  0  0  0  0  0  0  0  0  0
   23.1844    9.5574   -0.7645 C   0  0  2  0  0  0  0  0  0  0  0  0
   24.3422   10.2149   -0.2398 O   0  0  0  0  0  0  0  0  0  0  0  0
   23.4912    8.0205   -0.9335 C   0  0  1  0  0  0  0  0  0  0  0  0
   23.8241    7.4263    0.3527 O   0  0  0  0  0  0  0  0  0  0  0  0
   23.4489    6.1286    0.7444 C   0  0  2  0  0  0  0  0  0  0  0  0
   22.4604    6.2698    1.9511 C   0  0  2  0  0  0  0  0  0  0  0  0
   21.3448    7.0013    1.5550 O   0  0  0  0  0  0  0  0  0  0  0  0
   23.1655    6.9436    3.1886 C   0  0  1  0  0  0  0  0  0  0  0  0
   22.2278    7.0792    4.3516 N   0  0  0  0  0  0  0  0  0  0  0  0
   24.4219    6.0690    3.5809 C   0  0  2  0  0  0  0  0  0  0  0  0
   25.1012    6.6285    4.7068 O   0  0  0  0  0  0  0  0  0  0  0  0
   25.3681    5.9683    2.3370 C   0  0  2  0  0  0  0  0  0  0  0  0
   24.6471    5.3767    1.1581 O   0  0  0  0  0  0  0  0  0  0  0  0
   26.5751    5.1228    2.6232 C   0  0  0  0  0  0  0  0  0  0  0  0
   26.2170    3.7409    2.7873 O   0  0  0  0  0  0  0  0  0  0  0  0
   22.0533   14.3867   -1.9498 O   0  0  0  0  0  0  0  0  0  0  0  0
   22.1605   14.6983    0.9013 O   0  0  0  0  0  0  0  0  0  0  0  0
   21.3499    2.6108   -0.4352 N   0  0  0  0  0  0  0  0  0  0  0  0
   23.6738    5.3310   -2.1200 C   0  0  0  0  0  0  0  0  0  0  0  0
   24.6266    5.9928   -2.5171 O   0  0  0  0  0  0  0  0  0  0  0  0
   23.6369    3.7855   -2.1379 C   0  0  1  0  0  0  0  0  0  0  0  0
   22.2636    3.2954   -2.6400 C   0  0  0  0  0  0  0  0  0  0  0  0
   21.1086    3.4053   -1.6379 C   0  0  0  0  0  0  0  0  0  0  0  0
   24.7010    3.2965   -2.9852 O   0  0  0  0  0  0  0  0  0  0  0  0
  1  2  1  1  0  0  0
  1  3  1  0  0  0  0
  1  8  1  0  0  0  0
  3  4  1  0  0  0  0
  3 32  1  6  0  0  0
  4  5  1  0  0  0  0
  4 33  1  1  0  0  0
  5  6  1  1  0  0  0
  5  7  1  0  0  0  0
  7  8  1  0  0  0  0
  7  9  1  1  0  0  0
  9 10  1  0  0  0  0
 11 12  1  6  0  0  0
 11 13  1  0  0  0  0
 11 19  1  0  0  0  0
 12 35  1  0  0  0  0
 13 14  1  0  0  0  0
 14 15  1  6  0  0  0
 14 16  1  0  0  0  0
 16  2  1  1  0  0  0
 16 17  1  0  0  0  0
 17 18  1  6  0  0  0
 17 19  1  0  0  0  0
 19 20  1  1  0  0  0
 21 20  1  1  0  0  0
 21 22  1  0  0  0  0
 21 29  1  0  0  0  0
 22 23  1  6  0  0  0
 22 24  1  0  0  0  0
 24 25  1  1  0  0  0
 24 26  1  0  0  0  0
 26 27  1  1  0  0  0
 26 28  1  0  0  0  0
 28 29  1  0  0  0  0
 28 30  1  1  0  0  0
 30 31  1  0  0  0  0
 34 39  1  0  0  0  0
 35 36  2  0  0  0  0
 37 35  1  6  0  0  0
 37 38  1  0  0  0  0
 37 40  1  0  0  0  0
 38 39  1  0  0  0  0
M  END
>  <CHROM.1>
155.27744287,165.50225837,78.85272017,34.79026326,23.92414826,-114.82083484
68.72888753,42.70770409,-75.59844811,-60.95277451,22.77675960,8.16505428
-0.02134009,2.44231790,-1.20567893,0.73716446

>  <Name>
2g5q_lig

>  <RI>
0

>  <Rbt.Current_Directory>
/home/itssahil/PROJECTS/Mol_Feturizer/New_Systems/rnas/2g5q

>  <Rbt.Executable>
rbdock ($Id: //depot/dev/client3/rdock/2013.1/src/exe/rbdock.cxx#4 $)

>  <Rbt.Library>
libRbt.so (2013.1, Build901 2013/11/27)

>  <Rbt.Parameter_File>
/export/apps/rDock/src/rDock_2013.1_src/data/scripts/dock_solv.prm

>  <Rbt.Receptor>
prm/blind_docking_40.prm

>  <SCORE>
21.536

>  <SCORE.INTER>
2.28297

>  <SCORE.INTER.CONST>
1

>  <SCORE.INTER.POLAR>
-0.565445

>  <SCORE.INTER.ROT>
10

>  <SCORE.INTER.SOLV>
28.6449

>  <SCORE.INTER.VDW>
-16.4082

>  <SCORE.INTER.norm>
0.0570742

>  <SCORE.INTRA>
7.75615

>  <SCORE.INTRA.DIHEDRAL>
-2.27554

>  <SCORE.INTRA.DIHEDRAL.0>
22.5778

>  <SCORE.INTRA.POLAR>
0

>  <SCORE.INTRA.POLAR.0>
0

>  <SCORE.INTRA.REPUL>
0

>  <SCORE.INTRA.REPUL.0>
0

>  <SCORE.INTRA.SOLV>
9.45696

>  <SCORE.INTRA.SOLV.lig_0>
-102.332

>  <SCORE.INTRA.VDW>
4.16544

>  <SCORE.INTRA.VDW.0>
-5.08747

>  <SCORE.INTRA.norm>
0.193904

>  <SCORE.RESTR>
11.4969

>  <SCORE.RESTR.CAVITY>
11.4969

>  <SCORE.RESTR.norm>
0.287422

>  <SCORE.SYSTEM>
0

>  <SCORE.SYSTEM.CONST>
0

>  <SCORE.SYSTEM.DIHEDRAL>
0

>  <SCORE.SYSTEM.SOLV>
0

>  <SCORE.SYSTEM.norm>
0

>  <SCORE.heavy>
40

>  <SCORE.norm>
0.5384

>  <RMSD>
33.713

$$$$
2g5q_lig
 OpenBabel11021811433D
libRbt.so/2013.1/901 2013/11/27
 40 42  0  0  0  0  0  0  0  0999 V2000
   20.7986   13.8352    1.1929 C   0  0  2  0  0  0  0  0  0  0  0  0
   22.1971   13.6529    1.1683 O   0  0  0  0  0  0  0  0  0  0  0  0
   20.4612   14.9987    2.1714 C   0  0  1  0  0  0  0  0  0  0  0  0
   20.7971   14.6314    3.6499 C   0  0  2  0  0  0  0  0  0  0  0  0
   19.9690   13.3754    4.0263 C   0  0  2  0  0  0  0  0  0  0  0  0
   20.2339   13.0179    5.3925 O   0  0  0  0  0  0  0  0  0  0  0  0
   20.3703   12.2032    3.0420 C   0  0  2  0  0  0  0  0  0  0  0  0
   20.0931   12.6027    1.6326 O   0  0  0  0  0  0  0  0  0  0  0  0
   19.6013   10.9147    3.3142 C   0  0  0  0  0  0  0  0  0  0  0  0
   18.2203   10.9522    2.7370 N   0  0  0  0  0  0  0  0  0  0  0  0
   22.6022    9.9127   -1.0507 C   0  0  2  0  0  0  0  0  0  0  0  0
   23.1967    8.7580   -1.7132 N   0  0  0  0  0  0  0  0  0  0  0  0
   23.1166   11.2549   -1.7212 C   0  0  0  0  0  0  0  0  0  0  0  0
   22.4693   12.5084   -1.0111 C   0  0  2  0  0  0  0  0  0  0  0  0
   22.9509   13.7598   -1.6562 N   0  0  0  0  0  0  0  0  0  0  0  0
   22.8222   12.4824    0.5293 C   0  0  2  0  0  0  0  0  0  0  0  0
   22.2990   11.1314    1.1601 C   0  0  2  0  0  0  0  0  0  0  0  0
   22.6251   11.1072    2.5533 O   0  0  0  0  0  0  0  0  0  0  0  0
   22.9686    9.8947    0.4478 C   0  0  1  0  0  0  0  0  0  0  0  0
   22.4756    8.6517    1.0223 O   0  0  0  0  0  0  0  0  0  0  0  0
   23.2475    7.4839    1.1597 C   0  0  2  0  0  0  0  0  0  0  0  0
   22.7001    6.7028    2.4020 C   0  0  2  0  0  0  0  0  0  0  0  0
   21.3619    6.3814    2.1963 O   0  0  0  0  0  0  0  0  0  0  0  0
   22.8819    7.5387    3.7252 C   0  0  1  0  0  0  0  0  0  0  0  0
   22.3645    6.7968    4.9219 N   0  0  0  0  0  0  0  0  0  0  0  0
   24.4171    7.8733    3.8939 C   0  0  2  0  0  0  0  0  0  0  0  0
   24.6465    8.6274    5.0859 O   0  0  0  0  0  0  0  0  0  0  0  0
   24.9005    8.6530    2.6247 C   0  0  2  0  0  0  0  0  0  0  0  0
   24.6581    7.8523    1.3757 O   0  0  0  0  0  0  0  0  0  0  0  0
   26.3637    8.9808    2.6969 C   0  0  0  0  0  0  0  0  0  0  0  0
   27.1047    7.9233    3.3274 O   0  0  0  0  0  0  0  0  0  0  0  0
   21.2018   16.1926    1.7422 O   0  0  0  0  0  0  0  0  0  0  0  0
   20.4675   15.6875    4.4705 O   0  0  0  0  0  0  0  0  0  0  0  0
   22.6952    3.8845    0.1623 N   0  0  0  0  0  0  0  0  0  0  0  0
   22.7082    7.4603   -1.6524 C   0  0  0  0  0  0  0  0  0  0  0  0
   21.7106    7.1344   -1.0185 O   0  0  0  0  0  0  0  0  0  0  0  0
   23.5731    6.4657   -2.4606 C   0  0  1  0  0  0  0  0  0  0  0  0
   23.3553    5.0309   -1.9388 C   0  0  0  0  0  0  0  0  0  0  0  0
   23.6454    4.8112   -0.4496 C   0  0  0  0  0  0  0  0  0  0  0  0
   23.2250    6.5645   -3.8600 O   0  0  0  0  0  0  0  0  0  0  0  0
  1  2  1  1  0  0  0
  1  3  1  0  0  0  0
  1  8  1  0  0  0  0
  3  4  1  0  0  0  0
  3 32  1  6  0  0  0
  4  5  1  0  0  0  0
  4 33  1  1  0  0  0
  5  6  1  1  0  0  0
  5  7  1  0  0  0  0
  7  8  1  0  0  0  0
  7  9  1  1  0  0  0
  9 10  1  0  0  0  0
 11 12  1  6  0  0  0
 11 13  1  0  0  0  0
 11 19  1  0  0  0  0
 12 35  1  0  0  0  0
 13 14  1  0  0  0  0
 14 15  1  6  0  0  0
 14 16  1  0  0  0  0
 16  2  1  1  0  0  0
 16 17  1  0  0  0  0
 17 18  1  1  0  0  0
 17 19  1  0  0  0  0
 19 20  1  1  0  0  0
 21 20  1  1  0  0  0
 21 22  1  0  0  0  0
 21 29  1  0  0  0  0
 22 23  1  6  0  0  0
 22 24  1  0  0  0  0
 24 25  1  1  0  0  0
 24 26  1  0  0  0  0
 26 27  1  1  0  0  0
 26 28  1  0  0  0  0
 28 29  1  0  0  0  0
 28 30  1  1  0  0  0
 30 31  1  0  0  0  0
 34 39  1  0  0  0  0
 35 36  2  0  0  0  0
 37 35  1  1  0  0  0
 37 38  1  0  0  0  0
 37 40  1  0  0  0  0
 38 39  1  0  0  0  0
M  END
>  <CHROM.1>
168.93264730,79.35763454,-160.94135118,62.30580004,94.30606172,150.81456294
36.31814365,157.73886016,-57.14727624,142.28317047,22.44068837,9.95377704
1.41185704,2.79100135,-1.21268269,1.54088300

>  <Name>
2g5q_lig

>  <RI>
224

>  <Rbt.Current_Directory>
/home/itssahil/PROJECTS/Mol_Feturizer/New_Systems/rnas/2g5q

>  <Rbt.Executable>
rbdock ($Id: //depot/dev/client3/rdock/2013.1/src/exe/rbdock.cxx#4 $)

>  <Rbt.Library>
libRbt.so (2013.1, Build901 2013/11/27)

>  <Rbt.Parameter_File>
/export/apps/rDock/src/rDock_2013.1_src/data/scripts/dock_solv.prm

>  <Rbt.Receptor>
prm/blind_docking_60.prm

>  <SCORE>
55.5684

>  <SCORE.INTER>
32.8165

>  <SCORE.INTER.CONST>
1

>  <SCORE.INTER.POLAR>
-0.715144

>  <SCORE.INTER.ROT>
10

>  <SCORE.INTER.SOLV>
37.3261

>  <SCORE.INTER.VDW>
1.55277

>  <SCORE.INTER.norm>
0.820412

>  <SCORE.INTRA>
3.14954

>  <SCORE.INTRA.DIHEDRAL>
-5.66187

>  <SCORE.INTRA.DIHEDRAL.0>
22.5778

>  <SCORE.INTRA.POLAR>
0

>  <SCORE.INTRA.POLAR.0>
0

>  <SCORE.INTRA.REPUL>
0

>  <SCORE.INTRA.REPUL.0>
0

>  <SCORE.INTRA.SOLV>
5.76188

>  <SCORE.INTRA.SOLV.lig_0>
-102.332

>  <SCORE.INTRA.VDW>
3.09953

>  <SCORE.INTRA.VDW.0>
-5.08747

>  <SCORE.INTRA.norm>
0.0787385

>  <SCORE.RESTR>
19.6024

>  <SCORE.RESTR.CAVITY>
19.6024

>  <SCORE.RESTR.norm>
0.49006

>  <SCORE.SYSTEM>
0

>  <SCORE.SYSTEM.CONST>
0

>  <SCORE.SYSTEM.DIHEDRAL>
0

>  <SCORE.SYSTEM.SOLV>
0

>  <SCORE.SYSTEM.norm>
0

>  <SCORE.heavy>
40

>  <SCORE.norm>
1.38921

>  <RMSD>
33.718

$$$$
2g5q_lig
 OpenBabel11021811433D
libRbt.so/2013.1/901 2013/11/27
 40 42  0  0  0  0  0  0  0  0999 V2000
   24.5517    5.2626    4.1270 C   0  0  2  0  0  0  0  0  0  0  0  0
   24.6535    6.6690    4.1586 O   0  0  0  0  0  0  0  0  0  0  0  0
   25.9529    4.6510    4.4227 C   0  0  1  0  0  0  0  0  0  0  0  0
   26.9739    4.9584    3.2840 C   0  0  2  0  0  0  0  0  0  0  0  0
   26.4106    4.3615    1.9682 C   0  0  2  0  0  0  0  0  0  0  0  0
   27.3362    4.6044    0.8964 O   0  0  0  0  0  0  0  0  0  0  0  0
   25.0100    5.0377    1.6764 C   0  0  2  0  0  0  0  0  0  0  0  0
   24.0723    4.7775    2.8060 O   0  0  0  0  0  0  0  0  0  0  0  0
   24.3542    4.5114    0.4042 C   0  0  0  0  0  0  0  0  0  0  0  0
   23.0059    5.1203    0.1740 N   0  0  0  0  0  0  0  0  0  0  0  0
   23.6988   10.0872    1.6127 C   0  0  2  0  0  0  0  0  0  0  0  0
   23.5540   10.9328    0.4338 N   0  0  0  0  0  0  0  0  0  0  0  0
   25.2218    9.6987    1.8255 C   0  0  0  0  0  0  0  0  0  0  0  0
   25.3841    8.7884    3.1059 C   0  0  2  0  0  0  0  0  0  0  0  0
   26.8176    8.4404    3.3005 N   0  0  0  0  0  0  0  0  0  0  0  0
   24.4935    7.4923    2.9479 C   0  0  2  0  0  0  0  0  0  0  0  0
   22.9872    7.9190    2.7340 C   0  0  2  0  0  0  0  0  0  0  0  0
   22.1838    6.7442    2.5848 O   0  0  0  0  0  0  0  0  0  0  0  0
   22.8455    8.8131    1.4435 C   0  0  1  0  0  0  0  0  0  0  0  0
   21.4593    9.2149    1.2557 O   0  0  0  0  0  0  0  0  0  0  0  0
   20.4580    9.0796    2.2341 C   0  0  2  0  0  0  0  0  0  0  0  0
   19.0748    9.2183    1.5125 C   0  0  2  0  0  0  0  0  0  0  0  0
   18.9517    8.2228    0.5480 O   0  0  0  0  0  0  0  0  0  0  0  0
   18.9083   10.6479    0.8712 C   0  0  1  0  0  0  0  0  0  0  0  0
   17.5841   10.7922    0.1812 N   0  0  0  0  0  0  0  0  0  0  0  0
   19.0644   11.7265    2.0155 C   0  0  2  0  0  0  0  0  0  0  0  0
   18.9152   13.0485    1.4938 O   0  0  0  0  0  0  0  0  0  0  0  0
   20.4632   11.5361    2.6935 C   0  0  2  0  0  0  0  0  0  0  0  0
   20.6113   10.1442    3.2417 O   0  0  0  0  0  0  0  0  0  0  0  0
   20.6739   12.5092    3.8170 C   0  0  0  0  0  0  0  0  0  0  0  0
   20.6980   13.8634    3.3367 O   0  0  0  0  0  0  0  0  0  0  0  0
   26.4239    5.1771    5.7109 O   0  0  0  0  0  0  0  0  0  0  0  0
   28.1882    4.3846    3.5903 O   0  0  0  0  0  0  0  0  0  0  0  0
   23.0295   13.0598   -4.2733 N   0  0  0  0  0  0  0  0  0  0  0  0
   24.5160   11.1045   -0.5517 C   0  0  0  0  0  0  0  0  0  0  0  0
   25.6151   10.5612   -0.5362 O   0  0  0  0  0  0  0  0  0  0  0  0
   24.0540   12.0725   -1.6652 C   0  0  1  0  0  0  0  0  0  0  0  0
   22.7665   11.5410   -2.3268 C   0  0  0  0  0  0  0  0  0  0  0  0
   22.6814   11.7054   -3.8487 C   0  0  0  0  0  0  0  0  0  0  0  0
   23.8379   13.3825   -1.0937 O   0  0  0  0  0  0  0  0  0  0  0  0
  1  2  1  6  0  0  0
  1  3  1  0  0  0  0
  1  8  1  0  0  0  0
  3  4  1  0  0  0  0
  3 32  1  1  0  0  0
  4  5  1  0  0  0  0
  4 33  1  1  0  0  0
  5  6  1  6  0  0  0
  5  7  1  0  0  0  0
  7  8  1  0  0  0  0
  7  9  1  6  0  0  0
  9 10  1  0  0  0  0
 11 12  1  6  0  0  0
 11 13  1  0  0  0  0
 11 19  1  0  0  0  0
 12 35  1  0  0  0  0
 13 14  1  0  0  0  0
 14 15  1  6  0  0  0
 14 16  1  0  0  0  0
 16  2  1  1  0  0  0
 16 17  1  0  0  0  0
 17 18  1  6  0  0  0
 17 19  1  0  0  0  0
 19 20  1  1  0  0  0
 21 20  1  6  0  0  0
 21 22  1  0  0  0  0
 21 29  1  0  0  0  0
 22 23  1  6  0  0  0
 22 24  1  0  0  0  0
 24 25  1  1  0  0  0
 24 26  1  0  0  0  0
 26 27  1  6  0  0  0
 26 28  1  0  0  0  0
 28 29  1  0  0  0  0
 28 30  1  1  0  0  0
 30 31  1  0  0  0  0
 34 39  1  0  0  0  0
 35 36  2  0  0  0  0
 37 35  1  1  0  0  0
 37 38  1  0  0  0  0
 37 40  1  0  0  0  0
 38 39  1  0  0  0  0
M  END
>  <CHROM.1>
112.13063848,177.64970308,15.15819484,-149.56164354,-106.34206073,-163.46756878
-64.04297129,-58.97541056,-140.16601689,-48.17441208,23.18883808,8.79197879
1.56967618,0.85277328,-0.48559374,2.35980113

>  <Name>
2g5q_lig

>  <RI>
224

>  <Rbt.Current_Directory>
/home/itssahil/PROJECTS/Mol_Feturizer/New_Systems/rnas/2g5q

>  <Rbt.Executable>
rbdock ($Id: //depot/dev/client3/rdock/2013.1/src/exe/rbdock.cxx#4 $)

>  <Rbt.Library>
libRbt.so (2013.1, Build901 2013/11/27)

>  <Rbt.Parameter_File>
/export/apps/rDock/src/rDock_2013.1_src/data/scripts/dock_solv.prm

>  <Rbt.Receptor>
prm/blind_docking_100.prm

>  <SCORE>
17.457

>  <SCORE.INTER>
-10.2549

>  <SCORE.INTER.CONST>
1

>  <SCORE.INTER.POLAR>
-0.533552

>  <SCORE.INTER.ROT>
10

>  <SCORE.INTER.SOLV>
23.571

>  <SCORE.INTER.VDW>
-23.1818

>  <SCORE.INTER.norm>
-0.256372

>  <SCORE.INTRA>
8.16167

>  <SCORE.INTRA.DIHEDRAL>
1.83984

>  <SCORE.INTRA.DIHEDRAL.0>
22.5778

>  <SCORE.INTRA.POLAR>
0

>  <SCORE.INTRA.POLAR.0>
0

>  <SCORE.INTRA.REPUL>
0

>  <SCORE.INTRA.REPUL.0>
0

>  <SCORE.INTRA.SOLV>
5.20523

>  <SCORE.INTRA.SOLV.lig_0>
-102.332

>  <SCORE.INTRA.VDW>
4.63913

>  <SCORE.INTRA.VDW.0>
-5.08747

>  <SCORE.INTRA.norm>
0.204042

>  <SCORE.RESTR>
19.5502

>  <SCORE.RESTR.CAVITY>
19.5502

>  <SCORE.RESTR.norm>
0.488755

>  <SCORE.SYSTEM>
0

>  <SCORE.SYSTEM.CONST>
0

>  <SCORE.SYSTEM.DIHEDRAL>
0

>  <SCORE.SYSTEM.SOLV>
0

>  <SCORE.SYSTEM.norm>
0

>  <SCORE.heavy>
40

>  <SCORE.norm>
0.436424

>  <RMSD>
33.719

$$$$
2g5q_lig
 OpenBabel11021811433D
libRbt.so/2013.1/901 2013/11/27
 40 42  0  0  0  0  0  0  0  0999 V2000
   23.4167    2.8366   -2.4146 C   0  0  2  0  0  0  0  0  0  0  0  0
   23.6121    4.1547   -2.8771 O   0  0  0  0  0  0  0  0  0  0  0  0
   22.9720    1.9453   -3.6115 C   0  0  1  0  0  0  0  0  0  0  0  0
   21.5617    2.3472   -4.1437 C   0  0  2  0  0  0  0  0  0  0  0  0
   20.5530    2.1947   -2.9758 C   0  0  2  0  0  0  0  0  0  0  0  0
   19.2341    2.5346   -3.4335 O   0  0  0  0  0  0  0  0  0  0  0  0
   21.0107    3.1467   -1.7975 C   0  0  2  0  0  0  0  0  0  0  0  0
   22.3834    2.7781   -1.3474 O   0  0  0  0  0  0  0  0  0  0  0  0
   20.0917    3.0664   -0.5831 C   0  0  0  0  0  0  0  0  0  0  0  0
   20.5412    3.9707    0.5222 N   0  0  0  0  0  0  0  0  0  0  0  0
   23.0495    8.1043   -1.0991 C   0  0  2  0  0  0  0  0  0  0  0  0
   22.4112    9.2716   -0.5027 N   0  0  0  0  0  0  0  0  0  0  0  0
   22.4463    7.8251   -2.5393 C   0  0  0  0  0  0  0  0  0  0  0  0
   23.1403    6.5654   -3.1922 C   0  0  2  0  0  0  0  0  0  0  0  0
   22.5739    6.3211   -4.5462 N   0  0  0  0  0  0  0  0  0  0  0  0
   22.9460    5.3099   -2.2519 C   0  0  2  0  0  0  0  0  0  0  0  0
   23.5541    5.6270   -0.8284 C   0  0  2  0  0  0  0  0  0  0  0  0
   23.3715    4.4913    0.0230 O   0  0  0  0  0  0  0  0  0  0  0  0
   22.8374    6.8770   -0.1888 C   0  0  1  0  0  0  0  0  0  0  0  0
   23.4078    7.1743    1.1168 O   0  0  0  0  0  0  0  0  0  0  0  0
   23.1988    6.3923    2.2670 C   0  0  2  0  0  0  0  0  0  0  0  0
   23.3639    7.3315    3.5095 C   0  0  2  0  0  0  0  0  0  0  0  0
   22.4288    8.3599    3.4425 O   0  0  0  0  0  0  0  0  0  0  0  0
   24.8283    7.9064    3.5977 C   0  0  1  0  0  0  0  0  0  0  0  0
   24.9979    8.8039    4.7877 N   0  0  0  0  0  0  0  0  0  0  0  0
   25.8356    6.6906    3.6648 C   0  0  2  0  0  0  0  0  0  0  0  0
   27.1855    7.1512    3.7539 O   0  0  0  0  0  0  0  0  0  0  0  0
   25.6218    5.7947    2.3983 C   0  0  2  0  0  0  0  0  0  0  0  0
   24.2005    5.3123    2.3132 O   0  0  0  0  0  0  0  0  0  0  0  0
   26.5258    4.5962    2.4055 C   0  0  0  0  0  0  0  0  0  0  0  0
   26.3512    3.8038    1.2196 O   0  0  0  0  0  0  0  0  0  0  0  0
   23.9861    2.0524   -4.6690 O   0  0  0  0  0  0  0  0  0  0  0  0
   21.2141    1.5207   -5.1894 O   0  0  0  0  0  0  0  0  0  0  0  0
   23.4957   14.8139   -1.0469 N   0  0  0  0  0  0  0  0  0  0  0  0
   22.3012   10.5183   -1.1025 C   0  0  0  0  0  0  0  0  0  0  0  0
   22.7425   10.7828   -2.2155 O   0  0  0  0  0  0  0  0  0  0  0  0
   21.5742   11.5441   -0.2027 C   0  0  1  0  0  0  0  0  0  0  0  0
   22.4426   12.8071   -0.0329 C   0  0  0  0  0  0  0  0  0  0  0  0
   22.6262   13.6647   -1.2903 C   0  0  0  0  0  0  0  0  0  0  0  0
   20.2969   11.8715   -0.7949 O   0  0  0  0  0  0  0  0  0  0  0  0
  1  2  1  6  0  0  0
  1  3  1  0  0  0  0
  1  8  1  0  0  0  0
  3  4  1  0  0  0  0
  3 32  1  6  0  0  0
  4  5  1  0  0  0  0
  4 33  1  6  0  0  0
  5  6  1  6  0  0  0
  5  7  1  0  0  0  0
  7  8  1  0  0  0  0
  7  9  1  1  0  0  0
  9 10  1  0  0  0  0
 11 12  1  1  0  0  0
 11 13  1  0  0  0  0
 11 19  1  0  0  0  0
 12 35  1  0  0  0  0
 13 14  1  0  0  0  0
 14 15  1  6  0  0  0
 14 16  1  0  0  0  0
 16  2  1  6  0  0  0
 16 17  1  0  0  0  0
 17 18  1  1  0  0  0
 17 19  1  0  0  0  0
 19 20  1  1  0  0  0
 21 20  1  6  0  0  0
 21 22  1  0  0  0  0
 21 29  1  0  0  0  0
 22 23  1  6  0  0  0
 22 24  1  0  0  0  0
 24 25  1  1  0  0  0
 24 26  1  0  0  0  0
 26 27  1  6  0  0  0
 26 28  1  0  0  0  0
 28 29  1  0  0  0  0
 28 30  1  1  0  0  0
 30 31  1  0  0  0  0
 34 39  1  0  0  0  0
 35 36  2  0  0  0  0
 37 35  1  6  0  0  0
 37 38  1  0  0  0  0
 37 40  1  0  0  0  0
 38 39  1  0  0  0  0
M  END
>  <CHROM.1>
126.30159067,179.87767484,-52.73537333,-168.18560450,168.33665645,-153.62351247
-178.19808347,126.19162372,68.37517332,-178.16836098,23.01301449,6.42276044
-0.50313660,-1.87898148,-1.04775962,0.20188950

>  <Name>
2g5q_lig

>  <RI>
0

>  <Rbt.Current_Directory>
/home/itssahil/PROJECTS/Mol_Feturizer/New_Systems/rnas/2g5q

>  <Rbt.Executable>
rbdock ($Id: //depot/dev/client3/rdock/2013.1/src/exe/rbdock.cxx#4 $)

>  <Rbt.Library>
libRbt.so (2013.1, Build901 2013/11/27)

>  <Rbt.Parameter_File>
/export/apps/rDock/src/rDock_2013.1_src/data/scripts/dock_solv.prm

>  <Rbt.Receptor>
prm/blind_docking_40.prm

>  <SCORE>
6.35074

>  <SCORE.INTER>
-4.32394

>  <SCORE.INTER.CONST>
1

>  <SCORE.INTER.POLAR>
-1.21373

>  <SCORE.INTER.ROT>
10

>  <SCORE.INTER.SOLV>
30.6504

>  <SCORE.INTER.VDW>
-19.3203

>  <SCORE.INTER.norm>
-0.108098

>  <SCORE.INTRA>
-0.768229

>  <SCORE.INTRA.DIHEDRAL>
-8.60706

>  <SCORE.INTRA.DIHEDRAL.0>
22.5778

>  <SCORE.INTRA.POLAR>
0

>  <SCORE.INTRA.POLAR.0>
0

>  <SCORE.INTRA.REPUL>
0.00880767

>  <SCORE.INTRA.REPUL.0>
0

>  <SCORE.INTRA.SOLV>
2.93211

>  <SCORE.INTRA.SOLV.lig_0>
-102.332

>  <SCORE.INTRA.VDW>
2.02521

>  <SCORE.INTRA.VDW.0>
-5.08747

>  <SCORE.INTRA.norm>
-0.0192057

>  <SCORE.RESTR>
11.4429

>  <SCORE.RESTR.CAVITY>
11.4429

>  <SCORE.RESTR.norm>
0.286073

>  <SCORE.SYSTEM>
0

>  <SCORE.SYSTEM.CONST>
0

>  <SCORE.SYSTEM.DIHEDRAL>
0

>  <SCORE.SYSTEM.SOLV>
0

>  <SCORE.SYSTEM.norm>
0

>  <SCORE.heavy>
40

>  <SCORE.norm>
0.158768

>  <RMSD>
33.741

$$$$
2g5q_lig
 OpenBabel11021811433D
libRbt.so/2013.1/901 2013/11/27
 40 42  0  0  0  0  0  0  0  0999 V2000
   24.8883    5.8053    3.5859 C   0  0  2  0  0  0  0  0  0  0  0  0
   25.1912    7.1797    3.4916 O   0  0  0  0  0  0  0  0  0  0  0  0
   26.1042    4.9861    3.0615 C   0  0  1  0  0  0  0  0  0  0  0  0
   26.3306    5.1952    1.5322 C   0  0  2  0  0  0  0  0  0  0  0  0
   25.0416    4.7460    0.7963 C   0  0  2  0  0  0  0  0  0  0  0  0
   25.2193    4.9021   -0.6210 O   0  0  0  0  0  0  0  0  0  0  0  0
   23.8377    5.6289    1.3207 C   0  0  2  0  0  0  0  0  0  0  0  0
   23.6805    5.4549    2.7931 O   0  0  0  0  0  0  0  0  0  0  0  0
   22.5086    5.2608    0.6699 C   0  0  0  0  0  0  0  0  0  0  0  0
   22.3666    3.7825    0.4797 N   0  0  0  0  0  0  0  0  0  0  0  0
   21.7400    9.3496    1.9237 C   0  0  2  0  0  0  0  0  0  0  0  0
   20.6758   10.3367    1.7865 N   0  0  0  0  0  0  0  0  0  0  0  0
   21.5876    8.5654    3.2940 C   0  0  0  0  0  0  0  0  0  0  0  0
   22.7346    7.4899    3.4435 C   0  0  2  0  0  0  0  0  0  0  0  0
   22.5738    6.7542    4.7268 N   0  0  0  0  0  0  0  0  0  0  0  0
   24.1418    8.2049    3.3623 C   0  0  2  0  0  0  0  0  0  0  0  0
   24.2544    8.9773    1.9884 C   0  0  2  0  0  0  0  0  0  0  0  0
   25.5266    9.6290    1.9200 O   0  0  0  0  0  0  0  0  0  0  0  0
   23.1107   10.0553    1.8668 C   0  0  1  0  0  0  0  0  0  0  0  0
   23.2094   10.7567    0.5953 O   0  0  0  0  0  0  0  0  0  0  0  0
   23.8990   10.2643   -0.5273 C   0  0  2  0  0  0  0  0  0  0  0  0
   24.9391   11.3545   -0.9547 C   0  0  2  0  0  0  0  0  0  0  0  0
   25.8219   11.5914    0.0946 O   0  0  0  0  0  0  0  0  0  0  0  0
   24.2200   12.6847   -1.3973 C   0  0  1  0  0  0  0  0  0  0  0  0
   25.2081   13.7340   -1.8131 N   0  0  0  0  0  0  0  0  0  0  0  0
   23.2321   12.3441   -2.5828 C   0  0  2  0  0  0  0  0  0  0  0  0
   22.5532   13.5179   -3.0339 O   0  0  0  0  0  0  0  0  0  0  0  0
   22.2206   11.2540   -2.0921 C   0  0  2  0  0  0  0  0  0  0  0  0
   22.9422   10.0219   -1.6218 O   0  0  0  0  0  0  0  0  0  0  0  0
   21.2643   10.8535   -3.1779 C   0  0  0  0  0  0  0  0  0  0  0  0
   21.9639   10.4361   -4.3616 O   0  0  0  0  0  0  0  0  0  0  0  0
   27.2926    5.3798    3.8303 O   0  0  0  0  0  0  0  0  0  0  0  0
   27.4064    4.4396    1.1209 O   0  0  0  0  0  0  0  0  0  0  0  0
   19.6807   13.1121    4.9236 N   0  0  0  0  0  0  0  0  0  0  0  0
   19.3182   10.0716    1.8999 C   0  0  0  0  0  0  0  0  0  0  0  0
   18.8553    8.9587    2.1243 O   0  0  0  0  0  0  0  0  0  0  0  0
   18.4511   11.3351    1.6944 C   0  0  1  0  0  0  0  0  0  0  0  0
   18.9022   12.4487    2.6612 C   0  0  0  0  0  0  0  0  0  0  0  0
   19.2280   12.0000    4.0905 C   0  0  0  0  0  0  0  0  0  0  0  0
   18.5637   11.7679    0.3199 O   0  0  0  0  0  0  0  0  0  0  0  0
  1  2  1  6  0  0  0
  1  3  1  0  0  0  0
  1  8  1  0  0  0  0
  3  4  1  0  0  0  0
  3 32  1  1  0  0  0
  4  5  1  0  0  0  0
  4 33  1  6  0  0  0
  5  6  1  6  0  0  0
  5  7  1  0  0  0  0
  7  8  1  0  0  0  0
  7  9  1  6  0  0  0
  9 10  1  0  0  0  0
 11 12  1  1  0  0  0
 11 13  1  0  0  0  0
 11 19  1  0  0  0  0
 12 35  1  0  0  0  0
 13 14  1  0  0  0  0
 14 15  1  1  0  0  0
 14 16  1  0  0  0  0
 16  2  1  6  0  0  0
 16 17  1  0  0  0  0
 17 18  1  1  0  0  0
 17 19  1  0  0  0  0
 19 20  1  6  0  0  0
 21 20  1  1  0  0  0
 21 22  1  0  0  0  0
 21 29  1  0  0  0  0
 22 23  1  1  0  0  0
 22 24  1  0  0  0  0
 24 25  1  6  0  0  0
 24 26  1  0  0  0  0
 26 27  1  1  0  0  0
 26 28  1  0  0  0  0
 28 29  1  0  0  0  0
 28 30  1  6  0  0  0
 30 31  1  0  0  0  0
 34 39  1  0  0  0  0
 35 36  2  0  0  0  0
 37 35  1  6  0  0  0
 37 38  1  0  0  0  0
 37 40  1  0  0  0  0
 38 39  1  0  0  0  0
M  END
>  <CHROM.1>
154.15973654,38.81263304,-53.24059078,3.41586628,-99.45911325,-124.80179214
54.30404163,-54.55127922,-41.70325958,178.42662209,23.04240173,9.00904145
1.05209814,0.90532247,-0.65194067,2.33717928

>  <Name>
2g5q_lig

>  <RI>
224

>  <Rbt.Current_Directory>
/home/itssahil/PROJECTS/Mol_Feturizer/New_Systems/rnas/2g5q

>  <Rbt.Executable>
rbdock ($Id: //depot/dev/client3/rdock/2013.1/src/exe/rbdock.cxx#4 $)

>  <Rbt.Library>
libRbt.so (2013.1, Build901 2013/11/27)

>  <Rbt.Parameter_File>
/export/apps/rDock/src/rDock_2013.1_src/data/scripts/dock_solv.prm

>  <Rbt.Receptor>
prm/blind_docking_100.prm

>  <SCORE>
40.4625

>  <SCORE.INTER>
10.3972

>  <SCORE.INTER.CONST>
1

>  <SCORE.INTER.POLAR>
-0.333182

>  <SCORE.INTER.ROT>
10

>  <SCORE.INTER.SOLV>
41.791

>  <SCORE.INTER.VDW>
-16.1549

>  <SCORE.INTER.norm>
0.25993

>  <SCORE.INTRA>
13.4988

>  <SCORE.INTRA.DIHEDRAL>
3.34104

>  <SCORE.INTRA.DIHEDRAL.0>
22.5778

>  <SCORE.INTRA.POLAR>
0

>  <SCORE.INTRA.POLAR.0>
0

>  <SCORE.INTRA.REPUL>
0

>  <SCORE.INTRA.REPUL.0>
0

>  <SCORE.INTRA.SOLV>
3.95864

>  <SCORE.INTRA.SOLV.lig_0>
-102.332

>  <SCORE.INTRA.VDW>
9.84895

>  <SCORE.INTRA.VDW.0>
-5.08747

>  <SCORE.INTRA.norm>
0.33747

>  <SCORE.RESTR>
16.5666

>  <SCORE.RESTR.CAVITY>
16.5666

>  <SCORE.RESTR.norm>
0.414164

>  <SCORE.SYSTEM>
0

>  <SCORE.SYSTEM.CONST>
0

>  <SCORE.SYSTEM.DIHEDRAL>
0

>  <SCORE.SYSTEM.SOLV>
0

>  <SCORE.SYSTEM.norm>
0

>  <SCORE.heavy>
40

>  <SCORE.norm>
1.01156

>  <RMSD>
33.767

$$$$
2g5q_lig
 OpenBabel11021811433D
libRbt.so/2013.1/901 2013/11/27
 40 42  0  0  0  0  0  0  0  0999 V2000
   22.4526    4.5369   -4.0350 C   0  0  2  0  0  0  0  0  0  0  0  0
   22.9299    5.8021   -3.6337 O   0  0  0  0  0  0  0  0  0  0  0  0
   21.3801    4.7345   -5.1466 C   0  0  1  0  0  0  0  0  0  0  0  0
   20.1000    5.4398   -4.6013 C   0  0  2  0  0  0  0  0  0  0  0  0
   19.5193    4.5572   -3.4662 C   0  0  2  0  0  0  0  0  0  0  0  0
   18.3225    5.1632   -2.9518 O   0  0  0  0  0  0  0  0  0  0  0  0
   20.6181    4.4159   -2.3362 C   0  0  2  0  0  0  0  0  0  0  0  0
   21.8505    3.7925   -2.8977 O   0  0  0  0  0  0  0  0  0  0  0  0
   20.1561    3.5502   -1.1688 C   0  0  0  0  0  0  0  0  0  0  0  0
   20.8990    3.8650    0.0925 N   0  0  0  0  0  0  0  0  0  0  0  0
   23.7432    5.7372    0.6572 C   0  0  2  0  0  0  0  0  0  0  0  0
   24.4239    5.9021    1.9360 N   0  0  0  0  0  0  0  0  0  0  0  0
   24.5805    4.7800   -0.2906 C   0  0  0  0  0  0  0  0  0  0  0  0
   23.8429    4.5929   -1.6747 C   0  0  2  0  0  0  0  0  0  0  0  0
   24.6325    3.6846   -2.5497 N   0  0  0  0  0  0  0  0  0  0  0  0
   23.6294    6.0042   -2.3534 C   0  0  2  0  0  0  0  0  0  0  0  0
   22.7970    6.9292   -1.3797 C   0  0  2  0  0  0  0  0  0  0  0  0
   22.6104    8.2083   -1.9936 O   0  0  0  0  0  0  0  0  0  0  0  0
   23.5577    7.1151   -0.0115 C   0  0  1  0  0  0  0  0  0  0  0  0
   22.7831    7.9573    0.8879 O   0  0  0  0  0  0  0  0  0  0  0  0
   23.3359    8.7021    1.9452 C   0  0  2  0  0  0  0  0  0  0  0  0
   22.1786    9.5439    2.5818 C   0  0  2  0  0  0  0  0  0  0  0  0
   21.1873    8.6891    3.0537 O   0  0  0  0  0  0  0  0  0  0  0  0
   21.5881   10.5741    1.5461 C   0  0  1  0  0  0  0  0  0  0  0  0
   20.4816   11.3888    2.1480 N   0  0  0  0  0  0  0  0  0  0  0  0
   22.7631   11.5062    1.0482 C   0  0  2  0  0  0  0  0  0  0  0  0
   22.2854   12.4706    0.1080 O   0  0  0  0  0  0  0  0  0  0  0  0
   23.8827   10.6072    0.4230 C   0  0  2  0  0  0  0  0  0  0  0  0
   24.3815    9.5974    1.4187 O   0  0  0  0  0  0  0  0  0  0  0  0
   25.0526   11.4221   -0.0472 C   0  0  0  0  0  0  0  0  0  0  0  0
   26.2930   10.7327    0.1788 O   0  0  0  0  0  0  0  0  0  0  0  0
   21.9847    5.5079   -6.2395 O   0  0  0  0  0  0  0  0  0  0  0  0
   19.1831    5.5765   -5.6201 O   0  0  0  0  0  0  0  0  0  0  0  0
   26.9494    4.9070    2.6031 N   0  0  0  0  0  0  0  0  0  0  0  0
   23.8106    6.2539    3.1302 C   0  0  0  0  0  0  0  0  0  0  0  0
   22.6100    6.4760    3.2428 O   0  0  0  0  0  0  0  0  0  0  0  0
   24.8139    6.3518    4.3025 C   0  0  1  0  0  0  0  0  0  0  0  0
   25.4434    4.9708    4.5761 C   0  0  0  0  0  0  0  0  0  0  0  0
   25.9086    4.1927    3.3397 C   0  0  0  0  0  0  0  0  0  0  0  0
   25.8299    7.3266    3.9756 O   0  0  0  0  0  0  0  0  0  0  0  0
  1  2  1  1  0  0  0
  1  3  1  0  0  0  0
  1  8  1  0  0  0  0
  3  4  1  0  0  0  0
  3 32  1  6  0  0  0
  4  5  1  0  0  0  0
  4 33  1  6  0  0  0
  5  6  1  1  0  0  0
  5  7  1  0  0  0  0
  7  8  1  0  0  0  0
  7  9  1  1  0  0  0
  9 10  1  0  0  0  0
 11 12  1  1  0  0  0
 11 13  1  0  0  0  0
 11 19  1  0  0  0  0
 12 35  1  0  0  0  0
 13 14  1  0  0  0  0
 14 15  1  6  0  0  0
 14 16  1  0  0  0  0
 16  2  1  6  0  0  0
 16 17  1  0  0  0  0
 17 18  1  6  0  0  0
 17 19  1  0  0  0  0
 19 20  1  1  0  0  0
 21 20  1  6  0  0  0
 21 22  1  0  0  0  0
 21 29  1  0  0  0  0
 22 23  1  6  0  0  0
 22 24  1  0  0  0  0
 24 25  1  1  0  0  0
 24 26  1  0  0  0  0
 26 27  1  6  0  0  0
 26 28  1  0  0  0  0
 28 29  1  0  0  0  0
 28 30  1  1  0  0  0
 30 31  1  0  0  0  0
 34 39  1  0  0  0  0
 35 36  2  0  0  0  0
 37 35  1  6  0  0  0
 37 38  1  0  0  0  0
 37 40  1  0  0  0  0
 38 39  1  0  0  0  0
M  END
>  <CHROM.1>
161.13985105,-156.20822937,-156.15369917,5.63926014,84.45175641,175.71443666
143.44684404,-63.64235132,45.21527567,61.41410632,22.85894205,6.86709228
-0.25247895,-2.34926526,-0.98868091,0.34579307

>  <Name>
2g5q_lig

>  <RI>
224

>  <Rbt.Current_Directory>
/home/itssahil/PROJECTS/Mol_Feturizer/New_Systems/rnas/2g5q

>  <Rbt.Executable>
rbdock ($Id: //depot/dev/client3/rdock/2013.1/src/exe/rbdock.cxx#4 $)

>  <Rbt.Library>
libRbt.so (2013.1, Build901 2013/11/27)

>  <Rbt.Parameter_File>
/export/apps/rDock/src/rDock_2013.1_src/data/scripts/dock_solv.prm

>  <Rbt.Receptor>
prm/blind_docking_60.prm

>  <SCORE>
17.2171

>  <SCORE.INTER>
-10.5375

>  <SCORE.INTER.CONST>
1

>  <SCORE.INTER.POLAR>
-1.47344

>  <SCORE.INTER.ROT>
10

>  <SCORE.INTER.SOLV>
25.4744

>  <SCORE.INTER.VDW>
-20.8717

>  <SCORE.INTER.norm>
-0.263437

>  <SCORE.INTRA>
9.2241

>  <SCORE.INTRA.DIHEDRAL>
-3.99248

>  <SCORE.INTRA.DIHEDRAL.0>
22.5778

>  <SCORE.INTRA.POLAR>
0

>  <SCORE.INTRA.POLAR.0>
0

>  <SCORE.INTRA.REPUL>
0

>  <SCORE.INTRA.REPUL.0>
0

>  <SCORE.INTRA.SOLV>
10.483

>  <SCORE.INTRA.SOLV.lig_0>
-102.332

>  <SCORE.INTRA.VDW>
5.97883

>  <SCORE.INTRA.VDW.0>
-5.08747

>  <SCORE.INTRA.norm>
0.230603

>  <SCORE.RESTR>
18.5305

>  <SCORE.RESTR.CAVITY>
18.5305

>  <SCORE.RESTR.norm>
0.463262

>  <SCORE.SYSTEM>
0

>  <SCORE.SYSTEM.CONST>
0

>  <SCORE.SYSTEM.DIHEDRAL>
0

>  <SCORE.SYSTEM.SOLV>
0

>  <SCORE.SYSTEM.norm>
0

>  <SCORE.heavy>
40

>  <SCORE.norm>
0.430427

>  <RMSD>
33.768

$$$$
2g5q_lig
 OpenBabel11021811433D
libRbt.so/2013.1/901 2013/11/27
 40 42  0  0  0  0  0  0  0  0999 V2000
   23.4475    3.7593   -1.7616 C   0  0  2  0  0  0  0  0  0  0  0  0
   23.0240    4.8294   -2.5772 O   0  0  0  0  0  0  0  0  0  0  0  0
   23.7194    2.5186   -2.6625 C   0  0  1  0  0  0  0  0  0  0  0  0
   22.4102    1.9730   -3.3120 C   0  0  2  0  0  0  0  0  0  0  0  0
   21.4391    1.5845   -2.1670 C   0  0  2  0  0  0  0  0  0  0  0  0
   20.2262    1.0543   -2.7258 O   0  0  0  0  0  0  0  0  0  0  0  0
   21.1506    2.8772   -1.3011 C   0  0  2  0  0  0  0  0  0  0  0  0
   22.4248    3.4108   -0.7404 O   0  0  0  0  0  0  0  0  0  0  0  0
   20.2114    2.6059   -0.1306 C   0  0  0  0  0  0  0  0  0  0  0  0
   20.8752    1.8090    0.9492 N   0  0  0  0  0  0  0  0  0  0  0  0
   22.9826    9.1166   -1.7432 C   0  0  2  0  0  0  0  0  0  0  0  0
   22.5825   10.4175   -1.2205 N   0  0  0  0  0  0  0  0  0  0  0  0
   21.8232    8.5036   -2.6353 C   0  0  0  0  0  0  0  0  0  0  0  0
   22.2553    7.0972   -3.2095 C   0  0  2  0  0  0  0  0  0  0  0  0
   21.1643    6.5384   -4.0530 N   0  0  0  0  0  0  0  0  0  0  0  0
   22.6132    6.1269   -2.0143 C   0  0  2  0  0  0  0  0  0  0  0  0
   23.7662    6.7722   -1.1478 C   0  0  2  0  0  0  0  0  0  0  0  0
   24.0841    5.8949   -0.0627 O   0  0  0  0  0  0  0  0  0  0  0  0
   23.3087    8.1666   -0.5722 C   0  0  1  0  0  0  0  0  0  0  0  0
   24.3769    8.7642    0.2152 O   0  0  0  0  0  0  0  0  0  0  0  0
   24.1741    9.7279    1.2194 C   0  0  2  0  0  0  0  0  0  0  0  0
   24.8620    9.1991    2.5234 C   0  0  2  0  0  0  0  0  0  0  0  0
   26.2217    9.0164    2.2904 O   0  0  0  0  0  0  0  0  0  0  0  0
   24.1907    7.8625    3.0190 C   0  0  1  0  0  0  0  0  0  0  0  0
   24.8399    7.3503    4.2706 N   0  0  0  0  0  0  0  0  0  0  0  0
   22.6531    8.1383    3.2579 C   0  0  2  0  0  0  0  0  0  0  0  0
   21.9891    6.9593    3.7176 O   0  0  0  0  0  0  0  0  0  0  0  0
   22.0261    8.6607    1.9212 C   0  0  2  0  0  0  0  0  0  0  0  0
   22.7282    9.9020    1.4457 O   0  0  0  0  0  0  0  0  0  0  0  0
   20.5667    8.9760    2.0772 C   0  0  0  0  0  0  0  0  0  0  0  0
   19.7458    7.9313    1.5299 O   0  0  0  0  0  0  0  0  0  0  0  0
   24.6996    2.8988   -3.6886 O   0  0  0  0  0  0  0  0  0  0  0  0
   22.7065    0.8718   -4.0846 O   0  0  0  0  0  0  0  0  0  0  0  0
   23.1253   13.9999   -1.9795 N   0  0  0  0  0  0  0  0  0  0  0  0
   21.2864   10.7805   -0.8821 C   0  0  0  0  0  0  0  0  0  0  0  0
   20.3171   10.0380   -0.9940 O   0  0  0  0  0  0  0  0  0  0  0  0
   21.1971   12.2343   -0.3633 C   0  0  1  0  0  0  0  0  0  0  0  0
   22.5903   12.7232    0.0817 C   0  0  0  0  0  0  0  0  0  0  0  0
   23.5981   12.9810   -1.0445 C   0  0  0  0  0  0  0  0  0  0  0  0
   20.6636   13.0778   -1.4088 O   0  0  0  0  0  0  0  0  0  0  0  0
  1  2  1  6  0  0  0
  1  3  1  0  0  0  0
  1  8  1  0  0  0  0
  3  4  1  0  0  0  0
  3 32  1  6  0  0  0
  4  5  1  0  0  0  0
  4 33  1  1  0  0  0
  5  6  1  6  0  0  0
  5  7  1  0  0  0  0
  7  8  1  0  0  0  0
  7  9  1  1  0  0  0
  9 10  1  0  0  0  0
 11 12  1  1  0  0  0
 11 13  1  0  0  0  0
 11 19  1  0  0  0  0
 12 35  1  0  0  0  0
 13 14  1  0  0  0  0
 14 15  1  1  0  0  0
 14 16  1  0  0  0  0
 16  2  1  6  0  0  0
 16 17  1  0  0  0  0
 17 18  1  1  0  0  0
 17 19  1  0  0  0  0
 19 20  1  6  0  0  0
 21 20  1  6  0  0  0
 21 22  1  0  0  0  0
 21 29  1  0  0  0  0
 22 23  1  6  0  0  0
 22 24  1  0  0  0  0
 24 25  1  1  0  0  0
 24 26  1  0  0  0  0
 26 27  1  6  0  0  0
 26 28  1  0  0  0  0
 28 29  1  0  0  0  0
 28 30  1  1  0  0  0
 30 31  1  0  0  0  0
 34 39  1  0  0  0  0
 35 36  2  0  0  0  0
 37 35  1  6  0  0  0
 37 38  1  0  0  0  0
 37 40  1  0  0  0  0
 38 39  1  0  0  0  0
M  END
>  <CHROM.1>
176.44278406,71.85950927,32.81490432,177.97196223,83.69478953,126.16350279
-101.78171246,-18.95024678,70.99185339,59.87954204,22.54676730,7.15174102
-0.49923275,-1.82051266,-1.33222694,0.04881066

>  <Name>
2g5q_lig

>  <RI>
0

>  <Rbt.Current_Directory>
/home/itssahil/PROJECTS/Mol_Feturizer/New_Systems/rnas/2g5q

>  <Rbt.Executable>
rbdock ($Id: //depot/dev/client3/rdock/2013.1/src/exe/rbdock.cxx#4 $)

>  <Rbt.Library>
libRbt.so (2013.1, Build901 2013/11/27)

>  <Rbt.Parameter_File>
/export/apps/rDock/src/rDock_2013.1_src/data/scripts/dock_solv.prm

>  <Rbt.Receptor>
prm/blind_docking_40.prm

>  <SCORE>
17.0799

>  <SCORE.INTER>
4.15587

>  <SCORE.INTER.CONST>
1

>  <SCORE.INTER.POLAR>
-0.938634

>  <SCORE.INTER.ROT>
10

>  <SCORE.INTER.SOLV>
24.4303

>  <SCORE.INTER.VDW>
-12.5107

>  <SCORE.INTER.norm>
0.103897

>  <SCORE.INTRA>
2.82326

>  <SCORE.INTRA.DIHEDRAL>
-5.38826

>  <SCORE.INTRA.DIHEDRAL.0>
22.5778

>  <SCORE.INTRA.POLAR>
0

>  <SCORE.INTRA.POLAR.0>
0

>  <SCORE.INTRA.REPUL>
0

>  <SCORE.INTRA.REPUL.0>
0

>  <SCORE.INTRA.SOLV>
4.75597

>  <SCORE.INTRA.SOLV.lig_0>
-102.332

>  <SCORE.INTRA.VDW>
3.13941

>  <SCORE.INTRA.VDW.0>
-5.08747

>  <SCORE.INTRA.norm>
0.0705816

>  <SCORE.RESTR>
10.1007

>  <SCORE.RESTR.CAVITY>
10.1007

>  <SCORE.RESTR.norm>
0.252518

>  <SCORE.SYSTEM>
0

>  <SCORE.SYSTEM.CONST>
0

>  <SCORE.SYSTEM.DIHEDRAL>
0

>  <SCORE.SYSTEM.SOLV>
0

>  <SCORE.SYSTEM.norm>
0

>  <SCORE.heavy>
40

>  <SCORE.norm>
0.426997

>  <RMSD>
33.769

$$$$
2g5q_lig
 OpenBabel11021811433D
libRbt.so/2013.1/901 2013/11/27
 40 42  0  0  0  0  0  0  0  0999 V2000
   23.6266    3.3682   -1.9473 C   0  0  2  0  0  0  0  0  0  0  0  0
   23.4750    4.6106   -2.5976 O   0  0  0  0  0  0  0  0  0  0  0  0
   23.6585    2.2404   -3.0206 C   0  0  1  0  0  0  0  0  0  0  0  0
   22.2880    2.0935   -3.7512 C   0  0  2  0  0  0  0  0  0  0  0  0
   21.2133    1.7668   -2.6819 C   0  0  2  0  0  0  0  0  0  0  0  0
   19.9367    1.6007   -3.3199 O   0  0  0  0  0  0  0  0  0  0  0  0
   21.1778    2.9533   -1.6355 C   0  0  2  0  0  0  0  0  0  0  0  0
   22.5150    3.1091   -0.9948 O   0  0  0  0  0  0  0  0  0  0  0  0
   20.1586    2.7292   -0.5235 C   0  0  0  0  0  0  0  0  0  0  0  0
   20.6284    1.7153    0.4731 N   0  0  0  0  0  0  0  0  0  0  0  0
   23.2658    8.5854   -0.7991 C   0  0  2  0  0  0  0  0  0  0  0  0
   22.7436    9.7779   -0.1425 N   0  0  0  0  0  0  0  0  0  0  0  0
   22.4903    8.3230   -2.1576 C   0  0  0  0  0  0  0  0  0  0  0  0
   23.0577    7.0359   -2.8758 C   0  0  2  0  0  0  0  0  0  0  0  0
   22.3300    6.8074   -4.1534 N   0  0  0  0  0  0  0  0  0  0  0  0
   22.9281    5.7922   -1.9092 C   0  0  2  0  0  0  0  0  0  0  0  0
   23.7080    6.0922   -0.5680 C   0  0  2  0  0  0  0  0  0  0  0  0
   23.5839    4.9675    0.3080 O   0  0  0  0  0  0  0  0  0  0  0  0
   23.1160    7.3704    0.1397 C   0  0  1  0  0  0  0  0  0  0  0  0
   23.8441    7.6516    1.3682 O   0  0  0  0  0  0  0  0  0  0  0  0
   23.6008    7.0091    2.5955 C   0  0  2  0  0  0  0  0  0  0  0  0
   24.3514    7.8191    3.7063 C   0  0  2  0  0  0  0  0  0  0  0  0
   23.8699    9.1244    3.7353 O   0  0  0  0  0  0  0  0  0  0  0  0
   25.9093    7.7984    3.4712 C   0  0  1  0  0  0  0  0  0  0  0  0
   26.6377    8.5681    4.5329 N   0  0  0  0  0  0  0  0  0  0  0  0
   26.3871    6.2923    3.4435 C   0  0  2  0  0  0  0  0  0  0  0  0
   27.7991    6.2091    3.2398 O   0  0  0  0  0  0  0  0  0  0  0  0
   25.6034    5.5407    2.3149 C   0  0  2  0  0  0  0  0  0  0  0  0
   24.1195    5.6308    2.5376 O   0  0  0  0  0  0  0  0  0  0  0  0
   25.9818    4.0896    2.2467 C   0  0  0  0  0  0  0  0  0  0  0  0
   25.8937    3.4661    3.5384 O   0  0  0  0  0  0  0  0  0  0  0  0
   24.7357    2.5400   -3.9735 O   0  0  0  0  0  0  0  0  0  0  0  0
   22.3689    1.0767   -4.6769 O   0  0  0  0  0  0  0  0  0  0  0  0
   22.7519   13.8194   -1.9827 N   0  0  0  0  0  0  0  0  0  0  0  0
   23.4322   10.5486    0.7838 C   0  0  0  0  0  0  0  0  0  0  0  0
   24.5717   10.3040    1.1647 O   0  0  0  0  0  0  0  0  0  0  0  0
   22.5949   11.7429    1.2967 C   0  0  1  0  0  0  0  0  0  0  0  0
   22.1560   12.6279    0.1125 C   0  0  0  0  0  0  0  0  0  0  0  0
   23.2707   13.0585   -0.8479 C   0  0  0  0  0  0  0  0  0  0  0  0
   21.4479   11.2412    2.0191 O   0  0  0  0  0  0  0  0  0  0  0  0
  1  2  1  6  0  0  0
  1  3  1  0  0  0  0
  1  8  1  0  0  0  0
  3  4  1  0  0  0  0
  3 32  1  6  0  0  0
  4  5  1  0  0  0  0
  4 33  1  6  0  0  0
  5  6  1  6  0  0  0
  5  7  1  0  0  0  0
  7  8  1  0  0  0  0
  7  9  1  1  0  0  0
  9 10  1  0  0  0  0
 11 12  1  1  0  0  0
 11 13  1  0  0  0  0
 11 19  1  0  0  0  0
 12 35  1  0  0  0  0
 13 14  1  0  0  0  0
 14 15  1  6  0  0  0
 14 16  1  0  0  0  0
 16  2  1  6  0  0  0
 16 17  1  0  0  0  0
 17 18  1  1  0  0  0
 17 19  1  0  0  0  0
 19 20  1  1  0  0  0
 21 20  1  6  0  0  0
 21 22  1  0  0  0  0
 21 29  1  0  0  0  0
 22 23  1  6  0  0  0
 22 24  1  0  0  0  0
 24 25  1  1  0  0  0
 24 26  1  0  0  0  0
 26 27  1  6  0  0  0
 26 28  1  0  0  0  0
 28 29  1  0  0  0  0
 28 30  1  1  0  0  0
 30 31  1  0  0  0  0
 34 39  1  0  0  0  0
 35 36  2  0  0  0  0
 37 35  1  6  0  0  0
 37 38  1  0  0  0  0
 37 40  1  0  0  0  0
 38 39  1  0  0  0  0
M  END
>  <CHROM.1>
157.23512552,75.09500287,-157.21766086,173.50192788,158.63592545,-167.26278074
51.10592210,-57.55152164,-50.87456470,176.31728768,23.44032354,6.38734466
-0.02841770,-1.93490263,-1.02842443,0.17256401

>  <Name>
2g5q_lig

>  <RI>
0

>  <Rbt.Current_Directory>
/home/itssahil/PROJECTS/Mol_Feturizer/New_Systems/rnas/2g5q

>  <Rbt.Executable>
rbdock ($Id: //depot/dev/client3/rdock/2013.1/src/exe/rbdock.cxx#4 $)

>  <Rbt.Library>
libRbt.so (2013.1, Build901 2013/11/27)

>  <Rbt.Parameter_File>
/export/apps/rDock/src/rDock_2013.1_src/data/scripts/dock_solv.prm

>  <Rbt.Receptor>
prm/blind_docking_40.prm

>  <SCORE>
-2.5351

>  <SCORE.INTER>
-8.06259

>  <SCORE.INTER.CONST>
1

>  <SCORE.INTER.POLAR>
-0.692201

>  <SCORE.INTER.ROT>
10

>  <SCORE.INTER.SOLV>
24.9473

>  <SCORE.INTER.VDW>
-21.6501

>  <SCORE.INTER.norm>
-0.201565

>  <SCORE.INTRA>
-4.88093

>  <SCORE.INTRA.DIHEDRAL>
-14.7006

>  <SCORE.INTRA.DIHEDRAL.0>
22.5778

>  <SCORE.INTRA.POLAR>
0

>  <SCORE.INTRA.POLAR.0>
0

>  <SCORE.INTRA.REPUL>
0

>  <SCORE.INTRA.REPUL.0>
0

>  <SCORE.INTRA.SOLV>
1.92237

>  <SCORE.INTRA.SOLV.lig_0>
-102.332

>  <SCORE.INTRA.VDW>
1.50819

>  <SCORE.INTRA.VDW.0>
-5.08747

>  <SCORE.INTRA.norm>
-0.122023

>  <SCORE.RESTR>
10.4084

>  <SCORE.RESTR.CAVITY>
10.4084

>  <SCORE.RESTR.norm>
0.260211

>  <SCORE.SYSTEM>
0

>  <SCORE.SYSTEM.CONST>
0

>  <SCORE.SYSTEM.DIHEDRAL>
0

>  <SCORE.SYSTEM.SOLV>
0

>  <SCORE.SYSTEM.norm>
0

>  <SCORE.heavy>
40

>  <SCORE.norm>
-0.0633774

>  <RMSD>
33.771

$$$$
2g5q_lig
 OpenBabel11021811433D
libRbt.so/2013.1/901 2013/11/27
 40 42  0  0  0  0  0  0  0  0999 V2000
   24.7147    5.7715    3.6046 C   0  0  2  0  0  0  0  0  0  0  0  0
   25.1466    7.1132    3.5515 O   0  0  0  0  0  0  0  0  0  0  0  0
   25.8745    4.8512    3.1222 C   0  0  1  0  0  0  0  0  0  0  0  0
   26.1935    5.0616    1.6097 C   0  0  2  0  0  0  0  0  0  0  0  0
   24.9062    4.7447    0.8051 C   0  0  2  0  0  0  0  0  0  0  0  0
   25.1663    4.9050   -0.5988 O   0  0  0  0  0  0  0  0  0  0  0  0
   23.7641    5.7272    1.2893 C   0  0  2  0  0  0  0  0  0  0  0  0
   23.5200    5.5462    2.7490 O   0  0  0  0  0  0  0  0  0  0  0  0
   22.4402    5.4935    0.5695 C   0  0  0  0  0  0  0  0  0  0  0  0
   21.3809    6.4528    1.0162 N   0  0  0  0  0  0  0  0  0  0  0  0
   22.0240    9.6555    1.8593 C   0  0  2  0  0  0  0  0  0  0  0  0
   21.0624   10.7396    1.6992 N   0  0  0  0  0  0  0  0  0  0  0  0
   21.7013    8.8251    3.1716 C   0  0  0  0  0  0  0  0  0  0  0  0
   22.7366    7.6450    3.3450 C   0  0  2  0  0  0  0  0  0  0  0  0
   22.4164    6.8677    4.5727 N   0  0  0  0  0  0  0  0  0  0  0  0
   24.2023    8.2336    3.4025 C   0  0  2  0  0  0  0  0  0  0  0  0
   24.4848    9.0559    2.0831 C   0  0  2  0  0  0  0  0  0  0  0  0
   25.8100    9.5930    2.1401 O   0  0  0  0  0  0  0  0  0  0  0  0
   23.4509   10.2369    1.9376 C   0  0  1  0  0  0  0  0  0  0  0  0
   23.7056   10.9851    0.7155 O   0  0  0  0  0  0  0  0  0  0  0  0
   24.3486   10.4535   -0.4169 C   0  0  2  0  0  0  0  0  0  0  0  0
   24.5483   11.6254   -1.4367 C   0  0  2  0  0  0  0  0  0  0  0  0
   25.3285   12.6201   -0.8549 O   0  0  0  0  0  0  0  0  0  0  0  0
   23.1637   12.2041   -1.9169 C   0  0  1  0  0  0  0  0  0  0  0  0
   23.3444   13.3246   -2.8978 N   0  0  0  0  0  0  0  0  0  0  0  0
   22.3293   11.0259   -2.5595 C   0  0  2  0  0  0  0  0  0  0  0  0
   21.0606   11.4930   -3.0224 O   0  0  0  0  0  0  0  0  0  0  0  0
   22.1639    9.8916   -1.4924 C   0  0  2  0  0  0  0  0  0  0  0  0
   23.5025    9.4040   -1.0125 O   0  0  0  0  0  0  0  0  0  0  0  0
   21.4048    8.7183   -2.0409 C   0  0  0  0  0  0  0  0  0  0  0  0
   21.0443    7.7969   -0.9989 O   0  0  0  0  0  0  0  0  0  0  0  0
   27.0550    5.1217    3.9537 O   0  0  0  0  0  0  0  0  0  0  0  0
   27.2142    4.2160    1.2349 O   0  0  0  0  0  0  0  0  0  0  0  0
   21.9911   13.8425    0.2024 N   0  0  0  0  0  0  0  0  0  0  0  0
   19.7623   10.7352    2.1851 C   0  0  0  0  0  0  0  0  0  0  0  0
   19.2678    9.8010    2.8063 O   0  0  0  0  0  0  0  0  0  0  0  0
   18.9991   12.0349    1.8404 C   0  0  1  0  0  0  0  0  0  0  0  0
   19.9980   13.1649    1.5188 C   0  0  0  0  0  0  0  0  0  0  0  0
   20.7973   12.9996    0.2210 C   0  0  0  0  0  0  0  0  0  0  0  0
   18.1228   11.7856    0.7182 O   0  0  0  0  0  0  0  0  0  0  0  0
  1  2  1  6  0  0  0
  1  3  1  0  0  0  0
  1  8  1  0  0  0  0
  3  4  1  0  0  0  0
  3 32  1  1  0  0  0
  4  5  1  0  0  0  0
  4 33  1  6  0  0  0
  5  6  1  6  0  0  0
  5  7  1  0  0  0  0
  7  8  1  0  0  0  0
  7  9  1  6  0  0  0
  9 10  1  0  0  0  0
 11 12  1  1  0  0  0
 11 13  1  0  0  0  0
 11 19  1  0  0  0  0
 12 35  1  0  0  0  0
 13 14  1  0  0  0  0
 14 15  1  1  0  0  0
 14 16  1  0  0  0  0
 16  2  1  6  0  0  0
 16 17  1  0  0  0  0
 17 18  1  1  0  0  0
 17 19  1  0  0  0  0
 19 20  1  6  0  0  0
 21 20  1  1  0  0  0
 21 22  1  0  0  0  0
 21 29  1  0  0  0  0
 22 23  1  1  0  0  0
 22 24  1  0  0  0  0
 24 25  1  6  0  0  0
 24 26  1  0  0  0  0
 26 27  1  1  0  0  0
 26 28  1  0  0  0  0
 28 29  1  0  0  0  0
 28 30  1  6  0  0  0
 30 31  1  0  0  0  0
 34 39  1  0  0  0  0
 35 36  2  0  0  0  0
 37 35  1  6  0  0  0
 37 38  1  0  0  0  0
 37 40  1  0  0  0  0
 38 39  1  0  0  0  0
M  END
>  <CHROM.1>
154.60051984,-178.62527294,-27.21195190,0.82421635,-94.64821674,-174.25708892
-169.34018644,-20.58130755,68.61201340,-161.43516345,23.02183412,8.97506057
0.95561155,0.95569764,-0.58560535,2.37001210

>  <Name>
2g5q_lig

>  <RI>
224

>  <Rbt.Current_Directory>
/home/itssahil/PROJECTS/Mol_Feturizer/New_Systems/rnas/2g5q

>  <Rbt.Executable>
rbdock ($Id: //depot/dev/client3/rdock/2013.1/src/exe/rbdock.cxx#4 $)

>  <Rbt.Library>
libRbt.so (2013.1, Build901 2013/11/27)

>  <Rbt.Parameter_File>
/export/apps/rDock/src/rDock_2013.1_src/data/scripts/dock_solv.prm

>  <Rbt.Receptor>
prm/blind_docking_100.prm

>  <SCORE>
38.3109

>  <SCORE.INTER>
3.11396

>  <SCORE.INTER.CONST>
1

>  <SCORE.INTER.POLAR>
-0.270934

>  <SCORE.INTER.ROT>
10

>  <SCORE.INTER.SOLV>
28.4341

>  <SCORE.INTER.VDW>
-16.7656

>  <SCORE.INTER.norm>
0.0778491

>  <SCORE.INTRA>
18.0348

>  <SCORE.INTRA.DIHEDRAL>
-3.4006

>  <SCORE.INTRA.DIHEDRAL.0>
22.5778

>  <SCORE.INTRA.POLAR>
0

>  <SCORE.INTRA.POLAR.0>
0

>  <SCORE.INTRA.REPUL>
0

>  <SCORE.INTRA.REPUL.0>
0

>  <SCORE.INTRA.SOLV>
15.6603

>  <SCORE.INTRA.SOLV.lig_0>
-102.332

>  <SCORE.INTRA.VDW>
11.9049

>  <SCORE.INTRA.VDW.0>
-5.08747

>  <SCORE.INTRA.norm>
0.45087

>  <SCORE.RESTR>
17.1621

>  <SCORE.RESTR.CAVITY>
17.1621

>  <SCORE.RESTR.norm>
0.429053

>  <SCORE.SYSTEM>
0

>  <SCORE.SYSTEM.CONST>
0

>  <SCORE.SYSTEM.DIHEDRAL>
0

>  <SCORE.SYSTEM.SOLV>
0

>  <SCORE.SYSTEM.norm>
0

>  <SCORE.heavy>
40

>  <SCORE.norm>
0.957772

>  <RMSD>
33.778

$$$$
2g5q_lig
 OpenBabel11021811433D
libRbt.so/2013.1/901 2013/11/27
 40 42  0  0  0  0  0  0  0  0999 V2000
   22.0994    3.0461   -1.6459 C   0  0  2  0  0  0  0  0  0  0  0  0
   21.3985    4.0745   -2.3097 O   0  0  0  0  0  0  0  0  0  0  0  0
   23.5915    3.0882   -2.0894 C   0  0  1  0  0  0  0  0  0  0  0  0
   23.7615    2.7184   -3.5953 C   0  0  2  0  0  0  0  0  0  0  0  0
   23.1961    1.2888   -3.7993 C   0  0  2  0  0  0  0  0  0  0  0  0
   23.3558    0.9014   -5.1737 O   0  0  0  0  0  0  0  0  0  0  0  0
   21.6696    1.2949   -3.3822 C   0  0  2  0  0  0  0  0  0  0  0  0
   21.5318    1.7075   -1.9561 O   0  0  0  0  0  0  0  0  0  0  0  0
   21.0118   -0.0729   -3.5305 C   0  0  0  0  0  0  0  0  0  0  0  0
   21.0666   -0.5726   -4.9409 N   0  0  0  0  0  0  0  0  0  0  0  0
   23.4865    7.7740   -1.2944 C   0  0  2  0  0  0  0  0  0  0  0  0
   23.7452    9.1818   -1.0170 N   0  0  0  0  0  0  0  0  0  0  0  0
   22.9178    7.6000   -2.7648 C   0  0  0  0  0  0  0  0  0  0  0  0
   22.6430    6.0754   -3.0721 C   0  0  2  0  0  0  0  0  0  0  0  0
   22.1208    5.9248   -4.4573 N   0  0  0  0  0  0  0  0  0  0  0  0
   21.6270    5.4978   -2.0080 C   0  0  2  0  0  0  0  0  0  0  0  0
   22.2251    5.6926   -0.5585 C   0  0  2  0  0  0  0  0  0  0  0  0
   21.3008    5.1748    0.4035 O   0  0  0  0  0  0  0  0  0  0  0  0
   22.4771    7.2212   -0.2670 C   0  0  1  0  0  0  0  0  0  0  0  0
   23.0394    7.3967    1.0639 O   0  0  0  0  0  0  0  0  0  0  0  0
   22.6777    6.6249    2.1826 C   0  0  2  0  0  0  0  0  0  0  0  0
   22.9926    7.4740    3.4605 C   0  0  2  0  0  0  0  0  0  0  0  0
   22.2590    8.6559    3.4257 O   0  0  0  0  0  0  0  0  0  0  0  0
   24.5353    7.7717    3.5800 C   0  0  1  0  0  0  0  0  0  0  0  0
   24.8478    8.5810    4.8038 N   0  0  0  0  0  0  0  0  0  0  0  0
   25.3062    6.3925    3.6083 C   0  0  2  0  0  0  0  0  0  0  0  0
   26.7156    6.5985    3.7236 O   0  0  0  0  0  0  0  0  0  0  0  0
   24.9515    5.5956    2.3076 C   0  0  2  0  0  0  0  0  0  0  0  0
   23.4679    5.3809    2.1950 O   0  0  0  0  0  0  0  0  0  0  0  0
   25.6248    4.2542    2.2761 C   0  0  0  0  0  0  0  0  0  0  0  0
   27.0301    4.3821    2.0047 O   0  0  0  0  0  0  0  0  0  0  0  0
   24.1180    4.4314   -1.8124 O   0  0  0  0  0  0  0  0  0  0  0  0
   25.0974    2.7584   -3.9289 O   0  0  0  0  0  0  0  0  0  0  0  0
   20.5106   11.9945   -1.0257 N   0  0  0  0  0  0  0  0  0  0  0  0
   22.9627   10.2412   -1.4547 C   0  0  0  0  0  0  0  0  0  0  0  0
   21.9550   10.1093   -2.1406 O   0  0  0  0  0  0  0  0  0  0  0  0
   23.5133   11.6109   -0.9950 C   0  0  1  0  0  0  0  0  0  0  0  0
   22.7708   12.7501   -1.7224 C   0  0  0  0  0  0  0  0  0  0  0  0
   21.4098   13.1414   -1.1350 C   0  0  0  0  0  0  0  0  0  0  0  0
   23.3591   11.7262    0.4376 O   0  0  0  0  0  0  0  0  0  0  0  0
  1  2  1  6  0  0  0
  1  3  1  0  0  0  0
  1  8  1  0  0  0  0
  3  4  1  0  0  0  0
  3 32  1  6  0  0  0
  4  5  1  0  0  0  0
  4 33  1  1  0  0  0
  5  6  1  6  0  0  0
  5  7  1  0  0  0  0
  7  8  1  0  0  0  0
  7  9  1  1  0  0  0
  9 10  1  0  0  0  0
 11 12  1  1  0  0  0
 11 13  1  0  0  0  0
 11 19  1  0  0  0  0
 12 35  1  0  0  0  0
 13 14  1  0  0  0  0
 14 15  1  6  0  0  0
 14 16  1  0  0  0  0
 16  2  1  6  0  0  0
 16 17  1  0  0  0  0
 17 18  1  1  0  0  0
 17 19  1  0  0  0  0
 19 20  1  1  0  0  0
 21 20  1  6  0  0  0
 21 22  1  0  0  0  0
 21 29  1  0  0  0  0
 22 23  1  6  0  0  0
 22 24  1  0  0  0  0
 24 25  1  1  0  0  0
 24 26  1  0  0  0  0
 26 27  1  6  0  0  0
 26 28  1  0  0  0  0
 28 29  1  0  0  0  0
 28 30  1  1  0  0  0
 30 31  1  0  0  0  0
 34 39  1  0  0  0  0
 35 36  2  0  0  0  0
 37 35  1  6  0  0  0
 37 38  1  0  0  0  0
 37 40  1  0  0  0  0
 38 39  1  0  0  0  0
M  END
>  <CHROM.1>
-68.98338739,-59.78895373,37.20081689,96.89899451,-156.18279003,-155.95600453
-73.58949929,169.32507443,81.48050065,-54.75359737,23.12271996,6.11598898
-0.65174313,-1.75802842,-1.12722239,0.33338520

>  <Name>
2g5q_lig

>  <RI>
0

>  <Rbt.Current_Directory>
/home/itssahil/PROJECTS/Mol_Feturizer/New_Systems/rnas/2g5q

>  <Rbt.Executable>
rbdock ($Id: //depot/dev/client3/rdock/2013.1/src/exe/rbdock.cxx#4 $)

>  <Rbt.Library>
libRbt.so (2013.1, Build901 2013/11/27)

>  <Rbt.Parameter_File>
/export/apps/rDock/src/rDock_2013.1_src/data/scripts/dock_solv.prm

>  <Rbt.Receptor>
prm/blind_docking_40.prm

>  <SCORE>
15.9754

>  <SCORE.INTER>
-1.76468

>  <SCORE.INTER.CONST>
1

>  <SCORE.INTER.POLAR>
-0.899293

>  <SCORE.INTER.ROT>
10

>  <SCORE.INTER.SOLV>
23.2681

>  <SCORE.INTER.VDW>
-16.2015

>  <SCORE.INTER.norm>
-0.0441169

>  <SCORE.INTRA>
5.72755

>  <SCORE.INTRA.DIHEDRAL>
-8.86221

>  <SCORE.INTRA.DIHEDRAL.0>
22.5778

>  <SCORE.INTRA.POLAR>
0

>  <SCORE.INTRA.POLAR.0>
0

>  <SCORE.INTRA.REPUL>
0

>  <SCORE.INTRA.REPUL.0>
0

>  <SCORE.INTRA.SOLV>
6.73222

>  <SCORE.INTRA.SOLV.lig_0>
-102.332

>  <SCORE.INTRA.VDW>
6.79255

>  <SCORE.INTRA.VDW.0>
-5.08747

>  <SCORE.INTRA.norm>
0.143189

>  <SCORE.RESTR>
12.0126

>  <SCORE.RESTR.CAVITY>
12.0126

>  <SCORE.RESTR.norm>
0.300314

>  <SCORE.SYSTEM>
0

>  <SCORE.SYSTEM.CONST>
0

>  <SCORE.SYSTEM.DIHEDRAL>
0

>  <SCORE.SYSTEM.SOLV>
0

>  <SCORE.SYSTEM.norm>
0

>  <SCORE.heavy>
40

>  <SCORE.norm>
0.399386

>  <RMSD>
33.778

$$$$
2g5q_lig
 OpenBabel11021811433D
libRbt.so/2013.1/901 2013/11/27
 40 42  0  0  0  0  0  0  0  0999 V2000
   23.1329    2.8316   -3.6929 C   0  0  2  0  0  0  0  0  0  0  0  0
   23.6782    4.1310   -3.6329 O   0  0  0  0  0  0  0  0  0  0  0  0
   22.0152    2.8059   -4.7769 C   0  0  1  0  0  0  0  0  0  0  0  0
   20.7920    3.6855   -4.3724 C   0  0  2  0  0  0  0  0  0  0  0  0
   20.2344    3.1355   -3.0339 C   0  0  2  0  0  0  0  0  0  0  0  0
   19.0889    3.9073   -2.6381 O   0  0  0  0  0  0  0  0  0  0  0  0
   21.3815    3.2189   -1.9470 C   0  0  2  0  0  0  0  0  0  0  0  0
   22.5595    2.4171   -2.3854 O   0  0  0  0  0  0  0  0  0  0  0  0
   20.9446    2.6874   -0.5860 C   0  0  0  0  0  0  0  0  0  0  0  0
   21.9767    2.9327    0.4706 N   0  0  0  0  0  0  0  0  0  0  0  0
   23.5693    7.7601   -1.2049 C   0  0  2  0  0  0  0  0  0  0  0  0
   23.1201    8.7771   -0.2616 N   0  0  0  0  0  0  0  0  0  0  0  0
   22.5168    7.5991   -2.3805 C   0  0  0  0  0  0  0  0  0  0  0  0
   23.0031    6.5032   -3.4087 C   0  0  2  0  0  0  0  0  0  0  0  0
   22.0132    6.3699   -4.5116 N   0  0  0  0  0  0  0  0  0  0  0  0
   23.2137    5.1299   -2.6553 C   0  0  2  0  0  0  0  0  0  0  0  0
   24.2631    5.3308   -1.4911 C   0  0  2  0  0  0  0  0  0  0  0  0
   24.4475    4.0877   -0.8065 O   0  0  0  0  0  0  0  0  0  0  0  0
   23.7514    6.4164   -0.4691 C   0  0  1  0  0  0  0  0  0  0  0  0
   24.7253    6.6083    0.5953 O   0  0  0  0  0  0  0  0  0  0  0  0
   24.8465    5.7678    1.7165 C   0  0  2  0  0  0  0  0  0  0  0  0
   23.5110    5.8722    2.5280 C   0  0  2  0  0  0  0  0  0  0  0  0
   22.4476    5.4667    1.7273 O   0  0  0  0  0  0  0  0  0  0  0  0
   23.2850    7.3357    3.0662 C   0  0  1  0  0  0  0  0  0  0  0  0
   22.0100    7.4448    3.8491 N   0  0  0  0  0  0  0  0  0  0  0  0
   24.5266    7.7334    3.9592 C   0  0  2  0  0  0  0  0  0  0  0  0
   24.3751    9.0538    4.4841 O   0  0  0  0  0  0  0  0  0  0  0  0
   25.8249    7.6105    3.0921 C   0  0  2  0  0  0  0  0  0  0  0  0
   25.9784    6.2184    2.5459 O   0  0  0  0  0  0  0  0  0  0  0  0
   27.0562    7.9438    3.8837 C   0  0  0  0  0  0  0  0  0  0  0  0
   27.2516    7.0132    4.9610 O   0  0  0  0  0  0  0  0  0  0  0  0
   22.5945    3.2591   -6.0485 O   0  0  0  0  0  0  0  0  0  0  0  0
   19.8317    3.6156   -5.3574 O   0  0  0  0  0  0  0  0  0  0  0  0
   23.2633   13.0280   -1.3725 N   0  0  0  0  0  0  0  0  0  0  0  0
   23.9353    9.4535    0.6351 C   0  0  0  0  0  0  0  0  0  0  0  0
   25.1418    9.2626    0.7406 O   0  0  0  0  0  0  0  0  0  0  0  0
   23.1487   10.4648    1.5006 C   0  0  1  0  0  0  0  0  0  0  0  0
   23.1071   11.8388    0.8015 C   0  0  0  0  0  0  0  0  0  0  0  0
   22.8035   11.8141   -0.7010 C   0  0  0  0  0  0  0  0  0  0  0  0
   21.8133    9.9586    1.7238 O   0  0  0  0  0  0  0  0  0  0  0  0
  1  2  1  1  0  0  0
  1  3  1  0  0  0  0
  1  8  1  0  0  0  0
  3  4  1  0  0  0  0
  3 32  1  6  0  0  0
  4  5  1  0  0  0  0
  4 33  1  6  0  0  0
  5  6  1  1  0  0  0
  5  7  1  0  0  0  0
  7  8  1  0  0  0  0
  7  9  1  1  0  0  0
  9 10  1  0  0  0  0
 11 12  1  1  0  0  0
 11 13  1  0  0  0  0
 11 19  1  0  0  0  0
 12 35  1  0  0  0  0
 13 14  1  0  0  0  0
 14 15  1  6  0  0  0
 14 16  1  0  0  0  0
 16  2  1  6  0  0  0
 16 17  1  0  0  0  0
 17 18  1  1  0  0  0
 17 19  1  0  0  0  0
 19 20  1  1  0  0  0
 21 20  1  6  0  0  0
 21 22  1  0  0  0  0
 21 29  1  0  0  0  0
 22 23  1  6  0  0  0
 22 24  1  0  0  0  0
 24 25  1  1  0  0  0
 24 26  1  0  0  0  0
 26 27  1  6  0  0  0
 26 28  1  0  0  0  0
 28 29  1  0  0  0  0
 28 30  1  1  0  0  0
 30 31  1  0  0  0  0
 34 39  1  0  0  0  0
 35 36  2  0  0  0  0
 37 35  1  6  0  0  0
 37 38  1  0  0  0  0
 37 40  1  0  0  0  0
 38 39  1  0  0  0  0
M  END
>  <CHROM.1>
95.41128844,-172.71463916,-159.66081791,-134.27193014,159.31456605,-63.57276097
63.50338274,-89.64850572,44.08209080,-158.51903601,23.18661625,6.39174249
-0.37784977,-2.46805726,-1.13175456,0.02769766

>  <Name>
2g5q_lig

>  <RI>
224

>  <Rbt.Current_Directory>
/home/itssahil/PROJECTS/Mol_Feturizer/New_Systems/rnas/2g5q

>  <Rbt.Executable>
rbdock ($Id: //depot/dev/client3/rdock/2013.1/src/exe/rbdock.cxx#4 $)

>  <Rbt.Library>
libRbt.so (2013.1, Build901 2013/11/27)

>  <Rbt.Parameter_File>
/export/apps/rDock/src/rDock_2013.1_src/data/scripts/dock_solv.prm

>  <Rbt.Receptor>
prm/blind_docking_60.prm

>  <SCORE>
54.6215

>  <SCORE.INTER>
31.1581

>  <SCORE.INTER.CONST>
1

>  <SCORE.INTER.POLAR>
-0.188008

>  <SCORE.INTER.ROT>
10

>  <SCORE.INTER.SOLV>
31.0495

>  <SCORE.INTER.VDW>
0.782263

>  <SCORE.INTER.norm>
0.778953

>  <SCORE.INTRA>
2.0506

>  <SCORE.INTRA.DIHEDRAL>
-5.19672

>  <SCORE.INTRA.DIHEDRAL.0>
22.5778

>  <SCORE.INTRA.POLAR>
0

>  <SCORE.INTRA.POLAR.0>
0

>  <SCORE.INTRA.REPUL>
0.0477704

>  <SCORE.INTRA.REPUL.0>
0

>  <SCORE.INTRA.SOLV>
11.1892

>  <SCORE.INTRA.SOLV.lig_0>
-102.332

>  <SCORE.INTRA.VDW>
-1.1845

>  <SCORE.INTRA.VDW.0>
-5.08747

>  <SCORE.INTRA.norm>
0.0512651

>  <SCORE.RESTR>
21.4128

>  <SCORE.RESTR.CAVITY>
21.4128

>  <SCORE.RESTR.norm>
0.53532

>  <SCORE.SYSTEM>
0

>  <SCORE.SYSTEM.CONST>
0

>  <SCORE.SYSTEM.DIHEDRAL>
0

>  <SCORE.SYSTEM.SOLV>
0

>  <SCORE.SYSTEM.norm>
0

>  <SCORE.heavy>
40

>  <SCORE.norm>
1.36554

>  <RMSD>
33.790

$$$$
2g5q_lig
 OpenBabel11021811433D
libRbt.so/2013.1/901 2013/11/27
 40 42  0  0  0  0  0  0  0  0999 V2000
   24.7951    5.8122    3.5443 C   0  0  2  0  0  0  0  0  0  0  0  0
   25.1224    7.1801    3.4385 O   0  0  0  0  0  0  0  0  0  0  0  0
   26.0084    4.9666    3.0568 C   0  0  1  0  0  0  0  0  0  0  0  0
   26.2706    5.1514    1.5302 C   0  0  2  0  0  0  0  0  0  0  0  0
   24.9904    4.7131    0.7727 C   0  0  2  0  0  0  0  0  0  0  0  0
   25.2006    4.8472   -0.6423 O   0  0  0  0  0  0  0  0  0  0  0  0
   23.7901    5.6222    1.2596 C   0  0  2  0  0  0  0  0  0  0  0  0
   23.5989    5.4705    2.7304 O   0  0  0  0  0  0  0  0  0  0  0  0
   22.4693    5.2667    0.5853 C   0  0  0  0  0  0  0  0  0  0  0  0
   22.2822    3.7863    0.4617 N   0  0  0  0  0  0  0  0  0  0  0  0
   21.6959    9.3908    1.8732 C   0  0  2  0  0  0  0  0  0  0  0  0
   20.6491   10.3957    1.7318 N   0  0  0  0  0  0  0  0  0  0  0  0
   21.5436    8.6309    3.2572 C   0  0  0  0  0  0  0  0  0  0  0  0
   22.6717    7.5363    3.4114 C   0  0  2  0  0  0  0  0  0  0  0  0
   22.5110    6.8237    4.7077 N   0  0  0  0  0  0  0  0  0  0  0  0
   24.0911    8.2230    3.3042 C   0  0  2  0  0  0  0  0  0  0  0  0
   24.2034    8.9718    1.9173 C   0  0  2  0  0  0  0  0  0  0  0  0
   25.4869    9.5981    1.8252 O   0  0  0  0  0  0  0  0  0  0  0  0
   23.0790   10.0693    1.7908 C   0  0  1  0  0  0  0  0  0  0  0  0
   23.1771   10.7489    0.5075 O   0  0  0  0  0  0  0  0  0  0  0  0
   23.9236   10.2712   -0.5846 C   0  0  2  0  0  0  0  0  0  0  0  0
   24.9533   11.3858   -0.9729 C   0  0  2  0  0  0  0  0  0  0  0  0
   25.7865   11.6468    0.1107 O   0  0  0  0  0  0  0  0  0  0  0  0
   24.2203   12.6970   -1.4485 C   0  0  1  0  0  0  0  0  0  0  0  0
   25.1984   13.7694   -1.8271 N   0  0  0  0  0  0  0  0  0  0  0  0
   23.2901   12.3295   -2.6721 C   0  0  2  0  0  0  0  0  0  0  0  0
   22.6015   13.4852   -3.1541 O   0  0  0  0  0  0  0  0  0  0  0  0
   22.2865   11.2158   -2.2195 C   0  0  2  0  0  0  0  0  0  0  0  0
   23.0185   10.0030   -1.7163 O   0  0  0  0  0  0  0  0  0  0  0  0
   21.3853   10.7895   -3.3419 C   0  0  0  0  0  0  0  0  0  0  0  0
   22.1408   10.2791   -4.4524 O   0  0  0  0  0  0  0  0  0  0  0  0
   27.1864    5.3515    3.8457 O   0  0  0  0  0  0  0  0  0  0  0  0
   27.3424    4.3732    1.1519 O   0  0  0  0  0  0  0  0  0  0  0  0
   20.5479   12.5525    3.4924 N   0  0  0  0  0  0  0  0  0  0  0  0
   19.2860   10.1503    1.8215 C   0  0  0  0  0  0  0  0  0  0  0  0
   18.8028    9.0420    2.0255 O   0  0  0  0  0  0  0  0  0  0  0  0
   18.4415   11.4293    1.6181 C   0  0  1  0  0  0  0  0  0  0  0  0
   18.1614   12.0996    2.9784 C   0  0  0  0  0  0  0  0  0  0  0  0
   19.2920   12.0134    4.0101 C   0  0  0  0  0  0  0  0  0  0  0  0
   19.1498   12.3286    0.7355 O   0  0  0  0  0  0  0  0  0  0  0  0
  1  2  1  6  0  0  0
  1  3  1  0  0  0  0
  1  8  1  0  0  0  0
  3  4  1  0  0  0  0
  3 32  1  1  0  0  0
  4  5  1  0  0  0  0
  4 33  1  6  0  0  0
  5  6  1  6  0  0  0
  5  7  1  0  0  0  0
  7  8  1  0  0  0  0
  7  9  1  6  0  0  0
  9 10  1  0  0  0  0
 11 12  1  1  0  0  0
 11 13  1  0  0  0  0
 11 19  1  0  0  0  0
 12 35  1  0  0  0  0
 13 14  1  0  0  0  0
 14 15  1  1  0  0  0
 14 16  1  0  0  0  0
 16  2  1  6  0  0  0
 16 17  1  0  0  0  0
 17 18  1  1  0  0  0
 17 19  1  0  0  0  0
 19 20  1  6  0  0  0
 21 20  1  1  0  0  0
 21 22  1  0  0  0  0
 21 29  1  0  0  0  0
 22 23  1  1  0  0  0
 22 24  1  0  0  0  0
 24 25  1  6  0  0  0
 24 26  1  0  0  0  0
 26 27  1  1  0  0  0
 26 28  1  0  0  0  0
 28 29  1  0  0  0  0
 28 30  1  6  0  0  0
 30 31  1  0  0  0  0
 34 39  1  0  0  0  0
 35 36  2  0  0  0  0
 37 35  1  1  0  0  0
 37 38  1  0  0  0  0
 37 40  1  0  0  0  0
 38 39  1  0  0  0  0
M  END
>  <CHROM.1>
155.58797925,41.12815471,-55.41275579,4.05201227,-104.15733857,-122.73420424
59.26844401,-91.82925676,35.67203665,55.62899923,23.04376192,9.00442803,0.98519694
0.95500435,-0.63589712,2.36544551

>  <Name>
2g5q_lig

>  <RI>
224

>  <Rbt.Current_Directory>
/home/itssahil/PROJECTS/Mol_Feturizer/New_Systems/rnas/2g5q

>  <Rbt.Executable>
rbdock ($Id: //depot/dev/client3/rdock/2013.1/src/exe/rbdock.cxx#4 $)

>  <Rbt.Library>
libRbt.so (2013.1, Build901 2013/11/27)

>  <Rbt.Parameter_File>
/export/apps/rDock/src/rDock_2013.1_src/data/scripts/dock_solv.prm

>  <Rbt.Receptor>
prm/blind_docking_100.prm

>  <SCORE>
39.7798

>  <SCORE.INTER>
8.94259

>  <SCORE.INTER.CONST>
1

>  <SCORE.INTER.POLAR>
-0.316231

>  <SCORE.INTER.ROT>
10

>  <SCORE.INTER.SOLV>
40.6109

>  <SCORE.INTER.VDW>
-16.7878

>  <SCORE.INTER.norm>
0.223565

>  <SCORE.INTRA>
15.4557

>  <SCORE.INTRA.DIHEDRAL>
5.0694

>  <SCORE.INTRA.DIHEDRAL.0>
22.5778

>  <SCORE.INTRA.POLAR>
0

>  <SCORE.INTRA.POLAR.0>
0

>  <SCORE.INTRA.REPUL>
0.00269657

>  <SCORE.INTRA.REPUL.0>
0

>  <SCORE.INTRA.SOLV>
8.92241

>  <SCORE.INTRA.SOLV.lig_0>
-102.332

>  <SCORE.INTRA.VDW>
8.44635

>  <SCORE.INTRA.VDW.0>
-5.08747

>  <SCORE.INTRA.norm>
0.386394

>  <SCORE.RESTR>
15.3815

>  <SCORE.RESTR.CAVITY>
15.3815

>  <SCORE.RESTR.norm>
0.384537

>  <SCORE.SYSTEM>
0

>  <SCORE.SYSTEM.CONST>
0

>  <SCORE.SYSTEM.DIHEDRAL>
0

>  <SCORE.SYSTEM.SOLV>
0

>  <SCORE.SYSTEM.norm>
0

>  <SCORE.heavy>
40

>  <SCORE.norm>
0.994495

>  <RMSD>
33.793

$$$$
2g5q_lig
 OpenBabel11021811433D
libRbt.so/2013.1/901 2013/11/27
 40 42  0  0  0  0  0  0  0  0999 V2000
   23.7015    3.4289   -1.8344 C   0  0  2  0  0  0  0  0  0  0  0  0
   23.5697    4.6673   -2.4966 O   0  0  0  0  0  0  0  0  0  0  0  0
   23.9344    2.3141   -2.8963 C   0  0  1  0  0  0  0  0  0  0  0  0
   22.6813    2.1011   -3.8007 C   0  0  2  0  0  0  0  0  0  0  0  0
   21.4950    1.7082   -2.8825 C   0  0  2  0  0  0  0  0  0  0  0  0
   20.3238    1.4801   -3.6829 O   0  0  0  0  0  0  0  0  0  0  0  0
   21.2589    2.8818   -1.8476 C   0  0  2  0  0  0  0  0  0  0  0  0
   22.4902    3.1027   -1.0366 O   0  0  0  0  0  0  0  0  0  0  0  0
   20.1163    2.5939   -0.8794 C   0  0  0  0  0  0  0  0  0  0  0  0
   20.5267    1.6517    0.2095 N   0  0  0  0  0  0  0  0  0  0  0  0
   23.1996    8.6577   -0.7596 C   0  0  2  0  0  0  0  0  0  0  0  0
   22.6253    9.8449   -0.1379 N   0  0  0  0  0  0  0  0  0  0  0  0
   22.4800    8.3594   -2.1413 C   0  0  0  0  0  0  0  0  0  0  0  0
   23.1040    7.0779   -2.8217 C   0  0  2  0  0  0  0  0  0  0  0  0
   22.4285    6.8157   -4.1212 N   0  0  0  0  0  0  0  0  0  0  0  0
   22.9699    5.8435   -1.8439 C   0  0  2  0  0  0  0  0  0  0  0  0
   23.6935    6.1793   -0.4798 C   0  0  2  0  0  0  0  0  0  0  0  0
   23.5653    5.0627    0.4061 O   0  0  0  0  0  0  0  0  0  0  0  0
   23.0456    7.4511    0.1893 C   0  0  1  0  0  0  0  0  0  0  0  0
   23.7219    7.7653    1.4392 O   0  0  0  0  0  0  0  0  0  0  0  0
   23.3257    7.2759    2.6968 C   0  0  2  0  0  0  0  0  0  0  0  0
   24.0899    8.1038    3.7848 C   0  0  2  0  0  0  0  0  0  0  0  0
   23.7616    9.4503    3.6601 O   0  0  0  0  0  0  0  0  0  0  0  0
   25.6470    7.8908    3.6724 C   0  0  1  0  0  0  0  0  0  0  0  0
   26.3879    8.6764    4.7137 N   0  0  0  0  0  0  0  0  0  0  0  0
   25.9483    6.3462    3.8162 C   0  0  2  0  0  0  0  0  0  0  0  0
   27.3516    6.0902    3.7295 O   0  0  0  0  0  0  0  0  0  0  0  0
   25.1593    5.5779    2.7027 C   0  0  2  0  0  0  0  0  0  0  0  0
   23.6842    5.8503    2.8022 O   0  0  0  0  0  0  0  0  0  0  0  0
   25.3711    4.0945    2.7937 C   0  0  0  0  0  0  0  0  0  0  0  0
   26.7152    3.7363    2.4334 O   0  0  0  0  0  0  0  0  0  0  0  0
   25.1095    2.6790   -3.6989 O   0  0  0  0  0  0  0  0  0  0  0  0
   22.9375    1.0983   -4.7097 O   0  0  0  0  0  0  0  0  0  0  0  0
   23.4853   14.0650   -1.0089 N   0  0  0  0  0  0  0  0  0  0  0  0
   23.3510   10.8717    0.4497 C   0  0  0  0  0  0  0  0  0  0  0  0
   24.5749   10.8911    0.5192 O   0  0  0  0  0  0  0  0  0  0  0  0
   22.4422   11.9830    1.0240 C   0  0  1  0  0  0  0  0  0  0  0  0
   21.6475   12.6561   -0.1134 C   0  0  0  0  0  0  0  0  0  0  0  0
   22.4643   13.0738   -1.3417 C   0  0  0  0  0  0  0  0  0  0  0  0
   21.5512   11.4057    2.0049 O   0  0  0  0  0  0  0  0  0  0  0  0
  1  2  1  6  0  0  0
  1  3  1  0  0  0  0
  1  8  1  0  0  0  0
  3  4  1  0  0  0  0
  3 32  1  6  0  0  0
  4  5  1  0  0  0  0
  4 33  1  6  0  0  0
  5  6  1  6  0  0  0
  5  7  1  0  0  0  0
  7  8  1  0  0  0  0
  7  9  1  1  0  0  0
  9 10  1  0  0  0  0
 11 12  1  1  0  0  0
 11 13  1  0  0  0  0
 11 19  1  0  0  0  0
 12 35  1  0  0  0  0
 13 14  1  0  0  0  0
 14 15  1  6  0  0  0
 14 16  1  0  0  0  0
 16  2  1  6  0  0  0
 16 17  1  0  0  0  0
 17 18  1  1  0  0  0
 17 19  1  0  0  0  0
 19 20  1  1  0  0  0
 21 20  1  6  0  0  0
 21 22  1  0  0  0  0
 21 29  1  0  0  0  0
 22 23  1  6  0  0  0
 22 24  1  0  0  0  0
 24 25  1  1  0  0  0
 24 26  1  0  0  0  0
 26 27  1  6  0  0  0
 26 28  1  0  0  0  0
 28 29  1  0  0  0  0
 28 30  1  1  0  0  0
 30 31  1  0  0  0  0
 34 39  1  0  0  0  0
 35 36  2  0  0  0  0
 37 35  1  6  0  0  0
 37 38  1  0  0  0  0
 37 40  1  0  0  0  0
 38 39  1  0  0  0  0
M  END
>  <CHROM.1>
162.19919098,78.03772399,-135.39485981,174.90302179,149.13446424,-166.99959224
-69.34521538,-63.34239828,-48.16800361,-61.76385182,23.41426353,6.48135772
-0.03126670,-1.84582860,-1.06176620,0.23076638

>  <Name>
2g5q_lig

>  <RI>
0

>  <Rbt.Current_Directory>
/home/itssahil/PROJECTS/Mol_Feturizer/New_Systems/rnas/2g5q

>  <Rbt.Executable>
rbdock ($Id: //depot/dev/client3/rdock/2013.1/src/exe/rbdock.cxx#4 $)

>  <Rbt.Library>
libRbt.so (2013.1, Build901 2013/11/27)

>  <Rbt.Parameter_File>
/export/apps/rDock/src/rDock_2013.1_src/data/scripts/dock_solv.prm

>  <Rbt.Receptor>
prm/blind_docking_40.prm

>  <SCORE>
-0.167714

>  <SCORE.INTER>
-5.48641

>  <SCORE.INTER.CONST>
1

>  <SCORE.INTER.POLAR>
-0.754051

>  <SCORE.INTER.ROT>
10

>  <SCORE.INTER.SOLV>
27.4096

>  <SCORE.INTER.VDW>
-20.5473

>  <SCORE.INTER.norm>
-0.13716

>  <SCORE.INTRA>
-4.45306

>  <SCORE.INTRA.DIHEDRAL>
-12.703

>  <SCORE.INTRA.DIHEDRAL.0>
22.5778

>  <SCORE.INTRA.POLAR>
0

>  <SCORE.INTRA.POLAR.0>
0

>  <SCORE.INTRA.REPUL>
0

>  <SCORE.INTRA.REPUL.0>
0

>  <SCORE.INTRA.SOLV>
2.99616

>  <SCORE.INTRA.SOLV.lig_0>
-102.332

>  <SCORE.INTRA.VDW>
0.400364

>  <SCORE.INTRA.VDW.0>
-5.08747

>  <SCORE.INTRA.norm>
-0.111326

>  <SCORE.RESTR>
9.77176

>  <SCORE.RESTR.CAVITY>
9.77176

>  <SCORE.RESTR.norm>
0.244294

>  <SCORE.SYSTEM>
0

>  <SCORE.SYSTEM.CONST>
0

>  <SCORE.SYSTEM.DIHEDRAL>
0

>  <SCORE.SYSTEM.SOLV>
0

>  <SCORE.SYSTEM.norm>
0

>  <SCORE.heavy>
40

>  <SCORE.norm>
-0.00419284

>  <RMSD>
33.800

$$$$
2g5q_lig
 OpenBabel11021811433D
libRbt.so/2013.1/901 2013/11/27
 40 42  0  0  0  0  0  0  0  0999 V2000
   24.0245    5.8273    2.8670 C   0  0  2  0  0  0  0  0  0  0  0  0
   24.5778    7.0879    2.5599 O   0  0  0  0  0  0  0  0  0  0  0  0
   25.0872    4.7277    2.5733 C   0  0  1  0  0  0  0  0  0  0  0  0
   25.4022    4.6151    1.0496 C   0  0  2  0  0  0  0  0  0  0  0  0
   24.0795    4.2726    0.3160 C   0  0  2  0  0  0  0  0  0  0  0  0
   24.3330    4.1373   -1.0918 O   0  0  0  0  0  0  0  0  0  0  0  0
   23.0404    5.4318    0.5996 C   0  0  2  0  0  0  0  0  0  0  0  0
   22.8018    5.5559    2.0661 O   0  0  0  0  0  0  0  0  0  0  0  0
   21.6902    5.1900   -0.0669 C   0  0  0  0  0  0  0  0  0  0  0  0
   20.7425    6.3278    0.1549 N   0  0  0  0  0  0  0  0  0  0  0  0
   21.8342   10.4295    1.9401 C   0  0  2  0  0  0  0  0  0  0  0  0
   21.0786   11.6556    2.1667 N   0  0  0  0  0  0  0  0  0  0  0  0
   21.4876    9.3572    3.0563 C   0  0  0  0  0  0  0  0  0  0  0  0
   22.2988    8.0246    2.8105 C   0  0  2  0  0  0  0  0  0  0  0  0
   21.9566    7.0238    3.8570 N   0  0  0  0  0  0  0  0  0  0  0  0
   23.8469    8.3432    2.8032 C   0  0  2  0  0  0  0  0  0  0  0  0
   24.1519    9.4159    1.6837 C   0  0  2  0  0  0  0  0  0  0  0  0
   25.5530    9.7075    1.6833 O   0  0  0  0  0  0  0  0  0  0  0  0
   23.3448   10.7422    1.9567 C   0  0  1  0  0  0  0  0  0  0  0  0
   23.6181   11.7240    0.9175 O   0  0  0  0  0  0  0  0  0  0  0  0
   24.4956   11.5100   -0.1606 C   0  0  2  0  0  0  0  0  0  0  0  0
   24.1238   12.5402   -1.2802 C   0  0  2  0  0  0  0  0  0  0  0  0
   24.2641   13.8338   -0.7867 O   0  0  0  0  0  0  0  0  0  0  0  0
   22.6619   12.2967   -1.8150 C   0  0  1  0  0  0  0  0  0  0  0  0
   22.2979   13.2760   -2.8914 N   0  0  0  0  0  0  0  0  0  0  0  0
   22.5708   10.8135   -2.3528 C   0  0  2  0  0  0  0  0  0  0  0  0
   21.2643   10.5344   -2.8601 O   0  0  0  0  0  0  0  0  0  0  0  0
   22.9509    9.8364   -1.1894 C   0  0  2  0  0  0  0  0  0  0  0  0
   24.3271   10.1348   -0.6632 O   0  0  0  0  0  0  0  0  0  0  0  0
   22.9176    8.4028   -1.6337 C   0  0  0  0  0  0  0  0  0  0  0  0
   23.4994    7.5367   -0.6456 O   0  0  0  0  0  0  0  0  0  0  0  0
   26.2996    5.0400    3.3419 O   0  0  0  0  0  0  0  0  0  0  0  0
   26.3349    3.6219    0.8468 O   0  0  0  0  0  0  0  0  0  0  0  0
   20.8382   14.7838    6.2278 N   0  0  0  0  0  0  0  0  0  0  0  0
   19.9508   11.7648    2.9682 C   0  0  0  0  0  0  0  0  0  0  0  0
   19.4523   10.8255    3.5786 O   0  0  0  0  0  0  0  0  0  0  0  0
   19.3810   13.2019    2.9926 C   0  0  1  0  0  0  0  0  0  0  0  0
   19.4642   13.7792    4.4201 C   0  0  0  0  0  0  0  0  0  0  0  0
   20.8330   14.3279    4.8393 C   0  0  0  0  0  0  0  0  0  0  0  0
   20.1225   14.0208    2.0605 O   0  0  0  0  0  0  0  0  0  0  0  0
  1  2  1  6  0  0  0
  1  3  1  0  0  0  0
  1  8  1  0  0  0  0
  3  4  1  0  0  0  0
  3 32  1  1  0  0  0
  4  5  1  0  0  0  0
  4 33  1  1  0  0  0
  5  6  1  6  0  0  0
  5  7  1  0  0  0  0
  7  8  1  0  0  0  0
  7  9  1  6  0  0  0
  9 10  1  0  0  0  0
 11 12  1  1  0  0  0
 11 13  1  0  0  0  0
 11 19  1  0  0  0  0
 12 35  1  0  0  0  0
 13 14  1  0  0  0  0
 14 15  1  1  0  0  0
 14 16  1  0  0  0  0
 16  2  1  6  0  0  0
 16 17  1  0  0  0  0
 17 18  1  1  0  0  0
 17 19  1  0  0  0  0
 19 20  1  6  0  0  0
 21 20  1  1  0  0  0
 21 22  1  0  0  0  0
 21 29  1  0  0  0  0
 22 23  1  1  0  0  0
 22 24  1  0  0  0  0
 24 25  1  6  0  0  0
 24 26  1  0  0  0  0
 26 27  1  1  0  0  0
 26 28  1  0  0  0  0
 28 29  1  0  0  0  0
 28 30  1  6  0  0  0
 30 31  1  0  0  0  0
 34 39  1  0  0  0  0
 35 36  2  0  0  0  0
 37 35  1  1  0  0  0
 37 38  1  0  0  0  0
 37 40  1  0  0  0  0
 38 39  1  0  0  0  0
M  END
>  <CHROM.1>
-176.41620144,-177.14742863,-17.60807530,-24.33974459,-120.26758456,159.88346451
169.36700597,-116.64141252,80.38494310,-176.78577232,22.85482170,9.27031429
1.20767435,0.54928902,-1.12014572,2.30073129

>  <Name>
2g5q_lig

>  <RI>
224

>  <Rbt.Current_Directory>
/home/itssahil/PROJECTS/Mol_Feturizer/New_Systems/rnas/2g5q

>  <Rbt.Executable>
rbdock ($Id: //depot/dev/client3/rdock/2013.1/src/exe/rbdock.cxx#4 $)

>  <Rbt.Library>
libRbt.so (2013.1, Build901 2013/11/27)

>  <Rbt.Parameter_File>
/export/apps/rDock/src/rDock_2013.1_src/data/scripts/dock_solv.prm

>  <Rbt.Receptor>
prm/blind_docking_60.prm

>  <SCORE>
37.3563

>  <SCORE.INTER>
5.19609

>  <SCORE.INTER.CONST>
1

>  <SCORE.INTER.POLAR>
-0.603451

>  <SCORE.INTER.ROT>
10

>  <SCORE.INTER.SOLV>
30.5242

>  <SCORE.INTER.VDW>
-14.9658

>  <SCORE.INTER.norm>
0.129902

>  <SCORE.INTRA>
14.0697

>  <SCORE.INTRA.DIHEDRAL>
-3.647

>  <SCORE.INTRA.DIHEDRAL.0>
22.5778

>  <SCORE.INTRA.POLAR>
0

>  <SCORE.INTRA.POLAR.0>
0

>  <SCORE.INTRA.REPUL>
0

>  <SCORE.INTRA.REPUL.0>
0

>  <SCORE.INTRA.SOLV>
7.45311

>  <SCORE.INTRA.SOLV.lig_0>
-102.332

>  <SCORE.INTRA.VDW>
12.1667

>  <SCORE.INTRA.VDW.0>
-5.08747

>  <SCORE.INTRA.norm>
0.351743

>  <SCORE.RESTR>
18.0905

>  <SCORE.RESTR.CAVITY>
18.0905

>  <SCORE.RESTR.norm>
0.452262

>  <SCORE.SYSTEM>
0

>  <SCORE.SYSTEM.CONST>
0

>  <SCORE.SYSTEM.DIHEDRAL>
0

>  <SCORE.SYSTEM.SOLV>
0

>  <SCORE.SYSTEM.norm>
0

>  <SCORE.heavy>
40

>  <SCORE.norm>
0.933908

>  <RMSD>
33.807

$$$$
2g5q_lig
 OpenBabel11021811433D
libRbt.so/2013.1/901 2013/11/27
 40 42  0  0  0  0  0  0  0  0999 V2000
   25.2423    5.9433    3.6761 C   0  0  2  0  0  0  0  0  0  0  0  0
   25.4735    7.2786    3.2846 O   0  0  0  0  0  0  0  0  0  0  0  0
   26.5790    5.1513    3.5726 C   0  0  1  0  0  0  0  0  0  0  0  0
   27.0585    5.0097    2.0949 C   0  0  2  0  0  0  0  0  0  0  0  0
   25.9490    4.2676    1.3054 C   0  0  2  0  0  0  0  0  0  0  0  0
   26.3641    4.0966   -0.0595 O   0  0  0  0  0  0  0  0  0  0  0  0
   24.6203    5.1223    1.3946 C   0  0  2  0  0  0  0  0  0  0  0  0
   24.2167    5.2911    2.8199 O   0  0  0  0  0  0  0  0  0  0  0  0
   23.4515    4.4747    0.6596 C   0  0  0  0  0  0  0  0  0  0  0  0
   22.2870    5.4062    0.5252 N   0  0  0  0  0  0  0  0  0  0  0  0
   21.9703    9.2679    1.5972 C   0  0  2  0  0  0  0  0  0  0  0  0
   20.8602   10.1971    1.4238 N   0  0  0  0  0  0  0  0  0  0  0  0
   21.8102    8.4697    2.9584 C   0  0  0  0  0  0  0  0  0  0  0  0
   23.0071    7.4567    3.1468 C   0  0  2  0  0  0  0  0  0  0  0  0
   22.8392    6.7068    4.4210 N   0  0  0  0  0  0  0  0  0  0  0  0
   24.3758    8.2466    3.1199 C   0  0  2  0  0  0  0  0  0  0  0  0
   24.4970    9.0309    1.7535 C   0  0  2  0  0  0  0  0  0  0  0  0
   25.7339    9.7503    1.7340 O   0  0  0  0  0  0  0  0  0  0  0  0
   23.3021   10.0465    1.5930 C   0  0  1  0  0  0  0  0  0  0  0  0
   23.4095   10.7586    0.3282 O   0  0  0  0  0  0  0  0  0  0  0  0
   23.7213   12.1254    0.2149 C   0  0  2  0  0  0  0  0  0  0  0  0
   22.3778   12.9237    0.3205 C   0  0  2  0  0  0  0  0  0  0  0  0
   21.7761   12.6609    1.5474 O   0  0  0  0  0  0  0  0  0  0  0  0
   21.4090   12.5674   -0.8699 C   0  0  1  0  0  0  0  0  0  0  0  0
   20.1208   13.3307   -0.7802 N   0  0  0  0  0  0  0  0  0  0  0  0
   22.1539   12.8829   -2.2275 C   0  0  2  0  0  0  0  0  0  0  0  0
   21.3187   12.5855   -3.3483 O   0  0  0  0  0  0  0  0  0  0  0  0
   23.4828   12.0555   -2.2718 C   0  0  2  0  0  0  0  0  0  0  0  0
   24.3565   12.3758   -1.0912 O   0  0  0  0  0  0  0  0  0  0  0  0
   24.2655   12.3267   -3.5238 C   0  0  0  0  0  0  0  0  0  0  0  0
   23.5080   11.9865   -4.6966 O   0  0  0  0  0  0  0  0  0  0  0  0
   27.5871    5.8374    4.3917 O   0  0  0  0  0  0  0  0  0  0  0  0
   28.2336    4.2919    2.0613 O   0  0  0  0  0  0  0  0  0  0  0  0
   19.8227   13.1974    4.4982 N   0  0  0  0  0  0  0  0  0  0  0  0
   19.5388    9.9378    1.7599 C   0  0  0  0  0  0  0  0  0  0  0  0
   19.1508    8.8788    2.2408 O   0  0  0  0  0  0  0  0  0  0  0  0
   18.6049   11.1289    1.4441 C   0  0  1  0  0  0  0  0  0  0  0  0
   18.9700   12.3364    2.3312 C   0  0  0  0  0  0  0  0  0  0  0  0
   19.4073   12.0048    3.7627 C   0  0  0  0  0  0  0  0  0  0  0  0
   18.7222   11.4635    0.0429 O   0  0  0  0  0  0  0  0  0  0  0  0
  1  2  1  6  0  0  0
  1  3  1  0  0  0  0
  1  8  1  0  0  0  0
  3  4  1  0  0  0  0
  3 32  1  1  0  0  0
  4  5  1  0  0  0  0
  4 33  1  1  0  0  0
  5  6  1  6  0  0  0
  5  7  1  0  0  0  0
  7  8  1  0  0  0  0
  7  9  1  6  0  0  0
  9 10  1  0  0  0  0
 11 12  1  1  0  0  0
 11 13  1  0  0  0  0
 11 19  1  0  0  0  0
 12 35  1  0  0  0  0
 13 14  1  0  0  0  0
 14 15  1  1  0  0  0
 14 16  1  0  0  0  0
 16  2  1  6  0  0  0
 16 17  1  0  0  0  0
 17 18  1  1  0  0  0
 17 19  1  0  0  0  0
 19 20  1  6  0  0  0
 21 20  1  6  0  0  0
 21 22  1  0  0  0  0
 21 29  1  0  0  0  0
 22 23  1  1  0  0  0
 22 24  1  0  0  0  0
 24 25  1  1  0  0  0
 24 26  1  0  0  0  0
 26 27  1  6  0  0  0
 26 28  1  0  0  0  0
 28 29  1  0  0  0  0
 28 30  1  6  0  0  0
 30 31  1  0  0  0  0
 34 39  1  0  0  0  0
 35 36  2  0  0  0  0
 37 35  1  1  0  0  0
 37 38  1  0  0  0  0
 37 40  1  0  0  0  0
 38 39  1  0  0  0  0
M  END
>  <CHROM.1>
172.62929740,-168.93614433,-38.75498779,-11.83674533,130.11286906,-87.03052590
-59.92737739,-65.27586164,-36.62574985,175.98446604,23.07076705,9.21766431
1.15383834,0.83648397,-0.64309408,2.27945781

>  <Name>
2g5q_lig

>  <RI>
224

>  <Rbt.Current_Directory>
/home/itssahil/PROJECTS/Mol_Feturizer/New_Systems/rnas/2g5q

>  <Rbt.Executable>
rbdock ($Id: //depot/dev/client3/rdock/2013.1/src/exe/rbdock.cxx#4 $)

>  <Rbt.Library>
libRbt.so (2013.1, Build901 2013/11/27)

>  <Rbt.Parameter_File>
/export/apps/rDock/src/rDock_2013.1_src/data/scripts/dock_solv.prm

>  <Rbt.Receptor>
prm/blind_docking_100.prm

>  <SCORE>
43.0022

>  <SCORE.INTER>
11.7671

>  <SCORE.INTER.CONST>
1

>  <SCORE.INTER.POLAR>
-0.569742

>  <SCORE.INTER.ROT>
10

>  <SCORE.INTER.SOLV>
29.0739

>  <SCORE.INTER.VDW>
-10.2141

>  <SCORE.INTER.norm>
0.294177

>  <SCORE.INTRA>
9.28603

>  <SCORE.INTRA.DIHEDRAL>
-2.66551

>  <SCORE.INTRA.DIHEDRAL.0>
22.5778

>  <SCORE.INTRA.POLAR>
0

>  <SCORE.INTRA.POLAR.0>
0

>  <SCORE.INTRA.REPUL>
0

>  <SCORE.INTRA.REPUL.0>
0

>  <SCORE.INTRA.SOLV>
9.60419

>  <SCORE.INTRA.SOLV.lig_0>
-102.332

>  <SCORE.INTRA.VDW>
5.81669

>  <SCORE.INTRA.VDW.0>
-5.08747

>  <SCORE.INTRA.norm>
0.232151

>  <SCORE.RESTR>
21.9491

>  <SCORE.RESTR.CAVITY>
21.9491

>  <SCORE.RESTR.norm>
0.548727

>  <SCORE.SYSTEM>
0

>  <SCORE.SYSTEM.CONST>
0

>  <SCORE.SYSTEM.DIHEDRAL>
0

>  <SCORE.SYSTEM.SOLV>
0

>  <SCORE.SYSTEM.norm>
0

>  <SCORE.heavy>
40

>  <SCORE.norm>
1.07506

>  <RMSD>
33.845

$$$$
2g5q_lig
 OpenBabel11021811433D
libRbt.so/2013.1/901 2013/11/27
 40 42  0  0  0  0  0  0  0  0999 V2000
   21.9542    4.2800   -2.9233 C   0  0  2  0  0  0  0  0  0  0  0  0
   22.5280    4.8342   -1.7601 O   0  0  0  0  0  0  0  0  0  0  0  0
   21.0160    3.1077   -2.5107 C   0  0  1  0  0  0  0  0  0  0  0  0
   21.8120    1.9114   -1.9034 C   0  0  2  0  0  0  0  0  0  0  0  0
   22.8210    1.4209   -2.9740 C   0  0  2  0  0  0  0  0  0  0  0  0
   23.5600    0.3013   -2.4595 O   0  0  0  0  0  0  0  0  0  0  0  0
   23.7847    2.6230   -3.3351 C   0  0  2  0  0  0  0  0  0  0  0  0
   22.9928    3.7728   -3.8583 O   0  0  0  0  0  0  0  0  0  0  0  0
   24.8159    2.2543   -4.3963 C   0  0  0  0  0  0  0  0  0  0  0  0
   25.7173    1.1479   -3.9434 N   0  0  0  0  0  0  0  0  0  0  0  0
   23.4132    9.1045   -1.5188 C   0  0  2  0  0  0  0  0  0  0  0  0
   23.2867   10.5259   -1.2197 N   0  0  0  0  0  0  0  0  0  0  0  0
   22.2092    8.6274   -2.4346 C   0  0  0  0  0  0  0  0  0  0  0  0
   22.3461    7.0895   -2.7671 C   0  0  2  0  0  0  0  0  0  0  0  0
   21.2176    6.6573   -3.6352 N   0  0  0  0  0  0  0  0  0  0  0  0
   22.3875    6.2607   -1.4219 C   0  0  2  0  0  0  0  0  0  0  0  0
   23.5945    6.7664   -0.5363 C   0  0  2  0  0  0  0  0  0  0  0  0
   23.6262    6.0191    0.6837 O   0  0  0  0  0  0  0  0  0  0  0  0
   23.4301    8.2985   -0.2035 C   0  0  1  0  0  0  0  0  0  0  0  0
   24.5493    8.7645    0.6018 O   0  0  0  0  0  0  0  0  0  0  0  0
   24.4236    9.6276    1.7051 C   0  0  2  0  0  0  0  0  0  0  0  0
   25.0861    8.9179    2.9342 C   0  0  2  0  0  0  0  0  0  0  0  0
   26.4275    8.6692    2.6601 O   0  0  0  0  0  0  0  0  0  0  0  0
   24.3288    7.5849    3.2979 C   0  0  1  0  0  0  0  0  0  0  0  0
   24.9533    6.8998    4.4773 N   0  0  0  0  0  0  0  0  0  0  0  0
   22.8164    7.9373    3.5907 C   0  0  2  0  0  0  0  0  0  0  0  0
   22.0770    6.7639    3.9351 O   0  0  0  0  0  0  0  0  0  0  0  0
   22.2139    8.6399    2.3274 C   0  0  2  0  0  0  0  0  0  0  0  0
   22.9955    9.8742    1.9733 O   0  0  0  0  0  0  0  0  0  0  0  0
   20.7815    9.0351    2.5407 C   0  0  0  0  0  0  0  0  0  0  0  0
   20.1212    9.2979    1.2918 O   0  0  0  0  0  0  0  0  0  0  0  0
   20.0259    3.6228   -1.5554 O   0  0  0  0  0  0  0  0  0  0  0  0
   20.9371    0.9012   -1.5696 O   0  0  0  0  0  0  0  0  0  0  0  0
   22.0311   12.0387    2.6181 N   0  0  0  0  0  0  0  0  0  0  0  0
   22.0883   11.2058   -1.0537 C   0  0  0  0  0  0  0  0  0  0  0  0
   20.9848   10.6798   -1.1491 O   0  0  0  0  0  0  0  0  0  0  0  0
   22.2987   12.7074   -0.7513 C   0  0  1  0  0  0  0  0  0  0  0  0
   21.4467   13.1263    0.4639 C   0  0  0  0  0  0  0  0  0  0  0  0
   21.1272   12.0145    1.4699 C   0  0  0  0  0  0  0  0  0  0  0  0
   23.7025   12.9484   -0.5054 O   0  0  0  0  0  0  0  0  0  0  0  0
  1  2  1  1  0  0  0
  1  3  1  0  0  0  0
  1  8  1  0  0  0  0
  3  4  1  0  0  0  0
  3 32  1  1  0  0  0
  4  5  1  0  0  0  0
  4 33  1  6  0  0  0
  5  6  1  1  0  0  0
  5  7  1  0  0  0  0
  7  8  1  0  0  0  0
  7  9  1  6  0  0  0
  9 10  1  0  0  0  0
 11 12  1  1  0  0  0
 11 13  1  0  0  0  0
 11 19  1  0  0  0  0
 12 35  1  0  0  0  0
 13 14  1  0  0  0  0
 14 15  1  6  0  0  0
 14 16  1  0  0  0  0
 16  2  1  6  0  0  0
 16 17  1  0  0  0  0
 17 18  1  1  0  0  0
 17 19  1  0  0  0  0
 19 20  1  1  0  0  0
 21 20  1  6  0  0  0
 21 22  1  0  0  0  0
 21 29  1  0  0  0  0
 22 23  1  6  0  0  0
 22 24  1  0  0  0  0
 24 25  1  1  0  0  0
 24 26  1  0  0  0  0
 26 27  1  6  0  0  0
 26 28  1  0  0  0  0
 28 29  1  0  0  0  0
 28 30  1  1  0  0  0
 30 31  1  0  0  0  0
 34 39  1  0  0  0  0
 35 36  2  0  0  0  0
 37 35  1  1  0  0  0
 37 38  1  0  0  0  0
 37 40  1  0  0  0  0
 38 39  1  0  0  0  0
M  END
>  <CHROM.1>
-123.24058973,-61.41794720,33.55328793,-33.07807801,102.60078232,124.40812262
-162.50496358,-131.34397893,27.00148066,98.18807352,22.78898490,7.13381064
-0.33061546,1.53452242,1.20635218,-2.64329090

>  <Name>
2g5q_lig

>  <RI>
0

>  <Rbt.Current_Directory>
/home/itssahil/PROJECTS/Mol_Feturizer/New_Systems/rnas/2g5q

>  <Rbt.Executable>
rbdock ($Id: //depot/dev/client3/rdock/2013.1/src/exe/rbdock.cxx#4 $)

>  <Rbt.Library>
libRbt.so (2013.1, Build901 2013/11/27)

>  <Rbt.Parameter_File>
/export/apps/rDock/src/rDock_2013.1_src/data/scripts/dock_solv.prm

>  <Rbt.Receptor>
prm/blind_docking_40.prm

>  <SCORE>
34.751

>  <SCORE.INTER>
9.33238

>  <SCORE.INTER.CONST>
1

>  <SCORE.INTER.POLAR>
-0.711483

>  <SCORE.INTER.ROT>
10

>  <SCORE.INTER.SOLV>
23.5641

>  <SCORE.INTER.VDW>
-9.52818

>  <SCORE.INTER.norm>
0.23331

>  <SCORE.INTRA>
15.9221

>  <SCORE.INTRA.DIHEDRAL>
11.2339

>  <SCORE.INTRA.DIHEDRAL.0>
22.5778

>  <SCORE.INTRA.POLAR>
0

>  <SCORE.INTRA.POLAR.0>
0

>  <SCORE.INTRA.REPUL>
0

>  <SCORE.INTRA.REPUL.0>
0

>  <SCORE.INTRA.SOLV>
10.6446

>  <SCORE.INTRA.SOLV.lig_0>
-102.332

>  <SCORE.INTRA.VDW>
4.98288

>  <SCORE.INTRA.VDW.0>
-5.08747

>  <SCORE.INTRA.norm>
0.398053

>  <SCORE.RESTR>
9.49644

>  <SCORE.RESTR.CAVITY>
9.49644

>  <SCORE.RESTR.norm>
0.237411

>  <SCORE.SYSTEM>
0

>  <SCORE.SYSTEM.CONST>
0

>  <SCORE.SYSTEM.DIHEDRAL>
0

>  <SCORE.SYSTEM.SOLV>
0

>  <SCORE.SYSTEM.norm>
0

>  <SCORE.heavy>
40

>  <SCORE.norm>
0.868774

>  <RMSD>
33.888

$$$$
2g5q_lig
 OpenBabel11021811433D
libRbt.so/2013.1/901 2013/11/27
 40 42  0  0  0  0  0  0  0  0999 V2000
   24.2879    5.8843    4.4612 C   0  0  2  0  0  0  0  0  0  0  0  0
   24.5454    7.2628    4.3098 O   0  0  0  0  0  0  0  0  0  0  0  0
   25.6438    5.1343    4.6157 C   0  0  1  0  0  0  0  0  0  0  0  0
   26.4944    5.1949    3.3094 C   0  0  2  0  0  0  0  0  0  0  0  0
   25.6642    4.5444    2.1724 C   0  0  2  0  0  0  0  0  0  0  0  0
   26.4250    4.5601    0.9537 O   0  0  0  0  0  0  0  0  0  0  0  0
   24.3165    5.3585    2.0140 C   0  0  2  0  0  0  0  0  0  0  0  0
   23.5514    5.3331    3.2934 O   0  0  0  0  0  0  0  0  0  0  0  0
   23.4104    4.7937    0.9252 C   0  0  0  0  0  0  0  0  0  0  0  0
   24.1085    4.7044   -0.3963 N   0  0  0  0  0  0  0  0  0  0  0  0
   24.2226   10.4858    1.3797 C   0  0  2  0  0  0  0  0  0  0  0  0
   24.1121   11.1887    0.1071 N   0  0  0  0  0  0  0  0  0  0  0  0
   25.5502    9.6185    1.4139 C   0  0  0  0  0  0  0  0  0  0  0  0
   25.6776    8.8608    2.7938 C   0  0  2  0  0  0  0  0  0  0  0  0
   26.9316    8.0603    2.8174 N   0  0  0  0  0  0  0  0  0  0  0  0
   24.4070    7.9466    3.0127 C   0  0  2  0  0  0  0  0  0  0  0  0
   23.1068    8.8435    2.9680 C   0  0  2  0  0  0  0  0  0  0  0  0
   21.9574    8.0128    3.1601 O   0  0  0  0  0  0  0  0  0  0  0  0
   22.9913    9.5778    1.5779 C   0  0  1  0  0  0  0  0  0  0  0  0
   21.7996   10.4127    1.5440 O   0  0  0  0  0  0  0  0  0  0  0  0
   20.8285   10.3628    0.5278 C   0  0  2  0  0  0  0  0  0  0  0  0
   19.7723    9.2823    0.9404 C   0  0  2  0  0  0  0  0  0  0  0  0
   19.1910    9.6398    2.1531 O   0  0  0  0  0  0  0  0  0  0  0  0
   20.4266    7.8517    1.0291 C   0  0  1  0  0  0  0  0  0  0  0  0
   19.4215    6.8087    1.4194 N   0  0  0  0  0  0  0  0  0  0  0  0
   21.0703    7.5124   -0.3737 C   0  0  2  0  0  0  0  0  0  0  0  0
   21.6755    6.2179   -0.3572 O   0  0  0  0  0  0  0  0  0  0  0  0
   22.1145    8.6250   -0.7259 C   0  0  2  0  0  0  0  0  0  0  0  0
   21.4698    9.9829   -0.7437 O   0  0  0  0  0  0  0  0  0  0  0  0
   22.7495    8.3880   -2.0655 C   0  0  0  0  0  0  0  0  0  0  0  0
   23.7345    7.3440   -1.9985 O   0  0  0  0  0  0  0  0  0  0  0  0
   26.3713    5.7238    5.7477 O   0  0  0  0  0  0  0  0  0  0  0  0
   27.6727    4.5068    3.4976 O   0  0  0  0  0  0  0  0  0  0  0  0
   25.7398   14.5031   -2.2857 N   0  0  0  0  0  0  0  0  0  0  0  0
   23.2687   12.2618   -0.1445 C   0  0  0  0  0  0  0  0  0  0  0  0
   22.5051   12.7408    0.6867 O   0  0  0  0  0  0  0  0  0  0  0  0
   23.3862   12.7767   -1.5976 C   0  0  1  0  0  0  0  0  0  0  0  0
   23.3561   14.3185   -1.6160 C   0  0  0  0  0  0  0  0  0  0  0  0
   24.3853   14.9952   -2.5287 C   0  0  0  0  0  0  0  0  0  0  0  0
   24.6118   12.2774   -2.1788 O   0  0  0  0  0  0  0  0  0  0  0  0
  1  2  1  6  0  0  0
  1  3  1  0  0  0  0
  1  8  1  0  0  0  0
  3  4  1  0  0  0  0
  3 32  1  1  0  0  0
  4  5  1  0  0  0  0
  4 33  1  1  0  0  0
  5  6  1  6  0  0  0
  5  7  1  0  0  0  0
  7  8  1  0  0  0  0
  7  9  1  6  0  0  0
  9 10  1  0  0  0  0
 11 12  1  6  0  0  0
 11 13  1  0  0  0  0
 11 19  1  0  0  0  0
 12 35  1  0  0  0  0
 13 14  1  0  0  0  0
 14 15  1  6  0  0  0
 14 16  1  0  0  0  0
 16  2  1  1  0  0  0
 16 17  1  0  0  0  0
 17 18  1  6  0  0  0
 17 19  1  0  0  0  0
 19 20  1  1  0  0  0
 21 20  1  1  0  0  0
 21 22  1  0  0  0  0
 21 29  1  0  0  0  0
 22 23  1  1  0  0  0
 22 24  1  0  0  0  0
 24 25  1  6  0  0  0
 24 26  1  0  0  0  0
 26 27  1  1  0  0  0
 26 28  1  0  0  0  0
 28 29  1  0  0  0  0
 28 30  1  6  0  0  0
 30 31  1  0  0  0  0
 34 39  1  0  0  0  0
 35 36  2  0  0  0  0
 37 35  1  1  0  0  0
 37 38  1  0  0  0  0
 37 40  1  0  0  0  0
 38 39  1  0  0  0  0
M  END
>  <CHROM.1>
106.03930531,-55.46150441,-163.76756970,-134.09948171,112.71156177,88.68602472
-76.35823966,-139.09079341,136.00141624,-51.48586676,23.57648217,8.52463690
1.15083324,-1.30821284,-0.20691502,-0.48566880

>  <Name>
2g5q_lig

>  <RI>
224

>  <Rbt.Current_Directory>
/home/itssahil/PROJECTS/Mol_Feturizer/New_Systems/rnas/2g5q

>  <Rbt.Executable>
rbdock ($Id: //depot/dev/client3/rdock/2013.1/src/exe/rbdock.cxx#4 $)

>  <Rbt.Library>
libRbt.so (2013.1, Build901 2013/11/27)

>  <Rbt.Parameter_File>
/export/apps/rDock/src/rDock_2013.1_src/data/scripts/dock_solv.prm

>  <Rbt.Receptor>
prm/blind_docking_100.prm

>  <SCORE>
33.8593

>  <SCORE.INTER>
2.05453

>  <SCORE.INTER.CONST>
1

>  <SCORE.INTER.POLAR>
-0.968309

>  <SCORE.INTER.ROT>
10

>  <SCORE.INTER.SOLV>
29.7822

>  <SCORE.INTER.VDW>
-15.5967

>  <SCORE.INTER.norm>
0.0513634

>  <SCORE.INTRA>
16.1085

>  <SCORE.INTRA.DIHEDRAL>
8.0757

>  <SCORE.INTRA.DIHEDRAL.0>
22.5778

>  <SCORE.INTRA.POLAR>
0

>  <SCORE.INTRA.POLAR.0>
0

>  <SCORE.INTRA.REPUL>
0

>  <SCORE.INTRA.REPUL.0>
0

>  <SCORE.INTRA.SOLV>
13.2778

>  <SCORE.INTRA.SOLV.lig_0>
-102.332

>  <SCORE.INTRA.VDW>
5.43176

>  <SCORE.INTRA.VDW.0>
-5.08747

>  <SCORE.INTRA.norm>
0.402713

>  <SCORE.RESTR>
15.6963

>  <SCORE.RESTR.CAVITY>
15.6963

>  <SCORE.RESTR.norm>
0.392407

>  <SCORE.SYSTEM>
0

>  <SCORE.SYSTEM.CONST>
0

>  <SCORE.SYSTEM.DIHEDRAL>
0

>  <SCORE.SYSTEM.SOLV>
0

>  <SCORE.SYSTEM.norm>
0

>  <SCORE.heavy>
40

>  <SCORE.norm>
0.846483

>  <RMSD>
33.903

$$$$
2g5q_lig
 OpenBabel11021811433D
libRbt.so/2013.1/901 2013/11/27
 40 42  0  0  0  0  0  0  0  0999 V2000
   22.2736    3.1779   -1.8974 C   0  0  2  0  0  0  0  0  0  0  0  0
   21.7322    4.2542   -2.6309 O   0  0  0  0  0  0  0  0  0  0  0  0
   23.8152    3.1475   -2.1145 C   0  0  1  0  0  0  0  0  0  0  0  0
   24.1884    2.7958   -3.5878 C   0  0  2  0  0  0  0  0  0  0  0  0
   23.5880    1.4026   -3.9094 C   0  0  2  0  0  0  0  0  0  0  0  0
   23.9305    1.0315   -5.2546 O   0  0  0  0  0  0  0  0  0  0  0  0
   22.0188    1.4835   -3.7222 C   0  0  2  0  0  0  0  0  0  0  0  0
   21.6914    1.8776   -2.3220 O   0  0  0  0  0  0  0  0  0  0  0  0
   21.3220    0.1559   -4.0008 C   0  0  0  0  0  0  0  0  0  0  0  0
   21.8474   -0.5057   -5.2369 N   0  0  0  0  0  0  0  0  0  0  0  0
   23.1346    8.0893   -1.0811 C   0  0  2  0  0  0  0  0  0  0  0  0
   23.1359    9.4574   -0.5769 N   0  0  0  0  0  0  0  0  0  0  0  0
   22.5030    8.0412   -2.5353 C   0  0  0  0  0  0  0  0  0  0  0  0
   22.5062    6.5618   -3.0883 C   0  0  2  0  0  0  0  0  0  0  0  0
   21.9219    6.5321   -4.4564 N   0  0  0  0  0  0  0  0  0  0  0  0
   21.7028    5.6272   -2.0989 C   0  0  2  0  0  0  0  0  0  0  0  0
   22.3575    5.7048   -0.6629 C   0  0  2  0  0  0  0  0  0  0  0  0
   21.6246    4.8628    0.2326 O   0  0  0  0  0  0  0  0  0  0  0  0
   22.3300    7.1859   -0.1238 C   0  0  1  0  0  0  0  0  0  0  0  0
   22.9447    7.2566    1.1935 O   0  0  0  0  0  0  0  0  0  0  0  0
   22.8450    6.2465    2.1672 C   0  0  2  0  0  0  0  0  0  0  0  0
   23.2694    6.8730    3.5386 C   0  0  2  0  0  0  0  0  0  0  0  0
   22.4225    7.9331    3.8473 O   0  0  0  0  0  0  0  0  0  0  0  0
   24.7729    7.3433    3.5085 C   0  0  1  0  0  0  0  0  0  0  0  0
   25.1903    7.9408    4.8196 N   0  0  0  0  0  0  0  0  0  0  0  0
   25.6756    6.0973    3.1479 C   0  0  2  0  0  0  0  0  0  0  0  0
   27.0569    6.4616    3.1127 O   0  0  0  0  0  0  0  0  0  0  0  0
   25.2033    5.5207    1.7706 C   0  0  2  0  0  0  0  0  0  0  0  0
   23.7503    5.1377    1.8165 O   0  0  0  0  0  0  0  0  0  0  0  0
   25.9967    4.3099    1.3728 C   0  0  0  0  0  0  0  0  0  0  0  0
   26.1701    3.4124    2.4815 O   0  0  0  0  0  0  0  0  0  0  0  0
   24.3619    4.4553   -1.7287 O   0  0  0  0  0  0  0  0  0  0  0  0
   25.5594    2.7698   -3.7193 O   0  0  0  0  0  0  0  0  0  0  0  0
   22.5776   13.5601   -2.2975 N   0  0  0  0  0  0  0  0  0  0  0  0
   24.0167    9.9610    0.3701 C   0  0  0  0  0  0  0  0  0  0  0  0
   24.9009    9.2988    0.9019 O   0  0  0  0  0  0  0  0  0  0  0  0
   23.7478   11.4488    0.6938 C   0  0  1  0  0  0  0  0  0  0  0  0
   23.8622   12.2977   -0.5886 C   0  0  0  0  0  0  0  0  0  0  0  0
   22.6031   12.3621   -1.4608 C   0  0  0  0  0  0  0  0  0  0  0  0
   22.4330   11.5751    1.2809 O   0  0  0  0  0  0  0  0  0  0  0  0
  1  2  1  6  0  0  0
  1  3  1  0  0  0  0
  1  8  1  0  0  0  0
  3  4  1  0  0  0  0
  3 32  1  6  0  0  0
  4  5  1  0  0  0  0
  4 33  1  1  0  0  0
  5  6  1  6  0  0  0
  5  7  1  0  0  0  0
  7  8  1  0  0  0  0
  7  9  1  1  0  0  0
  9 10  1  0  0  0  0
 11 12  1  1  0  0  0
 11 13  1  0  0  0  0
 11 19  1  0  0  0  0
 12 35  1  0  0  0  0
 13 14  1  0  0  0  0
 14 15  1  6  0  0  0
 14 16  1  0  0  0  0
 16  2  1  6  0  0  0
 16 17  1  0  0  0  0
 17 18  1  1  0  0  0
 17 19  1  0  0  0  0
 19 20  1  1  0  0  0
 21 20  1  6  0  0  0
 21 22  1  0  0  0  0
 21 29  1  0  0  0  0
 22 23  1  6  0  0  0
 22 24  1  0  0  0  0
 24 25  1  1  0  0  0
 24 26  1  0  0  0  0
 26 27  1  6  0  0  0
 26 28  1  0  0  0  0
 28 29  1  0  0  0  0
 28 30  1  1  0  0  0
 30 31  1  0  0  0  0
 34 39  1  0  0  0  0
 35 36  2  0  0  0  0
 37 35  1  6  0  0  0
 37 38  1  0  0  0  0
 37 40  1  0  0  0  0
 38 39  1  0  0  0  0
M  END
>  <CHROM.1>
-84.07123293,-44.12958354,-154.15941137,121.01653364,-154.85770651,-163.81900051
44.28607533,-58.68431090,84.23247332,156.06441732,23.43909860,6.04960573
-0.55408948,1.81107011,1.16552942,-2.81190609

>  <Name>
2g5q_lig

>  <RI>
0

>  <Rbt.Current_Directory>
/home/itssahil/PROJECTS/Mol_Feturizer/New_Systems/rnas/2g5q

>  <Rbt.Executable>
rbdock ($Id: //depot/dev/client3/rdock/2013.1/src/exe/rbdock.cxx#4 $)

>  <Rbt.Library>
libRbt.so (2013.1, Build901 2013/11/27)

>  <Rbt.Parameter_File>
/export/apps/rDock/src/rDock_2013.1_src/data/scripts/dock_solv.prm

>  <Rbt.Receptor>
prm/blind_docking_40.prm

>  <SCORE>
7.43854

>  <SCORE.INTER>
-7.03458

>  <SCORE.INTER.CONST>
1

>  <SCORE.INTER.POLAR>
-1.16815

>  <SCORE.INTER.ROT>
10

>  <SCORE.INTER.SOLV>
25.1145

>  <SCORE.INTER.VDW>
-19.4341

>  <SCORE.INTER.norm>
-0.175865

>  <SCORE.INTRA>
3.75524

>  <SCORE.INTRA.DIHEDRAL>
-2.28599

>  <SCORE.INTRA.DIHEDRAL.0>
22.5778

>  <SCORE.INTRA.POLAR>
0

>  <SCORE.INTRA.POLAR.0>
0

>  <SCORE.INTRA.REPUL>
0

>  <SCORE.INTRA.REPUL.0>
0

>  <SCORE.INTRA.SOLV>
2.97305

>  <SCORE.INTRA.SOLV.lig_0>
-102.332

>  <SCORE.INTRA.VDW>
3.41171

>  <SCORE.INTRA.VDW.0>
-5.08747

>  <SCORE.INTRA.norm>
0.093881

>  <SCORE.RESTR>
10.7179

>  <SCORE.RESTR.CAVITY>
10.7179

>  <SCORE.RESTR.norm>
0.267947

>  <SCORE.SYSTEM>
0

>  <SCORE.SYSTEM.CONST>
0

>  <SCORE.SYSTEM.DIHEDRAL>
0

>  <SCORE.SYSTEM.SOLV>
0

>  <SCORE.SYSTEM.norm>
0

>  <SCORE.heavy>
40

>  <SCORE.norm>
0.185964

>  <RMSD>
33.909

$$$$
2g5q_lig
 OpenBabel11021811433D
libRbt.so/2013.1/901 2013/11/27
 40 42  0  0  0  0  0  0  0  0999 V2000
   24.7695    5.9112    3.5557 C   0  0  2  0  0  0  0  0  0  0  0  0
   25.0629    7.2800    3.3830 O   0  0  0  0  0  0  0  0  0  0  0  0
   25.9957    5.0722    3.0894 C   0  0  1  0  0  0  0  0  0  0  0  0
   26.2327    5.1930    1.5522 C   0  0  2  0  0  0  0  0  0  0  0  0
   24.9530    4.6911    0.8343 C   0  0  2  0  0  0  0  0  0  0  0  0
   25.1407    4.7651   -0.5883 O   0  0  0  0  0  0  0  0  0  0  0  0
   23.7383    5.5937    1.2969 C   0  0  2  0  0  0  0  0  0  0  0  0
   23.5707    5.5052    2.7758 O   0  0  0  0  0  0  0  0  0  0  0  0
   22.4172    5.1775    0.6589 C   0  0  0  0  0  0  0  0  0  0  0  0
   21.3513    6.2117    0.8486 N   0  0  0  0  0  0  0  0  0  0  0  0
   21.5897    9.3624    1.7466 C   0  0  2  0  0  0  0  0  0  0  0  0
   20.5177   10.3357    1.5756 N   0  0  0  0  0  0  0  0  0  0  0  0
   21.4485    8.6312    3.1471 C   0  0  0  0  0  0  0  0  0  0  0  0
   22.6039    7.5706    3.3334 C   0  0  2  0  0  0  0  0  0  0  0  0
   22.4537    6.8844    4.6451 N   0  0  0  0  0  0  0  0  0  0  0  0
   24.0055    8.2919    3.2184 C   0  0  2  0  0  0  0  0  0  0  0  0
   24.1069    9.0108    1.8149 C   0  0  2  0  0  0  0  0  0  0  0  0
   25.3741    9.6684    1.7155 O   0  0  0  0  0  0  0  0  0  0  0  0
   22.9549   10.0751    1.6562 C   0  0  1  0  0  0  0  0  0  0  0  0
   23.0433   10.7270    0.3579 O   0  0  0  0  0  0  0  0  0  0  0  0
   23.8617   10.2817   -0.6957 C   0  0  2  0  0  0  0  0  0  0  0  0
   24.8825   11.4264   -1.0132 C   0  0  2  0  0  0  0  0  0  0  0  0
   25.6470   11.6946    0.1181 O   0  0  0  0  0  0  0  0  0  0  0  0
   24.1438   12.7247   -1.5148 C   0  0  1  0  0  0  0  0  0  0  0  0
   25.1138   13.8259   -1.8260 N   0  0  0  0  0  0  0  0  0  0  0  0
   23.2932   12.3494   -2.7926 C   0  0  2  0  0  0  0  0  0  0  0  0
   22.6031   13.4934   -3.2997 O   0  0  0  0  0  0  0  0  0  0  0  0
   22.2947   11.2054   -2.4094 C   0  0  2  0  0  0  0  0  0  0  0  0
   23.0283   10.0051   -1.8793 O   0  0  0  0  0  0  0  0  0  0  0  0
   21.4688   10.7708   -3.5852 C   0  0  0  0  0  0  0  0  0  0  0  0
   22.2822   10.5904   -4.7560 O   0  0  0  0  0  0  0  0  0  0  0  0
   27.1749    5.5198    3.8426 O   0  0  0  0  0  0  0  0  0  0  0  0
   27.3173    4.4231    1.1941 O   0  0  0  0  0  0  0  0  0  0  0  0
   21.0654   12.7209    3.6457 N   0  0  0  0  0  0  0  0  0  0  0  0
   19.6454   10.7498    2.5725 C   0  0  0  0  0  0  0  0  0  0  0  0
   19.6751   10.3308    3.7244 O   0  0  0  0  0  0  0  0  0  0  0  0
   18.6184   11.7878    2.0643 C   0  0  1  0  0  0  0  0  0  0  0  0
   18.7303   13.0880    2.8860 C   0  0  0  0  0  0  0  0  0  0  0  0
   20.1419   13.6693    3.0264 C   0  0  0  0  0  0  0  0  0  0  0  0
   18.8568   12.0416    0.6614 O   0  0  0  0  0  0  0  0  0  0  0  0
  1  2  1  6  0  0  0
  1  3  1  0  0  0  0
  1  8  1  0  0  0  0
  3  4  1  0  0  0  0
  3 32  1  1  0  0  0
  4  5  1  0  0  0  0
  4 33  1  6  0  0  0
  5  6  1  6  0  0  0
  5  7  1  0  0  0  0
  7  8  1  0  0  0  0
  7  9  1  6  0  0  0
  9 10  1  0  0  0  0
 11 12  1  1  0  0  0
 11 13  1  0  0  0  0
 11 19  1  0  0  0  0
 12 35  1  0  0  0  0
 13 14  1  0  0  0  0
 14 15  1  1  0  0  0
 14 16  1  0  0  0  0
 16  2  1  6  0  0  0
 16 17  1  0  0  0  0
 17 18  1  1  0  0  0
 17 19  1  0  0  0  0
 19 20  1  6  0  0  0
 21 20  1  1  0  0  0
 21 22  1  0  0  0  0
 21 29  1  0  0  0  0
 22 23  1  1  0  0  0
 22 24  1  0  0  0  0
 24 25  1  6  0  0  0
 24 26  1  0  0  0  0
 26 27  1  1  0  0  0
 26 28  1  0  0  0  0
 28 29  1  0  0  0  0
 28 30  1  6  0  0  0
 30 31  1  0  0  0  0
 34 39  1  0  0  0  0
 35 36  2  0  0  0  0
 37 35  1  1  0  0  0
 37 38  1  0  0  0  0
 37 40  1  0  0  0  0
 38 39  1  0  0  0  0
M  END
>  <CHROM.1>
155.67015408,-166.84098244,11.01519610,2.27882324,-107.53721209,-118.73058016
45.82078491,-121.82411385,50.64620231,-58.30612566,23.05715524,9.21002808
0.98912881,0.91976308,-0.74774193,2.27895995

>  <Name>
2g5q_lig

>  <RI>
224

>  <Rbt.Current_Directory>
/home/itssahil/PROJECTS/Mol_Feturizer/New_Systems/rnas/2g5q

>  <Rbt.Executable>
rbdock ($Id: //depot/dev/client3/rdock/2013.1/src/exe/rbdock.cxx#4 $)

>  <Rbt.Library>
libRbt.so (2013.1, Build901 2013/11/27)

>  <Rbt.Parameter_File>
/export/apps/rDock/src/rDock_2013.1_src/data/scripts/dock_solv.prm

>  <Rbt.Receptor>
prm/blind_docking_100.prm

>  <SCORE>
45.7957

>  <SCORE.INTER>
7.62229

>  <SCORE.INTER.CONST>
1

>  <SCORE.INTER.POLAR>
-0.336292

>  <SCORE.INTER.ROT>
10

>  <SCORE.INTER.SOLV>
38.0192

>  <SCORE.INTER.VDW>
-16.7372

>  <SCORE.INTER.norm>
0.190557

>  <SCORE.INTRA>
22.306

>  <SCORE.INTRA.DIHEDRAL>
5.95247

>  <SCORE.INTRA.DIHEDRAL.0>
22.5778

>  <SCORE.INTRA.POLAR>
0

>  <SCORE.INTRA.POLAR.0>
0

>  <SCORE.INTRA.REPUL>
0

>  <SCORE.INTRA.REPUL.0>
0

>  <SCORE.INTRA.SOLV>
12.3289

>  <SCORE.INTRA.SOLV.lig_0>
-102.332

>  <SCORE.INTRA.VDW>
13.1653

>  <SCORE.INTRA.VDW.0>
-5.08747

>  <SCORE.INTRA.norm>
0.55765

>  <SCORE.RESTR>
15.8674

>  <SCORE.RESTR.CAVITY>
15.8674

>  <SCORE.RESTR.norm>
0.396685

>  <SCORE.SYSTEM>
0

>  <SCORE.SYSTEM.CONST>
0

>  <SCORE.SYSTEM.DIHEDRAL>
0

>  <SCORE.SYSTEM.SOLV>
0

>  <SCORE.SYSTEM.norm>
0

>  <SCORE.heavy>
40

>  <SCORE.norm>
1.14489

>  <RMSD>
33.910

$$$$
2g5q_lig
 OpenBabel11021811433D
libRbt.so/2013.1/901 2013/11/27
 40 42  0  0  0  0  0  0  0  0999 V2000
   24.0208    5.6083    2.9727 C   0  0  2  0  0  0  0  0  0  0  0  0
   24.6531    6.8653    2.8743 O   0  0  0  0  0  0  0  0  0  0  0  0
   25.0537    4.4977    2.6197 C   0  0  1  0  0  0  0  0  0  0  0  0
   25.4867    4.5607    1.1223 C   0  0  2  0  0  0  0  0  0  0  0  0
   24.2144    4.3862    0.2530 C   0  0  2  0  0  0  0  0  0  0  0  0
   24.5756    4.4154   -1.1373 O   0  0  0  0  0  0  0  0  0  0  0  0
   23.2084    5.5556    0.6056 C   0  0  2  0  0  0  0  0  0  0  0  0
   22.8567    5.5072    2.0537 O   0  0  0  0  0  0  0  0  0  0  0  0
   21.9077    5.4740   -0.1863 C   0  0  0  0  0  0  0  0  0  0  0  0
   21.0125    4.3834    0.3147 N   0  0  0  0  0  0  0  0  0  0  0  0
   21.8970   10.1437    2.0184 C   0  0  2  0  0  0  0  0  0  0  0  0
   21.1314   11.3764    2.1603 N   0  0  0  0  0  0  0  0  0  0  0  0
   21.5438    9.1400    3.1946 C   0  0  0  0  0  0  0  0  0  0  0  0
   22.3658    7.8002    3.0406 C   0  0  2  0  0  0  0  0  0  0  0  0
   22.0173    6.8635    4.1430 N   0  0  0  0  0  0  0  0  0  0  0  0
   23.9119    8.1282    3.0314 C   0  0  2  0  0  0  0  0  0  0  0  0
   24.2236    9.1320    1.8515 C   0  0  2  0  0  0  0  0  0  0  0  0
   25.6228    9.4324    1.8489 O   0  0  0  0  0  0  0  0  0  0  0  0
   23.4054   10.4671    2.0328 C   0  0  1  0  0  0  0  0  0  0  0  0
   23.6850   11.3848    0.9383 O   0  0  0  0  0  0  0  0  0  0  0  0
   24.3973   11.0356   -0.2232 C   0  0  2  0  0  0  0  0  0  0  0  0
   23.9917   12.0503   -1.3453 C   0  0  2  0  0  0  0  0  0  0  0  0
   24.3171   13.3422   -0.9436 O   0  0  0  0  0  0  0  0  0  0  0  0
   22.4581   11.9364   -1.6884 C   0  0  1  0  0  0  0  0  0  0  0  0
   22.0606   12.9015   -2.7658 N   0  0  0  0  0  0  0  0  0  0  0  0
   22.1573   10.4490   -2.1295 C   0  0  2  0  0  0  0  0  0  0  0  0
   20.7771   10.2850   -2.4618 O   0  0  0  0  0  0  0  0  0  0  0  0
   22.5816    9.4883   -0.9678 C   0  0  2  0  0  0  0  0  0  0  0  0
   24.0348    9.6651   -0.6261 O   0  0  0  0  0  0  0  0  0  0  0  0
   22.3542    8.0482   -1.3258 C   0  0  0  0  0  0  0  0  0  0  0  0
   23.5391    7.4556   -1.8823 O   0  0  0  0  0  0  0  0  0  0  0  0
   26.2120    4.6440    3.5113 O   0  0  0  0  0  0  0  0  0  0  0  0
   26.3875    3.5513    0.8631 O   0  0  0  0  0  0  0  0  0  0  0  0
   19.9376   15.5443    5.3122 N   0  0  0  0  0  0  0  0  0  0  0  0
   21.4579   12.5935    1.5788 C   0  0  0  0  0  0  0  0  0  0  0  0
   22.4465   12.7720    0.8758 O   0  0  0  0  0  0  0  0  0  0  0  0
   20.4439   13.7064    1.9303 C   0  0  1  0  0  0  0  0  0  0  0  0
   20.4954   14.0103    3.4413 C   0  0  0  0  0  0  0  0  0  0  0  0
   19.7033   15.2393    3.9022 C   0  0  0  0  0  0  0  0  0  0  0  0
   20.7502   14.8876    1.1555 O   0  0  0  0  0  0  0  0  0  0  0  0
  1  2  1  6  0  0  0
  1  3  1  0  0  0  0
  1  8  1  0  0  0  0
  3  4  1  0  0  0  0
  3 32  1  1  0  0  0
  4  5  1  0  0  0  0
  4 33  1  6  0  0  0
  5  6  1  6  0  0  0
  5  7  1  0  0  0  0
  7  8  1  0  0  0  0
  7  9  1  6  0  0  0
  9 10  1  0  0  0  0
 11 12  1  1  0  0  0
 11 13  1  0  0  0  0
 11 19  1  0  0  0  0
 12 35  1  0  0  0  0
 13 14  1  0  0  0  0
 14 15  1  1  0  0  0
 14 16  1  0  0  0  0
 16  2  1  6  0  0  0
 16 17  1  0  0  0  0
 17 18  1  1  0  0  0
 17 19  1  0  0  0  0
 19 20  1  6  0  0  0
 21 20  1  1  0  0  0
 21 22  1  0  0  0  0
 21 29  1  0  0  0  0
 22 23  1  1  0  0  0
 22 24  1  0  0  0  0
 24 25  1  6  0  0  0
 24 26  1  0  0  0  0
 26 27  1  1  0  0  0
 26 28  1  0  0  0  0
 28 29  1  0  0  0  0
 28 30  1  6  0  0  0
 30 31  1  0  0  0  0
 34 39  1  0  0  0  0
 35 36  2  0  0  0  0
 37 35  1  1  0  0  0
 37 38  1  0  0  0  0
 37 40  1  0  0  0  0
 38 39  1  0  0  0  0
M  END
>  <CHROM.1>
174.48433162,74.47113137,159.66095312,-10.31062708,-109.29015569,157.49037760
93.61749351,65.45215503,170.88899321,-173.11375533,22.96644249,9.20167038
1.02721449,0.32087357,-1.21512076,1.93596796

>  <Name>
2g5q_lig

>  <RI>
224

>  <Rbt.Current_Directory>
/home/itssahil/PROJECTS/Mol_Feturizer/New_Systems/rnas/2g5q

>  <Rbt.Executable>
rbdock ($Id: //depot/dev/client3/rdock/2013.1/src/exe/rbdock.cxx#4 $)

>  <Rbt.Library>
libRbt.so (2013.1, Build901 2013/11/27)

>  <Rbt.Parameter_File>
/export/apps/rDock/src/rDock_2013.1_src/data/scripts/dock_solv.prm

>  <Rbt.Receptor>
prm/blind_docking_60.prm

>  <SCORE>
49.6359

>  <SCORE.INTER>
4.44046

>  <SCORE.INTER.CONST>
1

>  <SCORE.INTER.POLAR>
-0.653181

>  <SCORE.INTER.ROT>
10

>  <SCORE.INTER.SOLV>
27.9753

>  <SCORE.INTER.VDW>
-14.4542

>  <SCORE.INTER.norm>
0.111011

>  <SCORE.INTRA>
27.142

>  <SCORE.INTRA.DIHEDRAL>
-1.3831

>  <SCORE.INTRA.DIHEDRAL.0>
22.5778

>  <SCORE.INTRA.POLAR>
0

>  <SCORE.INTRA.POLAR.0>
0

>  <SCORE.INTRA.REPUL>
0

>  <SCORE.INTRA.REPUL.0>
0

>  <SCORE.INTRA.SOLV>
6.59243

>  <SCORE.INTRA.SOLV.lig_0>
-102.332

>  <SCORE.INTRA.VDW>
24.5374

>  <SCORE.INTRA.VDW.0>
-5.08747

>  <SCORE.INTRA.norm>
0.678551

>  <SCORE.RESTR>
18.0534

>  <SCORE.RESTR.CAVITY>
18.0534

>  <SCORE.RESTR.norm>
0.451336

>  <SCORE.SYSTEM>
0

>  <SCORE.SYSTEM.CONST>
0

>  <SCORE.SYSTEM.DIHEDRAL>
0

>  <SCORE.SYSTEM.SOLV>
0

>  <SCORE.SYSTEM.norm>
0

>  <SCORE.heavy>
40

>  <SCORE.norm>
1.2409

>  <RMSD>
33.934

$$$$
2g5q_lig
 OpenBabel11021811433D
libRbt.so/2013.1/901 2013/11/27
 40 42  0  0  0  0  0  0  0  0999 V2000
   22.8861    3.3625   -3.7884 C   0  0  2  0  0  0  0  0  0  0  0  0
   23.4405    3.9743   -2.6447 O   0  0  0  0  0  0  0  0  0  0  0  0
   21.8252    2.3171   -3.3341 C   0  0  1  0  0  0  0  0  0  0  0  0
   22.4758    1.1212   -2.5723 C   0  0  2  0  0  0  0  0  0  0  0  0
   23.4958    0.4491   -3.5277 C   0  0  2  0  0  0  0  0  0  0  0  0
   24.1017   -0.6748   -2.8688 O   0  0  0  0  0  0  0  0  0  0  0  0
   24.5818    1.5268   -3.9318 C   0  0  2  0  0  0  0  0  0  0  0  0
   23.9264    2.6841   -4.6055 O   0  0  0  0  0  0  0  0  0  0  0  0
   25.6342    0.9745   -4.8873 C   0  0  0  0  0  0  0  0  0  0  0  0
   26.5234   -0.0307   -4.2234 N   0  0  0  0  0  0  0  0  0  0  0  0
   23.2506    8.0139   -0.9946 C   0  0  2  0  0  0  0  0  0  0  0  0
   22.7233    9.2593   -0.4499 N   0  0  0  0  0  0  0  0  0  0  0  0
   22.6595    7.7551   -2.4436 C   0  0  0  0  0  0  0  0  0  0  0  0
   23.2338    6.4103   -3.0404 C   0  0  2  0  0  0  0  0  0  0  0  0
   22.6807    6.1850   -4.4033 N   0  0  0  0  0  0  0  0  0  0  0  0
   22.8836    5.2115   -2.0718 C   0  0  2  0  0  0  0  0  0  0  0  0
   23.4840    5.5069   -0.6403 C   0  0  2  0  0  0  0  0  0  0  0  0
   23.1603    4.4233    0.2366 O   0  0  0  0  0  0  0  0  0  0  0  0
   22.8864    6.8440   -0.0571 C   0  0  1  0  0  0  0  0  0  0  0  0
   23.4503    7.1201    1.2559 O   0  0  0  0  0  0  0  0  0  0  0  0
   23.1439    6.3881    2.4172 C   0  0  2  0  0  0  0  0  0  0  0  0
   23.2832    7.3618    3.6362 C   0  0  2  0  0  0  0  0  0  0  0  0
   22.4004    8.4266    3.4839 O   0  0  0  0  0  0  0  0  0  0  0  0
   24.7650    7.8756    3.7877 C   0  0  1  0  0  0  0  0  0  0  0  0
   24.9097    8.8057    4.9558 N   0  0  0  0  0  0  0  0  0  0  0  0
   25.7114    6.6206    3.9501 C   0  0  2  0  0  0  0  0  0  0  0  0
   27.0738    7.0253    4.0997 O   0  0  0  0  0  0  0  0  0  0  0  0
   25.5268    5.6914    2.7030 C   0  0  2  0  0  0  0  0  0  0  0  0
   24.0921    5.2682    2.5541 O   0  0  0  0  0  0  0  0  0  0  0  0
   26.3743    4.4561    2.7994 C   0  0  0  0  0  0  0  0  0  0  0  0
   26.2970    3.6751    1.5957 O   0  0  0  0  0  0  0  0  0  0  0  0
   20.8327    3.0012   -2.4944 O   0  0  0  0  0  0  0  0  0  0  0  0
   21.4968    0.2238   -2.2068 O   0  0  0  0  0  0  0  0  0  0  0  0
   22.0658   12.5190   -2.9137 N   0  0  0  0  0  0  0  0  0  0  0  0
   23.4384   10.1597    0.3273 C   0  0  0  0  0  0  0  0  0  0  0  0
   24.6096   10.0017    0.6536 O   0  0  0  0  0  0  0  0  0  0  0  0
   22.5875   11.3789    0.7515 C   0  0  1  0  0  0  0  0  0  0  0  0
   21.9252   12.0175   -0.4861 C   0  0  0  0  0  0  0  0  0  0  0  0
   22.8298   12.1928   -1.7113 C   0  0  0  0  0  0  0  0  0  0  0  0
   21.5911   10.9510    1.7072 O   0  0  0  0  0  0  0  0  0  0  0  0
  1  2  1  1  0  0  0
  1  3  1  0  0  0  0
  1  8  1  0  0  0  0
  3  4  1  0  0  0  0
  3 32  1  1  0  0  0
  4  5  1  0  0  0  0
  4 33  1  6  0  0  0
  5  6  1  1  0  0  0
  5  7  1  0  0  0  0
  7  8  1  0  0  0  0
  7  9  1  6  0  0  0
  9 10  1  0  0  0  0
 11 12  1  1  0  0  0
 11 13  1  0  0  0  0
 11 19  1  0  0  0  0
 12 35  1  0  0  0  0
 13 14  1  0  0  0  0
 14 15  1  6  0  0  0
 14 16  1  0  0  0  0
 16  2  1  6  0  0  0
 16 17  1  0  0  0  0
 17 18  1  1  0  0  0
 17 19  1  0  0  0  0
 19 20  1  1  0  0  0
 21 20  1  6  0  0  0
 21 22  1  0  0  0  0
 21 29  1  0  0  0  0
 22 23  1  6  0  0  0
 22 24  1  0  0  0  0
 24 25  1  1  0  0  0
 24 26  1  0  0  0  0
 26 27  1  6  0  0  0
 26 28  1  0  0  0  0
 28 29  1  0  0  0  0
 28 30  1  1  0  0  0
 30 31  1  0  0  0  0
 34 39  1  0  0  0  0
 35 36  2  0  0  0  0
 37 35  1  6  0  0  0
 37 38  1  0  0  0  0
 37 40  1  0  0  0  0
 38 39  1  0  0  0  0
M  END
>  <CHROM.1>
-91.54535777,-68.87503276,-142.72981200,-72.02388087,169.26377899,-150.38128772
-174.41198188,-52.14794615,-44.51694815,167.25358460,23.60856096,5.87428264
-0.46460001,1.51868899,1.13463515,-2.54822298

>  <Name>
2g5q_lig

>  <RI>
0

>  <Rbt.Current_Directory>
/home/itssahil/PROJECTS/Mol_Feturizer/New_Systems/rnas/2g5q

>  <Rbt.Executable>
rbdock ($Id: //depot/dev/client3/rdock/2013.1/src/exe/rbdock.cxx#4 $)

>  <Rbt.Library>
libRbt.so (2013.1, Build901 2013/11/27)

>  <Rbt.Parameter_File>
/export/apps/rDock/src/rDock_2013.1_src/data/scripts/dock_solv.prm

>  <Rbt.Receptor>
prm/blind_docking_40.prm

>  <SCORE>
-1.49195

>  <SCORE.INTER>
-8.81731

>  <SCORE.INTER.CONST>
1

>  <SCORE.INTER.POLAR>
-0.397396

>  <SCORE.INTER.ROT>
10

>  <SCORE.INTER.SOLV>
25.2245

>  <SCORE.INTER.VDW>
-23.2284

>  <SCORE.INTER.norm>
-0.220433

>  <SCORE.INTRA>
-3.83411

>  <SCORE.INTRA.DIHEDRAL>
-10.4166

>  <SCORE.INTRA.DIHEDRAL.0>
22.5778

>  <SCORE.INTRA.POLAR>
0

>  <SCORE.INTRA.POLAR.0>
0

>  <SCORE.INTRA.REPUL>
0

>  <SCORE.INTRA.REPUL.0>
0

>  <SCORE.INTRA.SOLV>
2.65737

>  <SCORE.INTRA.SOLV.lig_0>
-102.332

>  <SCORE.INTRA.VDW>
0.0454819

>  <SCORE.INTRA.VDW.0>
-5.08747

>  <SCORE.INTRA.norm>
-0.0958528

>  <SCORE.RESTR>
11.1595

>  <SCORE.RESTR.CAVITY>
11.1595

>  <SCORE.RESTR.norm>
0.278987

>  <SCORE.SYSTEM>
0

>  <SCORE.SYSTEM.CONST>
0

>  <SCORE.SYSTEM.DIHEDRAL>
0

>  <SCORE.SYSTEM.SOLV>
0

>  <SCORE.SYSTEM.norm>
0

>  <SCORE.heavy>
40

>  <SCORE.norm>
-0.0372986

>  <RMSD>
33.942

$$$$
2g5q_lig
 OpenBabel11021811433D
libRbt.so/2013.1/901 2013/11/27
 40 42  0  0  0  0  0  0  0  0999 V2000
   23.6861    6.2632    3.3776 C   0  0  2  0  0  0  0  0  0  0  0  0
   24.2561    7.5422    3.2081 O   0  0  0  0  0  0  0  0  0  0  0  0
   24.7149    5.3473    4.1038 C   0  0  1  0  0  0  0  0  0  0  0  0
   25.9674    5.0629    3.2183 C   0  0  2  0  0  0  0  0  0  0  0  0
   25.4815    4.3734    1.9171 C   0  0  2  0  0  0  0  0  0  0  0  0
   26.6117    4.0733    1.0823 O   0  0  0  0  0  0  0  0  0  0  0  0
   24.4746    5.3499    1.1844 C   0  0  2  0  0  0  0  0  0  0  0  0
   23.3168    5.6509    2.0742 O   0  0  0  0  0  0  0  0  0  0  0  0
   23.9197    4.7633   -0.1093 C   0  0  0  0  0  0  0  0  0  0  0  0
   22.6442    4.0123    0.1161 N   0  0  0  0  0  0  0  0  0  0  0  0
   23.3705   10.9675    0.6467 C   0  0  2  0  0  0  0  0  0  0  0  0
   23.1731   11.7877   -0.5425 N   0  0  0  0  0  0  0  0  0  0  0  0
   24.8565   10.4148    0.6916 C   0  0  0  0  0  0  0  0  0  0  0  0
   25.0768    9.5315    1.9822 C   0  0  2  0  0  0  0  0  0  0  0  0
   26.4768    9.0288    2.0180 N   0  0  0  0  0  0  0  0  0  0  0  0
   24.0373    8.3410    1.9902 C   0  0  2  0  0  0  0  0  0  0  0  0
   22.5717    8.9296    1.9405 C   0  0  2  0  0  0  0  0  0  0  0  0
   21.6326    7.8498    1.9414 O   0  0  0  0  0  0  0  0  0  0  0  0
   22.3688    9.7942    0.6381 C   0  0  1  0  0  0  0  0  0  0  0  0
   21.0222   10.3452    0.6010 O   0  0  0  0  0  0  0  0  0  0  0  0
   20.7309   11.7211    0.6115 C   0  0  2  0  0  0  0  0  0  0  0  0
   20.8410   12.2130    2.0945 C   0  0  2  0  0  0  0  0  0  0  0  0
   22.1302   11.9839    2.5657 O   0  0  0  0  0  0  0  0  0  0  0  0
   19.7722   11.5043    3.0100 C   0  0  1  0  0  0  0  0  0  0  0  0
   19.8667   11.9724    4.4320 N   0  0  0  0  0  0  0  0  0  0  0  0
   18.3373   11.7990    2.4172 C   0  0  2  0  0  0  0  0  0  0  0  0
   17.3211   11.1855    3.2128 O   0  0  0  0  0  0  0  0  0  0  0  0
   18.2923   11.2836    0.9390 C   0  0  2  0  0  0  0  0  0  0  0  0
   19.3623   11.9354    0.1083 O   0  0  0  0  0  0  0  0  0  0  0  0
   16.9643   11.5572    0.2947 C   0  0  0  0  0  0  0  0  0  0  0  0
   16.7104   10.6439   -0.7853 O   0  0  0  0  0  0  0  0  0  0  0  0
   25.0965    5.9925    5.3672 O   0  0  0  0  0  0  0  0  0  0  0  0
   26.8349    4.2403    3.9025 O   0  0  0  0  0  0  0  0  0  0  0  0
   22.1232   10.7172   -2.9243 N   0  0  0  0  0  0  0  0  0  0  0  0
   24.1713   12.4833   -1.2102 C   0  0  0  0  0  0  0  0  0  0  0  0
   25.3475   12.4917   -0.8643 O   0  0  0  0  0  0  0  0  0  0  0  0
   23.6315   13.2626   -2.4317 C   0  0  1  0  0  0  0  0  0  0  0  0
   23.7665   12.4059   -3.7068 C   0  0  0  0  0  0  0  0  0  0  0  0
   22.5548   11.5343   -4.0566 C   0  0  0  0  0  0  0  0  0  0  0  0
   22.2513   13.6193   -2.1931 O   0  0  0  0  0  0  0  0  0  0  0  0
  1  2  1  6  0  0  0
  1  3  1  0  0  0  0
  1  8  1  0  0  0  0
  3  4  1  0  0  0  0
  3 32  1  1  0  0  0
  4  5  1  0  0  0  0
  4 33  1  1  0  0  0
  5  6  1  6  0  0  0
  5  7  1  0  0  0  0
  7  8  1  0  0  0  0
  7  9  1  6  0  0  0
  9 10  1  0  0  0  0
 11 12  1  6  0  0  0
 11 13  1  0  0  0  0
 11 19  1  0  0  0  0
 12 35  1  0  0  0  0
 13 14  1  0  0  0  0
 14 15  1  6  0  0  0
 14 16  1  0  0  0  0
 16  2  1  1  0  0  0
 16 17  1  0  0  0  0
 17 18  1  6  0  0  0
 17 19  1  0  0  0  0
 19 20  1  1  0  0  0
 21 20  1  1  0  0  0
 21 22  1  0  0  0  0
 21 29  1  0  0  0  0
 22 23  1  1  0  0  0
 22 24  1  0  0  0  0
 24 25  1  1  0  0  0
 24 26  1  0  0  0  0
 26 27  1  1  0  0  0
 26 28  1  0  0  0  0
 28 29  1  0  0  0  0
 28 30  1  6  0  0  0
 30 31  1  0  0  0  0
 34 39  1  0  0  0  0
 35 36  2  0  0  0  0
 37 35  1  1  0  0  0
 37 38  1  0  0  0  0
 37 40  1  0  0  0  0
 38 39  1  0  0  0  0
M  END
>  <CHROM.1>
141.94576157,91.18196002,-26.60839480,-166.56006626,-1.65129035,-79.88185851
-155.75015220,-93.40355900,91.38131237,-51.56085749,22.62822200,9.33122488
1.08296486,0.88370541,-0.47178544,2.40287624

>  <Name>
2g5q_lig

>  <RI>
224

>  <Rbt.Current_Directory>
/home/itssahil/PROJECTS/Mol_Feturizer/New_Systems/rnas/2g5q

>  <Rbt.Executable>
rbdock ($Id: //depot/dev/client3/rdock/2013.1/src/exe/rbdock.cxx#4 $)

>  <Rbt.Library>
libRbt.so (2013.1, Build901 2013/11/27)

>  <Rbt.Parameter_File>
/export/apps/rDock/src/rDock_2013.1_src/data/scripts/dock_solv.prm

>  <Rbt.Receptor>
prm/blind_docking_100.prm

>  <SCORE>
25.3812

>  <SCORE.INTER>
-8.77702

>  <SCORE.INTER.CONST>
1

>  <SCORE.INTER.POLAR>
-0.836386

>  <SCORE.INTER.ROT>
10

>  <SCORE.INTER.SOLV>
32.5388

>  <SCORE.INTER.VDW>
-24.1763

>  <SCORE.INTER.norm>
-0.219425

>  <SCORE.INTRA>
11.3247

>  <SCORE.INTRA.DIHEDRAL>
2.47443

>  <SCORE.INTRA.DIHEDRAL.0>
22.5778

>  <SCORE.INTRA.POLAR>
0

>  <SCORE.INTRA.POLAR.0>
0

>  <SCORE.INTRA.REPUL>
0.0211857

>  <SCORE.INTRA.REPUL.0>
0

>  <SCORE.INTRA.SOLV>
7.1276

>  <SCORE.INTRA.SOLV.lig_0>
-102.332

>  <SCORE.INTRA.VDW>
6.41777

>  <SCORE.INTRA.VDW.0>
-5.08747

>  <SCORE.INTRA.norm>
0.283118

>  <SCORE.RESTR>
22.8335

>  <SCORE.RESTR.CAVITY>
22.8335

>  <SCORE.RESTR.norm>
0.570836

>  <SCORE.SYSTEM>
0

>  <SCORE.SYSTEM.CONST>
0

>  <SCORE.SYSTEM.DIHEDRAL>
0

>  <SCORE.SYSTEM.SOLV>
0

>  <SCORE.SYSTEM.norm>
0

>  <SCORE.heavy>
40

>  <SCORE.norm>
0.634529

>  <RMSD>
33.948

$$$$
2g5q_lig
 OpenBabel11021811433D
libRbt.so/2013.1/901 2013/11/27
 40 42  0  0  0  0  0  0  0  0999 V2000
   23.8526    6.1075    4.0164 C   0  0  2  0  0  0  0  0  0  0  0  0
   24.2293    7.4627    3.9117 O   0  0  0  0  0  0  0  0  0  0  0  0
   25.0853    5.2783    4.4827 C   0  0  1  0  0  0  0  0  0  0  0  0
   26.2106    5.2512    3.4025 C   0  0  2  0  0  0  0  0  0  0  0  0
   25.6164    4.6245    2.1144 C   0  0  2  0  0  0  0  0  0  0  0  0
   26.6316    4.5604    1.0997 O   0  0  0  0  0  0  0  0  0  0  0  0
   24.3968    5.5170    1.6455 C   0  0  2  0  0  0  0  0  0  0  0  0
   23.3630    5.5732    2.7183 O   0  0  0  0  0  0  0  0  0  0  0  0
   23.7237    4.9818    0.3861 C   0  0  0  0  0  0  0  0  0  0  0  0
   22.3111    5.4611    0.2572 N   0  0  0  0  0  0  0  0  0  0  0  0
   23.5428   10.9469    1.3687 C   0  0  2  0  0  0  0  0  0  0  0  0
   23.2797   11.7672    0.1924 N   0  0  0  0  0  0  0  0  0  0  0  0
   24.8723   10.1062    1.1651 C   0  0  0  0  0  0  0  0  0  0  0  0
   25.1650    9.2214    2.4402 C   0  0  2  0  0  0  0  0  0  0  0  0
   26.4198    8.4468    2.2410 N   0  0  0  0  0  0  0  0  0  0  0  0
   23.9359    8.2658    2.7125 C   0  0  2  0  0  0  0  0  0  0  0  0
   22.6321    9.1375    2.9054 C   0  0  2  0  0  0  0  0  0  0  0  0
   21.5195    8.2700    3.1455 O   0  0  0  0  0  0  0  0  0  0  0  0
   22.3501   10.0003    1.6166 C   0  0  1  0  0  0  0  0  0  0  0  0
   21.1558   10.8113    1.8017 O   0  0  0  0  0  0  0  0  0  0  0  0
   19.9827   10.6763    1.0376 C   0  0  2  0  0  0  0  0  0  0  0  0
   19.4196    9.2371    1.2922 C   0  0  2  0  0  0  0  0  0  0  0  0
   19.1402    9.0800    2.6463 O   0  0  0  0  0  0  0  0  0  0  0  0
   20.4289    8.1346    0.7936 C   0  0  1  0  0  0  0  0  0  0  0  0
   19.8964    6.7521    1.0290 N   0  0  0  0  0  0  0  0  0  0  0  0
   20.7060    8.3741   -0.7437 C   0  0  2  0  0  0  0  0  0  0  0  0
   21.6130    7.3961   -1.2567 O   0  0  0  0  0  0  0  0  0  0  0  0
   21.2670    9.8244   -0.9298 C   0  0  2  0  0  0  0  0  0  0  0  0
   20.3064   10.8470   -0.3901 O   0  0  0  0  0  0  0  0  0  0  0  0
   21.5269   10.1391   -2.3744 C   0  0  0  0  0  0  0  0  0  0  0  0
   22.8899   10.5436   -2.5832 O   0  0  0  0  0  0  0  0  0  0  0  0
   25.5768    5.8505    5.7433 O   0  0  0  0  0  0  0  0  0  0  0  0
   27.2673    4.4957    3.8607 O   0  0  0  0  0  0  0  0  0  0  0  0
   24.0375   15.0034   -4.1940 N   0  0  0  0  0  0  0  0  0  0  0  0
   24.2470   12.2659   -0.6688 C   0  0  0  0  0  0  0  0  0  0  0  0
   25.4501   12.0753   -0.5296 O   0  0  0  0  0  0  0  0  0  0  0  0
   23.6393   13.1051   -1.8164 C   0  0  1  0  0  0  0  0  0  0  0  0
   24.3479   12.7743   -3.1456 C   0  0  0  0  0  0  0  0  0  0  0  0
   23.8701   13.5624   -4.3707 C   0  0  0  0  0  0  0  0  0  0  0  0
   22.2228   12.8309   -1.9043 O   0  0  0  0  0  0  0  0  0  0  0  0
  1  2  1  6  0  0  0
  1  3  1  0  0  0  0
  1  8  1  0  0  0  0
  3  4  1  0  0  0  0
  3 32  1  1  0  0  0
  4  5  1  0  0  0  0
  4 33  1  1  0  0  0
  5  6  1  6  0  0  0
  5  7  1  0  0  0  0
  7  8  1  0  0  0  0
  7  9  1  6  0  0  0
  9 10  1  0  0  0  0
 11 12  1  6  0  0  0
 11 13  1  0  0  0  0
 11 19  1  0  0  0  0
 12 35  1  0  0  0  0
 13 14  1  0  0  0  0
 14 15  1  6  0  0  0
 14 16  1  0  0  0  0
 16  2  1  1  0  0  0
 16 17  1  0  0  0  0
 17 18  1  6  0  0  0
 17 19  1  0  0  0  0
 19 20  1  1  0  0  0
 21 20  1  1  0  0  0
 21 22  1  0  0  0  0
 21 29  1  0  0  0  0
 22 23  1  1  0  0  0
 22 24  1  0  0  0  0
 24 25  1  6  0  0  0
 24 26  1  0  0  0  0
 26 27  1  1  0  0  0
 26 28  1  0  0  0  0
 28 29  1  0  0  0  0
 28 30  1  6  0  0  0
 30 31  1  0  0  0  0
 34 39  1  0  0  0  0
 35 36  2  0  0  0  0
 37 35  1  1  0  0  0
 37 38  1  0  0  0  0
 37 40  1  0  0  0  0
 38 39  1  0  0  0  0
M  END
>  <CHROM.1>
130.48382251,157.21407971,-28.56751138,-142.04742128,124.10552110,62.47742512
-123.93519376,-138.18810842,-178.50039461,59.30330648,23.20391997,8.85227619
0.88561550,1.31930445,-0.02841809,2.47277607

>  <Name>
2g5q_lig

>  <RI>
224

>  <Rbt.Current_Directory>
/home/itssahil/PROJECTS/Mol_Feturizer/New_Systems/rnas/2g5q

>  <Rbt.Executable>
rbdock ($Id: //depot/dev/client3/rdock/2013.1/src/exe/rbdock.cxx#4 $)

>  <Rbt.Library>
libRbt.so (2013.1, Build901 2013/11/27)

>  <Rbt.Parameter_File>
/export/apps/rDock/src/rDock_2013.1_src/data/scripts/dock_solv.prm

>  <Rbt.Receptor>
prm/blind_docking_100.prm

>  <SCORE>
30.0052

>  <SCORE.INTER>
-1.83352

>  <SCORE.INTER.CONST>
1

>  <SCORE.INTER.POLAR>
-0.534986

>  <SCORE.INTER.ROT>
10

>  <SCORE.INTER.SOLV>
24.4893

>  <SCORE.INTER.VDW>
-17.8688

>  <SCORE.INTER.norm>
-0.0458381

>  <SCORE.INTRA>
15.6233

>  <SCORE.INTRA.DIHEDRAL>
5.93163

>  <SCORE.INTRA.DIHEDRAL.0>
22.5778

>  <SCORE.INTRA.POLAR>
0

>  <SCORE.INTRA.POLAR.0>
0

>  <SCORE.INTRA.REPUL>
0

>  <SCORE.INTRA.REPUL.0>
0

>  <SCORE.INTRA.SOLV>
14.099

>  <SCORE.INTRA.SOLV.lig_0>
-102.332

>  <SCORE.INTRA.VDW>
5.60799

>  <SCORE.INTRA.VDW.0>
-5.08747

>  <SCORE.INTRA.norm>
0.390582

>  <SCORE.RESTR>
16.2154

>  <SCORE.RESTR.CAVITY>
16.2154

>  <SCORE.RESTR.norm>
0.405385

>  <SCORE.SYSTEM>
0

>  <SCORE.SYSTEM.CONST>
0

>  <SCORE.SYSTEM.DIHEDRAL>
0

>  <SCORE.SYSTEM.SOLV>
0

>  <SCORE.SYSTEM.norm>
0

>  <SCORE.heavy>
40

>  <SCORE.norm>
0.750129

>  <RMSD>
33.958

$$$$
2g5q_lig
 OpenBabel11021811433D
libRbt.so/2013.1/901 2013/11/27
 40 42  0  0  0  0  0  0  0  0999 V2000
   21.8144    3.7443   -2.9971 C   0  0  2  0  0  0  0  0  0  0  0  0
   22.7088    4.3080   -2.0634 O   0  0  0  0  0  0  0  0  0  0  0  0
   21.3158    2.3740   -2.4505 C   0  0  1  0  0  0  0  0  0  0  0  0
   22.4657    1.3221   -2.3812 C   0  0  2  0  0  0  0  0  0  0  0  0
   23.0283    1.1393   -3.8147 C   0  0  2  0  0  0  0  0  0  0  0  0
   24.0775    0.1579   -3.7968 O   0  0  0  0  0  0  0  0  0  0  0  0
   23.5657    2.5396   -4.3191 C   0  0  2  0  0  0  0  0  0  0  0  0
   22.4604    3.5402   -4.3204 O   0  0  0  0  0  0  0  0  0  0  0  0
   24.1328    2.4794   -5.7334 C   0  0  0  0  0  0  0  0  0  0  0  0
   24.4931    3.8368   -6.2524 N   0  0  0  0  0  0  0  0  0  0  0  0
   23.6176    8.3547   -0.6939 C   0  0  2  0  0  0  0  0  0  0  0  0
   23.4498    9.7068   -0.1748 N   0  0  0  0  0  0  0  0  0  0  0  0
   22.7838    8.1730   -2.0310 C   0  0  0  0  0  0  0  0  0  0  0  0
   22.9685    6.7116   -2.6008 C   0  0  2  0  0  0  0  0  0  0  0  0
   22.1909    6.5578   -3.8600 N   0  0  0  0  0  0  0  0  0  0  0  0
   22.5147    5.6598   -1.5119 C   0  0  2  0  0  0  0  0  0  0  0  0
   23.3627    5.8744   -0.1960 C   0  0  2  0  0  0  0  0  0  0  0  0
   22.9457    4.9252    0.7905 O   0  0  0  0  0  0  0  0  0  0  0  0
   23.1519    7.3329    0.3639 C   0  0  1  0  0  0  0  0  0  0  0  0
   23.9436    7.5318    1.5689 O   0  0  0  0  0  0  0  0  0  0  0  0
   23.6278    6.9774    2.8223 C   0  0  2  0  0  0  0  0  0  0  0  0
   24.2740    7.8927    3.9167 C   0  0  2  0  0  0  0  0  0  0  0  0
   23.7582    9.1807    3.8094 O   0  0  0  0  0  0  0  0  0  0  0  0
   25.8449    7.9030    3.7951 C   0  0  1  0  0  0  0  0  0  0  0  0
   26.4737    8.7737    4.8424 N   0  0  0  0  0  0  0  0  0  0  0  0
   26.3621    6.4149    3.9192 C   0  0  2  0  0  0  0  0  0  0  0  0
   27.7869    6.3606    3.8234 O   0  0  0  0  0  0  0  0  0  0  0  0
   25.6827    5.5554    2.8001 C   0  0  2  0  0  0  0  0  0  0  0  0
   24.1846    5.6156    2.9092 O   0  0  0  0  0  0  0  0  0  0  0  0
   26.1023    4.1158    2.8726 C   0  0  0  0  0  0  0  0  0  0  0  0
   26.2343    3.5441    1.5609 O   0  0  0  0  0  0  0  0  0  0  0  0
   20.7205    2.5942   -1.1257 O   0  0  0  0  0  0  0  0  0  0  0  0
   21.9674    0.1294   -1.9052 O   0  0  0  0  0  0  0  0  0  0  0  0
   24.4099   11.8940   -1.4623 N   0  0  0  0  0  0  0  0  0  0  0  0
   22.3870   10.1386    0.6064 C   0  0  0  0  0  0  0  0  0  0  0  0
   21.4524    9.4213    0.9460 O   0  0  0  0  0  0  0  0  0  0  0  0
   22.5036   11.6324    0.9878 C   0  0  1  0  0  0  0  0  0  0  0  0
   22.3246   12.5132   -0.2653 C   0  0  0  0  0  0  0  0  0  0  0  0
   23.6180   13.0004   -0.9288 C   0  0  0  0  0  0  0  0  0  0  0  0
   21.5057   11.9453    1.9856 O   0  0  0  0  0  0  0  0  0  0  0  0
  1  2  1  1  0  0  0
  1  3  1  0  0  0  0
  1  8  1  0  0  0  0
  3  4  1  0  0  0  0
  3 32  1  1  0  0  0
  4  5  1  0  0  0  0
  4 33  1  6  0  0  0
  5  6  1  1  0  0  0
  5  7  1  0  0  0  0
  7  8  1  0  0  0  0
  7  9  1  6  0  0  0
  9 10  1  0  0  0  0
 11 12  1  1  0  0  0
 11 13  1  0  0  0  0
 11 19  1  0  0  0  0
 12 35  1  0  0  0  0
 13 14  1  0  0  0  0
 14 15  1  6  0  0  0
 14 16  1  0  0  0  0
 16  2  1  6  0  0  0
 16 17  1  0  0  0  0
 17 18  1  1  0  0  0
 17 19  1  0  0  0  0
 19 20  1  1  0  0  0
 21 20  1  6  0  0  0
 21 22  1  0  0  0  0
 21 29  1  0  0  0  0
 22 23  1  6  0  0  0
 22 24  1  0  0  0  0
 24 25  1  1  0  0  0
 24 26  1  0  0  0  0
 26 27  1  6  0  0  0
 26 28  1  0  0  0  0
 28 29  1  0  0  0  0
 28 30  1  1  0  0  0
 30 31  1  0  0  0  0
 34 39  1  0  0  0  0
 35 36  2  0  0  0  0
 37 35  1  6  0  0  0
 37 38  1  0  0  0  0
 37 40  1  0  0  0  0
 38 39  1  0  0  0  0
M  END
>  <CHROM.1>
-125.23868965,173.53159790,83.10539212,-77.41249200,166.53814506,-154.85227987
-143.56248682,68.25979285,-97.79503149,64.32313601,23.55214263,6.25564741
-0.24387709,1.82791340,1.11200800,-2.74265154

>  <Name>
2g5q_lig

>  <RI>
0

>  <Rbt.Current_Directory>
/home/itssahil/PROJECTS/Mol_Feturizer/New_Systems/rnas/2g5q

>  <Rbt.Executable>
rbdock ($Id: //depot/dev/client3/rdock/2013.1/src/exe/rbdock.cxx#4 $)

>  <Rbt.Library>
libRbt.so (2013.1, Build901 2013/11/27)

>  <Rbt.Parameter_File>
/export/apps/rDock/src/rDock_2013.1_src/data/scripts/dock_solv.prm

>  <Rbt.Receptor>
prm/blind_docking_40.prm

>  <SCORE>
8.973

>  <SCORE.INTER>
-4.90976

>  <SCORE.INTER.CONST>
1

>  <SCORE.INTER.POLAR>
-0.716435

>  <SCORE.INTER.ROT>
10

>  <SCORE.INTER.SOLV>
23.0727

>  <SCORE.INTER.VDW>
-18.8426

>  <SCORE.INTER.norm>
-0.122744

>  <SCORE.INTRA>
1.78842

>  <SCORE.INTRA.DIHEDRAL>
-1.97773

>  <SCORE.INTRA.DIHEDRAL.0>
22.5778

>  <SCORE.INTRA.POLAR>
0

>  <SCORE.INTRA.POLAR.0>
0

>  <SCORE.INTRA.REPUL>
0

>  <SCORE.INTRA.REPUL.0>
0

>  <SCORE.INTRA.SOLV>
5.29542

>  <SCORE.INTRA.SOLV.lig_0>
-102.332

>  <SCORE.INTRA.VDW>
0.129575

>  <SCORE.INTRA.VDW.0>
-5.08747

>  <SCORE.INTRA.norm>
0.0447105

>  <SCORE.RESTR>
12.0943

>  <SCORE.RESTR.CAVITY>
12.0943

>  <SCORE.RESTR.norm>
0.302358

>  <SCORE.SYSTEM>
0

>  <SCORE.SYSTEM.CONST>
0

>  <SCORE.SYSTEM.DIHEDRAL>
0

>  <SCORE.SYSTEM.SOLV>
0

>  <SCORE.SYSTEM.norm>
0

>  <SCORE.heavy>
40

>  <SCORE.norm>
0.224325

>  <RMSD>
33.958

$$$$
2g5q_lig
 OpenBabel11021811433D
libRbt.so/2013.1/901 2013/11/27
 40 42  0  0  0  0  0  0  0  0999 V2000
   24.0867    5.8450    4.1471 C   0  0  2  0  0  0  0  0  0  0  0  0
   24.4271    7.2124    4.0843 O   0  0  0  0  0  0  0  0  0  0  0  0
   25.3587    5.0276    4.5193 C   0  0  1  0  0  0  0  0  0  0  0  0
   26.4320    5.0743    3.3882 C   0  0  2  0  0  0  0  0  0  0  0  0
   25.7921    4.4883    2.1029 C   0  0  2  0  0  0  0  0  0  0  0  0
   26.7595    4.4927    1.0405 O   0  0  0  0  0  0  0  0  0  0  0  0
   24.5317    5.3695    1.7301 C   0  0  2  0  0  0  0  0  0  0  0  0
   23.5487    5.3543    2.8510 O   0  0  0  0  0  0  0  0  0  0  0  0
   23.8122    4.8716    0.4811 C   0  0  0  0  0  0  0  0  0  0  0  0
   22.7426    3.8763    0.8080 N   0  0  0  0  0  0  0  0  0  0  0  0
   24.3058   10.5944    1.3230 C   0  0  2  0  0  0  0  0  0  0  0  0
   24.3026   11.3685    0.0874 N   0  0  0  0  0  0  0  0  0  0  0  0
   25.6477    9.7572    1.4424 C   0  0  0  0  0  0  0  0  0  0  0  0
   25.6585    8.9225    2.7832 C   0  0  2  0  0  0  0  0  0  0  0  0
   26.9264    8.1510    2.8884 N   0  0  0  0  0  0  0  0  0  0  0  0
   24.3992    7.9682    2.8205 C   0  0  2  0  0  0  0  0  0  0  0  0
   23.0847    8.8362    2.6950 C   0  0  2  0  0  0  0  0  0  0  0  0
   21.9463    7.9695    2.7225 O   0  0  0  0  0  0  0  0  0  0  0  0
   23.0874    9.6484    1.3439 C   0  0  1  0  0  0  0  0  0  0  0  0
   21.8815   10.4563    1.2366 O   0  0  0  0  0  0  0  0  0  0  0  0
   20.9685   10.3754    0.1699 C   0  0  2  0  0  0  0  0  0  0  0  0
   19.8115    9.4176    0.6138 C   0  0  2  0  0  0  0  0  0  0  0  0
   19.1915    9.9322    1.7483 O   0  0  0  0  0  0  0  0  0  0  0  0
   20.3489    7.9601    0.8776 C   0  0  1  0  0  0  0  0  0  0  0  0
   19.2469    7.0336    1.2991 N   0  0  0  0  0  0  0  0  0  0  0  0
   21.0432    7.4404   -0.4435 C   0  0  2  0  0  0  0  0  0  0  0  0
   21.5463    6.1145   -0.2674 O   0  0  0  0  0  0  0  0  0  0  0  0
   22.1874    8.4369   -0.8312 C   0  0  2  0  0  0  0  0  0  0  0  0
   21.6500    9.8285   -1.0170 O   0  0  0  0  0  0  0  0  0  0  0  0
   22.8772    8.0257   -2.0995 C   0  0  0  0  0  0  0  0  0  0  0  0
   24.0374    7.2232   -1.8259 O   0  0  0  0  0  0  0  0  0  0  0  0
   25.8960    5.5578    5.7797 O   0  0  0  0  0  0  0  0  0  0  0  0
   27.5262    4.3265    3.7637 O   0  0  0  0  0  0  0  0  0  0  0  0
   24.1306   14.9462   -3.9246 N   0  0  0  0  0  0  0  0  0  0  0  0
   23.4239   12.4011   -0.2084 C   0  0  0  0  0  0  0  0  0  0  0  0
   22.5335   12.7783    0.5454 O   0  0  0  0  0  0  0  0  0  0  0  0
   23.6815   13.0135   -1.6045 C   0  0  1  0  0  0  0  0  0  0  0  0
   23.6808   14.5530   -1.5147 C   0  0  0  0  0  0  0  0  0  0  0  0
   24.5319   15.2829   -2.5602 C   0  0  0  0  0  0  0  0  0  0  0  0
   24.9455   12.5265   -2.1089 O   0  0  0  0  0  0  0  0  0  0  0  0
  1  2  1  6  0  0  0
  1  3  1  0  0  0  0
  1  8  1  0  0  0  0
  3  4  1  0  0  0  0
  3 32  1  1  0  0  0
  4  5  1  0  0  0  0
  4 33  1  1  0  0  0
  5  6  1  6  0  0  0
  5  7  1  0  0  0  0
  7  8  1  0  0  0  0
  7  9  1  6  0  0  0
  9 10  1  0  0  0  0
 11 12  1  6  0  0  0
 11 13  1  0  0  0  0
 11 19  1  0  0  0  0
 12 35  1  0  0  0  0
 13 14  1  0  0  0  0
 14 15  1  6  0  0  0
 14 16  1  0  0  0  0
 16  2  1  1  0  0  0
 16 17  1  0  0  0  0
 17 18  1  6  0  0  0
 17 19  1  0  0  0  0
 19 20  1  1  0  0  0
 21 20  1  1  0  0  0
 21 22  1  0  0  0  0
 21 29  1  0  0  0  0
 22 23  1  1  0  0  0
 22 24  1  0  0  0  0
 24 25  1  6  0  0  0
 24 26  1  0  0  0  0
 26 27  1  1  0  0  0
 26 28  1  0  0  0  0
 28 29  1  0  0  0  0
 28 30  1  6  0  0  0
 30 31  1  0  0  0  0
 34 39  1  0  0  0  0
 35 36  2  0  0  0  0
 37 35  1  1  0  0  0
 37 38  1  0  0  0  0
 37 40  1  0  0  0  0
 38 39  1  0  0  0  0
M  END
>  <CHROM.1>
113.41729902,90.14993428,-166.42095653,-139.48951177,117.42146075,96.05778278
-93.49829110,-133.69958048,152.13911603,57.59792157,23.55288806,8.53680682
1.02849280,-1.33843117,-0.25647148,-0.47228233

>  <Name>
2g5q_lig

>  <RI>
224

>  <Rbt.Current_Directory>
/home/itssahil/PROJECTS/Mol_Feturizer/New_Systems/rnas/2g5q

>  <Rbt.Executable>
rbdock ($Id: //depot/dev/client3/rdock/2013.1/src/exe/rbdock.cxx#4 $)

>  <Rbt.Library>
libRbt.so (2013.1, Build901 2013/11/27)

>  <Rbt.Parameter_File>
/export/apps/rDock/src/rDock_2013.1_src/data/scripts/dock_solv.prm

>  <Rbt.Receptor>
prm/blind_docking_100.prm

>  <SCORE>
34.4816

>  <SCORE.INTER>
0.618556

>  <SCORE.INTER.CONST>
1

>  <SCORE.INTER.POLAR>
-0.780318

>  <SCORE.INTER.ROT>
10

>  <SCORE.INTER.SOLV>
28.3824

>  <SCORE.INTER.VDW>
-16.714

>  <SCORE.INTER.norm>
0.0154639

>  <SCORE.INTRA>
16.7932

>  <SCORE.INTRA.DIHEDRAL>
12.2427

>  <SCORE.INTRA.DIHEDRAL.0>
22.5778

>  <SCORE.INTRA.POLAR>
0

>  <SCORE.INTRA.POLAR.0>
0

>  <SCORE.INTRA.REPUL>
0

>  <SCORE.INTRA.REPUL.0>
0

>  <SCORE.INTRA.SOLV>
9.89588

>  <SCORE.INTRA.SOLV.lig_0>
-102.332

>  <SCORE.INTRA.VDW>
5.72394

>  <SCORE.INTRA.VDW.0>
-5.08747

>  <SCORE.INTRA.norm>
0.419831

>  <SCORE.RESTR>
17.0698

>  <SCORE.RESTR.CAVITY>
17.0698

>  <SCORE.RESTR.norm>
0.426745

>  <SCORE.SYSTEM>
0

>  <SCORE.SYSTEM.CONST>
0

>  <SCORE.SYSTEM.DIHEDRAL>
0

>  <SCORE.SYSTEM.SOLV>
0

>  <SCORE.SYSTEM.norm>
0

>  <SCORE.heavy>
40

>  <SCORE.norm>
0.862039

>  <RMSD>
33.963

$$$$
2g5q_lig
 OpenBabel11021811433D
libRbt.so/2013.1/901 2013/11/27
 40 42  0  0  0  0  0  0  0  0999 V2000
   21.1760   12.2164   -1.7383 C   0  0  2  0  0  0  0  0  0  0  0  0
   22.4598   11.7692   -2.1140 O   0  0  0  0  0  0  0  0  0  0  0  0
   21.3103   13.6060   -1.0485 C   0  0  1  0  0  0  0  0  0  0  0  0
   22.0647   13.5089    0.3135 C   0  0  2  0  0  0  0  0  0  0  0  0
   21.2665   12.5457    1.2301 C   0  0  2  0  0  0  0  0  0  0  0  0
   21.9188   12.4474    2.5065 O   0  0  0  0  0  0  0  0  0  0  0  0
   21.1892   11.1343    0.5188 C   0  0  2  0  0  0  0  0  0  0  0  0
   20.5161   11.2659   -0.8050 O   0  0  0  0  0  0  0  0  0  0  0  0
   20.4088   10.1062    1.3310 C   0  0  0  0  0  0  0  0  0  0  0  0
   20.6044    8.7151    0.8128 N   0  0  0  0  0  0  0  0  0  0  0  0
   22.3579    7.5075   -1.1628 C   0  0  2  0  0  0  0  0  0  0  0  0
   22.6797    6.0854   -1.1603 N   0  0  0  0  0  0  0  0  0  0  0  0
   21.9376    7.9723   -2.6199 C   0  0  0  0  0  0  0  0  0  0  0  0
   21.5812    9.5109   -2.6257 C   0  0  2  0  0  0  0  0  0  0  0  0
   21.1782    9.9315   -3.9949 N   0  0  0  0  0  0  0  0  0  0  0  0
   22.8230   10.3419   -2.1105 C   0  0  2  0  0  0  0  0  0  0  0  0
   23.2140    9.8485   -0.6611 C   0  0  2  0  0  0  0  0  0  0  0  0
   24.3424   10.5978   -0.1993 O   0  0  0  0  0  0  0  0  0  0  0  0
   23.5806    8.3155   -0.6809 C   0  0  1  0  0  0  0  0  0  0  0  0
   23.9283    7.8608    0.6573 O   0  0  0  0  0  0  0  0  0  0  0  0
   23.1049    7.0445    1.4533 C   0  0  2  0  0  0  0  0  0  0  0  0
   23.1377    7.6219    2.9089 C   0  0  2  0  0  0  0  0  0  0  0  0
   22.6650    8.9307    2.9006 O   0  0  0  0  0  0  0  0  0  0  0  0
   24.5897    7.5512    3.5166 C   0  0  1  0  0  0  0  0  0  0  0  0
   24.6306    8.0980    4.9129 N   0  0  0  0  0  0  0  0  0  0  0  0
   25.0657    6.0445    3.4906 C   0  0  2  0  0  0  0  0  0  0  0  0
   26.3792    5.9153    4.0387 O   0  0  0  0  0  0  0  0  0  0  0  0
   25.0119    5.5293    2.0127 C   0  0  2  0  0  0  0  0  0  0  0  0
   23.6268    5.6663    1.4445 O   0  0  0  0  0  0  0  0  0  0  0  0
   25.4222    4.0889    1.9104 C   0  0  0  0  0  0  0  0  0  0  0  0
   26.7332    3.8796    2.4601 O   0  0  0  0  0  0  0  0  0  0  0  0
   22.0022   14.5152   -1.9721 O   0  0  0  0  0  0  0  0  0  0  0  0
   22.1428   14.7602    0.8841 O   0  0  0  0  0  0  0  0  0  0  0  0
   21.8253    4.4967   -3.8646 N   0  0  0  0  0  0  0  0  0  0  0  0
   23.7286    5.5004   -1.8558 C   0  0  0  0  0  0  0  0  0  0  0  0
   24.5091    6.1235   -2.5671 O   0  0  0  0  0  0  0  0  0  0  0  0
   23.7936    3.9698   -1.6478 C   0  0  1  0  0  0  0  0  0  0  0  0
   22.3770    3.3653   -1.7245 C   0  0  0  0  0  0  0  0  0  0  0  0
   21.7832    3.2330   -3.1317 C   0  0  0  0  0  0  0  0  0  0  0  0
   24.6566    3.3919   -2.6531 O   0  0  0  0  0  0  0  0  0  0  0  0
  1  2  1  1  0  0  0
  1  3  1  0  0  0  0
  1  8  1  0  0  0  0
  3  4  1  0  0  0  0
  3 32  1  6  0  0  0
  4  5  1  0  0  0  0
  4 33  1  1  0  0  0
  5  6  1  1  0  0  0
  5  7  1  0  0  0  0
  7  8  1  0  0  0  0
  7  9  1  1  0  0  0
  9 10  1  0  0  0  0
 11 12  1  6  0  0  0
 11 13  1  0  0  0  0
 11 19  1  0  0  0  0
 12 35  1  0  0  0  0
 13 14  1  0  0  0  0
 14 15  1  6  0  0  0
 14 16  1  0  0  0  0
 16  2  1  1  0  0  0
 16 17  1  0  0  0  0
 17 18  1  6  0  0  0
 17 19  1  0  0  0  0
 19 20  1  1  0  0  0
 21 20  1  6  0  0  0
 21 22  1  0  0  0  0
 21 29  1  0  0  0  0
 22 23  1  6  0  0  0
 22 24  1  0  0  0  0
 24 25  1  1  0  0  0
 24 26  1  0  0  0  0
 26 27  1  6  0  0  0
 26 28  1  0  0  0  0
 28 29  1  0  0  0  0
 28 30  1  1  0  0  0
 30 31  1  0  0  0  0
 34 39  1  0  0  0  0
 35 36  2  0  0  0  0
 37 35  1  6  0  0  0
 37 38  1  0  0  0  0
 37 40  1  0  0  0  0
 38 39  1  0  0  0  0
M  END
>  <CHROM.1>
146.81478276,-166.95615747,63.97488362,38.54654569,-12.52009025,-136.86316540
-56.39265187,43.01310487,76.07241361,-52.90212786,22.97009029,8.39251006
-0.00960562,2.38460486,-1.11871543,0.67760506

>  <Name>
2g5q_lig

>  <RI>
0

>  <Rbt.Current_Directory>
/home/itssahil/PROJECTS/Mol_Feturizer/New_Systems/rnas/2g5q

>  <Rbt.Executable>
rbdock ($Id: //depot/dev/client3/rdock/2013.1/src/exe/rbdock.cxx#4 $)

>  <Rbt.Library>
libRbt.so (2013.1, Build901 2013/11/27)

>  <Rbt.Parameter_File>
/export/apps/rDock/src/rDock_2013.1_src/data/scripts/dock_solv.prm

>  <Rbt.Receptor>
prm/blind_docking_40.prm

>  <SCORE>
18.6535

>  <SCORE.INTER>
-2.93674

>  <SCORE.INTER.CONST>
1

>  <SCORE.INTER.POLAR>
-0.568903

>  <SCORE.INTER.ROT>
10

>  <SCORE.INTER.SOLV>
21.8299

>  <SCORE.INTER.VDW>
-17.6048

>  <SCORE.INTER.norm>
-0.0734185

>  <SCORE.INTRA>
9.95565

>  <SCORE.INTRA.DIHEDRAL>
-1.18943

>  <SCORE.INTRA.DIHEDRAL.0>
22.5778

>  <SCORE.INTRA.POLAR>
0

>  <SCORE.INTRA.POLAR.0>
0

>  <SCORE.INTRA.REPUL>
0

>  <SCORE.INTRA.REPUL.0>
0

>  <SCORE.INTRA.SOLV>
14.6476

>  <SCORE.INTRA.SOLV.lig_0>
-102.332

>  <SCORE.INTRA.VDW>
3.22656

>  <SCORE.INTRA.VDW.0>
-5.08747

>  <SCORE.INTRA.norm>
0.248891

>  <SCORE.RESTR>
11.6346

>  <SCORE.RESTR.CAVITY>
11.6346

>  <SCORE.RESTR.norm>
0.290864

>  <SCORE.SYSTEM>
0

>  <SCORE.SYSTEM.CONST>
0

>  <SCORE.SYSTEM.DIHEDRAL>
0

>  <SCORE.SYSTEM.SOLV>
0

>  <SCORE.SYSTEM.norm>
0

>  <SCORE.heavy>
40

>  <SCORE.norm>
0.466337

>  <RMSD>
33.973

$$$$
2g5q_lig
 OpenBabel11021811433D
libRbt.so/2013.1/901 2013/11/27
 40 42  0  0  0  0  0  0  0  0999 V2000
   23.5978    3.7589   -1.8146 C   0  0  2  0  0  0  0  0  0  0  0  0
   23.1250    4.8197   -2.6151 O   0  0  0  0  0  0  0  0  0  0  0  0
   23.8305    2.5127   -2.7189 C   0  0  1  0  0  0  0  0  0  0  0  0
   22.4927    1.9536   -3.2945 C   0  0  2  0  0  0  0  0  0  0  0  0
   21.5857    1.5682   -2.0972 C   0  0  2  0  0  0  0  0  0  0  0  0
   20.3488    1.0258   -2.5874 O   0  0  0  0  0  0  0  0  0  0  0  0
   21.3343    2.8660   -1.2273 C   0  0  2  0  0  0  0  0  0  0  0  0
   22.6326    3.4122   -0.7384 O   0  0  0  0  0  0  0  0  0  0  0  0
   20.4597    2.5982   -0.0070 C   0  0  0  0  0  0  0  0  0  0  0  0
   19.0113    2.4832   -0.3684 N   0  0  0  0  0  0  0  0  0  0  0  0
   22.8891    9.0903   -1.7301 C   0  0  2  0  0  0  0  0  0  0  0  0
   22.4324   10.3650   -1.1894 N   0  0  0  0  0  0  0  0  0  0  0  0
   21.7533    8.4340   -2.6218 C   0  0  0  0  0  0  0  0  0  0  0  0
   22.2467    7.0561   -3.2154 C   0  0  2  0  0  0  0  0  0  0  0  0
   21.1770    6.4567   -4.0583 N   0  0  0  0  0  0  0  0  0  0  0  0
   22.6579    6.0899   -2.0342 C   0  0  2  0  0  0  0  0  0  0  0  0
   23.7857    6.7785   -1.1676 C   0  0  2  0  0  0  0  0  0  0  0  0
   24.1519    5.9046   -0.0951 O   0  0  0  0  0  0  0  0  0  0  0  0
   23.2676    8.1432   -0.5726 C   0  0  1  0  0  0  0  0  0  0  0  0
   24.3122    8.7811    0.2149 O   0  0  0  0  0  0  0  0  0  0  0  0
   24.0736    9.7439    1.2120 C   0  0  2  0  0  0  0  0  0  0  0  0
   24.7875    9.2547    2.5174 C   0  0  2  0  0  0  0  0  0  0  0  0
   26.1527    9.1263    2.2805 O   0  0  0  0  0  0  0  0  0  0  0  0
   24.1737    7.8959    3.0267 C   0  0  1  0  0  0  0  0  0  0  0  0
   24.8481    7.4212    4.2798 N   0  0  0  0  0  0  0  0  0  0  0  0
   22.6269    8.1100    3.2694 C   0  0  2  0  0  0  0  0  0  0  0  0
   22.0138    6.9085    3.7414 O   0  0  0  0  0  0  0  0  0  0  0  0
   21.9740    8.5950    1.9311 C   0  0  2  0  0  0  0  0  0  0  0  0
   22.6226    9.8602    1.4427 O   0  0  0  0  0  0  0  0  0  0  0  0
   20.5035    8.8512    2.0904 C   0  0  0  0  0  0  0  0  0  0  0  0
   19.8749    9.0900    0.8205 O   0  0  0  0  0  0  0  0  0  0  0  0
   24.7529    2.8908   -3.7980 O   0  0  0  0  0  0  0  0  0  0  0  0
   22.7555    0.8481   -4.0731 O   0  0  0  0  0  0  0  0  0  0  0  0
   24.4793   12.6429   -2.0050 N   0  0  0  0  0  0  0  0  0  0  0  0
   21.8900   11.4027   -1.9344 C   0  0  0  0  0  0  0  0  0  0  0  0
   21.7392   11.3651   -3.1507 O   0  0  0  0  0  0  0  0  0  0  0  0
   21.5119   12.6213   -1.0612 C   0  0  1  0  0  0  0  0  0  0  0  0
   22.7494   13.1231   -0.2899 C   0  0  0  0  0  0  0  0  0  0  0  0
   23.8938   13.6728   -1.1492 C   0  0  0  0  0  0  0  0  0  0  0  0
   20.9746   13.6620   -1.9083 O   0  0  0  0  0  0  0  0  0  0  0  0
  1  2  1  6  0  0  0
  1  3  1  0  0  0  0
  1  8  1  0  0  0  0
  3  4  1  0  0  0  0
  3 32  1  6  0  0  0
  4  5  1  0  0  0  0
  4 33  1  6  0  0  0
  5  6  1  6  0  0  0
  5  7  1  0  0  0  0
  7  8  1  0  0  0  0
  7  9  1  1  0  0  0
  9 10  1  0  0  0  0
 11 12  1  1  0  0  0
 11 13  1  0  0  0  0
 11 19  1  0  0  0  0
 12 35  1  0  0  0  0
 13 14  1  0  0  0  0
 14 15  1  1  0  0  0
 14 16  1  0  0  0  0
 16  2  1  6  0  0  0
 16 17  1  0  0  0  0
 17 18  1  1  0  0  0
 17 19  1  0  0  0  0
 19 20  1  6  0  0  0
 21 20  1  6  0  0  0
 21 22  1  0  0  0  0
 21 29  1  0  0  0  0
 22 23  1  6  0  0  0
 22 24  1  0  0  0  0
 24 25  1  1  0  0  0
 24 26  1  0  0  0  0
 26 27  1  6  0  0  0
 26 28  1  0  0  0  0
 28 29  1  0  0  0  0
 28 30  1  1  0  0  0
 30 31  1  0  0  0  0
 34 39  1  0  0  0  0
 35 36  2  0  0  0  0
 37 35  1  6  0  0  0
 37 38  1  0  0  0  0
 37 40  1  0  0  0  0
 38 39  1  0  0  0  0
M  END
>  <CHROM.1>
172.62412491,-77.34876353,-51.99230464,178.27803219,82.26036723,126.80441186
-170.89433361,57.25668161,64.38370980,-64.16873023,22.63578819,7.25928019
-0.67214904,-1.98900491,-1.36284124,-0.16022757

>  <Name>
2g5q_lig

>  <RI>
0

>  <Rbt.Current_Directory>
/home/itssahil/PROJECTS/Mol_Feturizer/New_Systems/rnas/2g5q

>  <Rbt.Executable>
rbdock ($Id: //depot/dev/client3/rdock/2013.1/src/exe/rbdock.cxx#4 $)

>  <Rbt.Library>
libRbt.so (2013.1, Build901 2013/11/27)

>  <Rbt.Parameter_File>
/export/apps/rDock/src/rDock_2013.1_src/data/scripts/dock_solv.prm

>  <Rbt.Receptor>
prm/blind_docking_40.prm

>  <SCORE>
10.6435

>  <SCORE.INTER>
3.44681

>  <SCORE.INTER.CONST>
1

>  <SCORE.INTER.POLAR>
-0.939866

>  <SCORE.INTER.ROT>
10

>  <SCORE.INTER.SOLV>
22.106

>  <SCORE.INTER.VDW>
-12.2046

>  <SCORE.INTER.norm>
0.0861703

>  <SCORE.INTRA>
-2.12135

>  <SCORE.INTRA.DIHEDRAL>
-10.8299

>  <SCORE.INTRA.DIHEDRAL.0>
22.5778

>  <SCORE.INTRA.POLAR>
0

>  <SCORE.INTRA.POLAR.0>
0

>  <SCORE.INTRA.REPUL>
0

>  <SCORE.INTRA.REPUL.0>
0

>  <SCORE.INTRA.SOLV>
4.9948

>  <SCORE.INTRA.SOLV.lig_0>
-102.332

>  <SCORE.INTRA.VDW>
0.796189

>  <SCORE.INTRA.VDW.0>
-5.08747

>  <SCORE.INTRA.norm>
-0.0530337

>  <SCORE.RESTR>
9.31798

>  <SCORE.RESTR.CAVITY>
9.31798

>  <SCORE.RESTR.norm>
0.23295

>  <SCORE.SYSTEM>
0

>  <SCORE.SYSTEM.CONST>
0

>  <SCORE.SYSTEM.DIHEDRAL>
0

>  <SCORE.SYSTEM.SOLV>
0

>  <SCORE.SYSTEM.norm>
0

>  <SCORE.heavy>
40

>  <SCORE.norm>
0.266086

>  <RMSD>
33.987

$$$$
2g5q_lig
 OpenBabel11021811433D
libRbt.so/2013.1/901 2013/11/27
 40 42  0  0  0  0  0  0  0  0999 V2000
   22.7939    4.4911   -0.9940 C   0  0  2  0  0  0  0  0  0  0  0  0
   21.8678    5.3716   -1.5911 O   0  0  0  0  0  0  0  0  0  0  0  0
   23.8030    4.0124   -2.0791 C   0  0  1  0  0  0  0  0  0  0  0  0
   23.1156    3.1237   -3.1613 C   0  0  2  0  0  0  0  0  0  0  0  0
   22.4983    1.8952   -2.4439 C   0  0  2  0  0  0  0  0  0  0  0  0
   21.8736    1.0377   -3.4128 O   0  0  0  0  0  0  0  0  0  0  0  0
   21.4471    2.4171   -1.3824 C   0  0  2  0  0  0  0  0  0  0  0  0
   22.1189    3.3097   -0.3950 O   0  0  0  0  0  0  0  0  0  0  0  0
   20.7842    1.2862   -0.6032 C   0  0  0  0  0  0  0  0  0  0  0  0
   19.9850    1.7958    0.5559 N   0  0  0  0  0  0  0  0  0  0  0  0
   23.2560    9.5127   -1.6243 C   0  0  2  0  0  0  0  0  0  0  0  0
   23.3009   10.9554   -1.4185 N   0  0  0  0  0  0  0  0  0  0  0  0
   22.0002    9.1239   -2.5117 C   0  0  0  0  0  0  0  0  0  0  0  0
   21.9517    7.5623   -2.7431 C   0  0  2  0  0  0  0  0  0  0  0  0
   20.7763    7.2122   -3.5856 N   0  0  0  0  0  0  0  0  0  0  0  0
   21.8995    6.8236   -1.3468 C   0  0  2  0  0  0  0  0  0  0  0  0
   23.1616    7.2384   -0.4914 C   0  0  2  0  0  0  0  0  0  0  0  0
   23.1089    6.5734    0.7747 O   0  0  0  0  0  0  0  0  0  0  0  0
   23.1821    8.7975   -0.2594 C   0  0  1  0  0  0  0  0  0  0  0  0
   24.3521    9.1782    0.5182 O   0  0  0  0  0  0  0  0  0  0  0  0
   24.2998    9.9149    1.7152 C   0  0  2  0  0  0  0  0  0  0  0  0
   24.9535    9.0371    2.8356 C   0  0  2  0  0  0  0  0  0  0  0  0
   26.2726    8.7544    2.4943 O   0  0  0  0  0  0  0  0  0  0  0  0
   24.1355    7.7110    3.0696 C   0  0  1  0  0  0  0  0  0  0  0  0
   24.7514    6.8652    4.1446 N   0  0  0  0  0  0  0  0  0  0  0  0
   22.6516    8.1031    3.4463 C   0  0  2  0  0  0  0  0  0  0  0  0
   21.8594    6.9366    3.6786 O   0  0  0  0  0  0  0  0  0  0  0  0
   22.0566    8.9748    2.2893 C   0  0  2  0  0  0  0  0  0  0  0  0
   22.8939   10.2007    2.0529 O   0  0  0  0  0  0  0  0  0  0  0  0
   20.6529    9.4144    2.5895 C   0  0  0  0  0  0  0  0  0  0  0  0
   19.6904    8.5245    2.0009 O   0  0  0  0  0  0  0  0  0  0  0  0
   24.4255    5.1969   -2.6855 O   0  0  0  0  0  0  0  0  0  0  0  0
   24.0538    2.7189   -4.0851 O   0  0  0  0  0  0  0  0  0  0  0  0
   24.0522   12.6060   -3.0154 N   0  0  0  0  0  0  0  0  0  0  0  0
   22.3819   11.6881   -0.6804 C   0  0  0  0  0  0  0  0  0  0  0  0
   21.4105   11.1966   -0.1165 O   0  0  0  0  0  0  0  0  0  0  0  0
   22.7099   13.1989   -0.6621 C   0  0  1  0  0  0  0  0  0  0  0  0
   22.1957   13.8670   -1.9533 C   0  0  0  0  0  0  0  0  0  0  0  0
   23.0666   13.6693   -3.1994 C   0  0  0  0  0  0  0  0  0  0  0  0
   22.1065   13.8000    0.5058 O   0  0  0  0  0  0  0  0  0  0  0  0
  1  2  1  6  0  0  0
  1  3  1  0  0  0  0
  1  8  1  0  0  0  0
  3  4  1  0  0  0  0
  3 32  1  6  0  0  0
  4  5  1  0  0  0  0
  4 33  1  6  0  0  0
  5  6  1  6  0  0  0
  5  7  1  0  0  0  0
  7  8  1  0  0  0  0
  7  9  1  1  0  0  0
  9 10  1  0  0  0  0
 11 12  1  1  0  0  0
 11 13  1  0  0  0  0
 11 19  1  0  0  0  0
 12 35  1  0  0  0  0
 13 14  1  0  0  0  0
 14 15  1  6  0  0  0
 14 16  1  0  0  0  0
 16  2  1  6  0  0  0
 16 17  1  0  0  0  0
 17 18  1  1  0  0  0
 17 19  1  0  0  0  0
 19 20  1  1  0  0  0
 21 20  1  6  0  0  0
 21 22  1  0  0  0  0
 21 29  1  0  0  0  0
 22 23  1  6  0  0  0
 22 24  1  0  0  0  0
 24 25  1  1  0  0  0
 24 26  1  0  0  0  0
 26 27  1  6  0  0  0
 26 28  1  0  0  0  0
 28 29  1  0  0  0  0
 28 30  1  1  0  0  0
 30 31  1  0  0  0  0
 34 39  1  0  0  0  0
 35 36  2  0  0  0  0
 37 35  1  6  0  0  0
 37 38  1  0  0  0  0
 37 40  1  0  0  0  0
 38 39  1  0  0  0  0
M  END
>  <CHROM.1>
-106.91871641,169.67991751,67.20574220,126.36119881,115.32486687,120.68211508
-95.16548548,81.61319627,-78.79700938,14.38503802,22.69348895,7.58258351
-0.33133965,2.57062473,1.48220480,2.34863704

>  <Name>
2g5q_lig

>  <RI>
0

>  <Rbt.Current_Directory>
/home/itssahil/PROJECTS/Mol_Feturizer/New_Systems/rnas/2g5q

>  <Rbt.Executable>
rbdock ($Id: //depot/dev/client3/rdock/2013.1/src/exe/rbdock.cxx#4 $)

>  <Rbt.Library>
libRbt.so (2013.1, Build901 2013/11/27)

>  <Rbt.Parameter_File>
/export/apps/rDock/src/rDock_2013.1_src/data/scripts/dock_solv.prm

>  <Rbt.Receptor>
prm/blind_docking_40.prm

>  <SCORE>
29.2477

>  <SCORE.INTER>
7.1059

>  <SCORE.INTER.CONST>
1

>  <SCORE.INTER.POLAR>
-0.502966

>  <SCORE.INTER.ROT>
10

>  <SCORE.INTER.SOLV>
23.7355

>  <SCORE.INTER.VDW>
-11.7647

>  <SCORE.INTER.norm>
0.177648

>  <SCORE.INTRA>
13.5254

>  <SCORE.INTRA.DIHEDRAL>
16.0415

>  <SCORE.INTRA.DIHEDRAL.0>
22.5778

>  <SCORE.INTRA.POLAR>
0

>  <SCORE.INTRA.POLAR.0>
0

>  <SCORE.INTRA.REPUL>
0

>  <SCORE.INTRA.REPUL.0>
0

>  <SCORE.INTRA.SOLV>
6.59415

>  <SCORE.INTRA.SOLV.lig_0>
-102.332

>  <SCORE.INTRA.VDW>
2.2076

>  <SCORE.INTRA.VDW.0>
-5.08747

>  <SCORE.INTRA.norm>
0.338135

>  <SCORE.RESTR>
8.61644

>  <SCORE.RESTR.CAVITY>
8.61644

>  <SCORE.RESTR.norm>
0.215411

>  <SCORE.SYSTEM>
0

>  <SCORE.SYSTEM.CONST>
0

>  <SCORE.SYSTEM.DIHEDRAL>
0

>  <SCORE.SYSTEM.SOLV>
0

>  <SCORE.SYSTEM.norm>
0

>  <SCORE.heavy>
40

>  <SCORE.norm>
0.731194

>  <RMSD>
33.995

$$$$
2g5q_lig
 OpenBabel11021811433D
libRbt.so/2013.1/901 2013/11/27
 40 42  0  0  0  0  0  0  0  0999 V2000
   23.6577    3.5694   -1.9504 C   0  0  2  0  0  0  0  0  0  0  0  0
   23.3130    4.6924   -2.7311 O   0  0  0  0  0  0  0  0  0  0  0  0
   23.8221    2.3373   -2.8883 C   0  0  1  0  0  0  0  0  0  0  0  0
   22.4679    1.9156   -3.5377 C   0  0  2  0  0  0  0  0  0  0  0  0
   21.4795    1.5725   -2.3930 C   0  0  2  0  0  0  0  0  0  0  0  0
   20.2234    1.1559   -2.9525 O   0  0  0  0  0  0  0  0  0  0  0  0
   21.3024    2.8587   -1.4884 C   0  0  2  0  0  0  0  0  0  0  0  0
   22.6200    3.2738   -0.9277 O   0  0  0  0  0  0  0  0  0  0  0  0
   20.3554    2.6292   -0.3153 C   0  0  0  0  0  0  0  0  0  0  0  0
   20.9762    1.7798    0.7500 N   0  0  0  0  0  0  0  0  0  0  0  0
   22.8595    8.9319   -1.7833 C   0  0  2  0  0  0  0  0  0  0  0  0
   22.3383   10.1734   -1.2241 N   0  0  0  0  0  0  0  0  0  0  0  0
   21.7586    8.2317   -2.6854 C   0  0  0  0  0  0  0  0  0  0  0  0
   22.3216    6.8897   -3.2990 C   0  0  2  0  0  0  0  0  0  0  0  0
   21.2839    6.2490   -4.1514 N   0  0  0  0  0  0  0  0  0  0  0  0
   22.7817    5.9284   -2.1318 C   0  0  2  0  0  0  0  0  0  0  0  0
   23.8729    6.6607   -1.2544 C   0  0  2  0  0  0  0  0  0  0  0  0
   24.2834    5.7910   -0.1947 O   0  0  0  0  0  0  0  0  0  0  0  0
   23.2859    7.9883   -0.6396 C   0  0  1  0  0  0  0  0  0  0  0  0
   24.2966    8.6670    0.1579 O   0  0  0  0  0  0  0  0  0  0  0  0
   24.0165    9.6786    1.0940 C   0  0  2  0  0  0  0  0  0  0  0  0
   24.7308    9.2902    2.4327 C   0  0  2  0  0  0  0  0  0  0  0  0
   26.1020    9.1920    2.2166 O   0  0  0  0  0  0  0  0  0  0  0  0
   24.1545    7.9445    3.0156 C   0  0  1  0  0  0  0  0  0  0  0  0
   24.8294    7.5662    4.3008 N   0  0  0  0  0  0  0  0  0  0  0  0
   22.5991    8.1227    3.2308 C   0  0  2  0  0  0  0  0  0  0  0  0
   22.0190    6.9320    3.7673 O   0  0  0  0  0  0  0  0  0  0  0  0
   21.9463    8.5070    1.8601 C   0  0  2  0  0  0  0  0  0  0  0  0
   22.5601    9.7614    1.3039 O   0  0  0  0  0  0  0  0  0  0  0  0
   20.4667    8.7247    1.9903 C   0  0  0  0  0  0  0  0  0  0  0  0
   19.8659    9.0015    0.7146 O   0  0  0  0  0  0  0  0  0  0  0  0
   24.8200    2.6679   -3.9145 O   0  0  0  0  0  0  0  0  0  0  0  0
   22.6689    0.8169   -4.3439 O   0  0  0  0  0  0  0  0  0  0  0  0
   23.8468   13.9933   -2.0787 N   0  0  0  0  0  0  0  0  0  0  0  0
   21.8863   11.2573   -1.9638 C   0  0  0  0  0  0  0  0  0  0  0  0
   21.8821   11.2947   -3.1893 O   0  0  0  0  0  0  0  0  0  0  0  0
   21.4036   12.4222   -1.0692 C   0  0  1  0  0  0  0  0  0  0  0  0
   22.5738   12.9543   -0.2173 C   0  0  0  0  0  0  0  0  0  0  0  0
   23.9205   13.0817   -0.9387 C   0  0  0  0  0  0  0  0  0  0  0  0
   20.8576   13.4667   -1.9060 O   0  0  0  0  0  0  0  0  0  0  0  0
  1  2  1  6  0  0  0
  1  3  1  0  0  0  0
  1  8  1  0  0  0  0
  3  4  1  0  0  0  0
  3 32  1  6  0  0  0
  4  5  1  0  0  0  0
  4 33  1  6  0  0  0
  5  6  1  6  0  0  0
  5  7  1  0  0  0  0
  7  8  1  0  0  0  0
  7  9  1  1  0  0  0
  9 10  1  0  0  0  0
 11 12  1  1  0  0  0
 11 13  1  0  0  0  0
 11 19  1  0  0  0  0
 12 35  1  0  0  0  0
 13 14  1  0  0  0  0
 14 15  1  1  0  0  0
 14 16  1  0  0  0  0
 16  2  1  6  0  0  0
 16 17  1  0  0  0  0
 17 18  1  1  0  0  0
 17 19  1  0  0  0  0
 19 20  1  6  0  0  0
 21 20  1  6  0  0  0
 21 22  1  0  0  0  0
 21 29  1  0  0  0  0
 22 23  1  6  0  0  0
 22 24  1  0  0  0  0
 24 25  1  1  0  0  0
 24 26  1  0  0  0  0
 26 27  1  6  0  0  0
 26 28  1  0  0  0  0
 28 29  1  0  0  0  0
 28 30  1  1  0  0  0
 30 31  1  0  0  0  0
 34 39  1  0  0  0  0
 35 36  2  0  0  0  0
 37 35  1  6  0  0  0
 37 38  1  0  0  0  0
 37 40  1  0  0  0  0
 38 39  1  0  0  0  0
M  END
>  <CHROM.1>
165.35129797,73.27540928,-59.92846836,-172.26256526,76.95575673,129.40668659
-176.69722565,62.35897259,41.52999453,60.03394260,22.65986487,7.17963542
-0.73925977,-1.88188822,-1.37819548,-0.03900938

>  <Name>
2g5q_lig

>  <RI>
0

>  <Rbt.Current_Directory>
/home/itssahil/PROJECTS/Mol_Feturizer/New_Systems/rnas/2g5q

>  <Rbt.Executable>
rbdock ($Id: //depot/dev/client3/rdock/2013.1/src/exe/rbdock.cxx#4 $)

>  <Rbt.Library>
libRbt.so (2013.1, Build901 2013/11/27)

>  <Rbt.Parameter_File>
/export/apps/rDock/src/rDock_2013.1_src/data/scripts/dock_solv.prm

>  <Rbt.Receptor>
prm/blind_docking_40.prm

>  <SCORE>
11.1291

>  <SCORE.INTER>
4.85503

>  <SCORE.INTER.CONST>
1

>  <SCORE.INTER.POLAR>
-0.959166

>  <SCORE.INTER.ROT>
10

>  <SCORE.INTER.SOLV>
25.1745

>  <SCORE.INTER.VDW>
-12.2243

>  <SCORE.INTER.norm>
0.121376

>  <SCORE.INTRA>
-2.36731

>  <SCORE.INTRA.DIHEDRAL>
-10.5912

>  <SCORE.INTRA.DIHEDRAL.0>
22.5778

>  <SCORE.INTRA.POLAR>
0

>  <SCORE.INTRA.POLAR.0>
0

>  <SCORE.INTRA.REPUL>
0

>  <SCORE.INTRA.REPUL.0>
0

>  <SCORE.INTRA.SOLV>
4.37977

>  <SCORE.INTRA.SOLV.lig_0>
-102.332

>  <SCORE.INTRA.VDW>
0.738399

>  <SCORE.INTRA.VDW.0>
-5.08747

>  <SCORE.INTRA.norm>
-0.0591828

>  <SCORE.RESTR>
8.64137

>  <SCORE.RESTR.CAVITY>
8.64137

>  <SCORE.RESTR.norm>
0.216034

>  <SCORE.SYSTEM>
0

>  <SCORE.SYSTEM.CONST>
0

>  <SCORE.SYSTEM.DIHEDRAL>
0

>  <SCORE.SYSTEM.SOLV>
0

>  <SCORE.SYSTEM.norm>
0

>  <SCORE.heavy>
40

>  <SCORE.norm>
0.278227

>  <RMSD>
34.006

$$$$
2g5q_lig
 OpenBabel11021811433D
libRbt.so/2013.1/901 2013/11/27
 40 42  0  0  0  0  0  0  0  0999 V2000
   21.4833    9.9184   -1.3759 C   0  0  2  0  0  0  0  0  0  0  0  0
   22.0307    9.4708   -2.5964 O   0  0  0  0  0  0  0  0  0  0  0  0
   21.2504   11.4556   -1.4639 C   0  0  1  0  0  0  0  0  0  0  0  0
   22.5937   12.2430   -1.5602 C   0  0  2  0  0  0  0  0  0  0  0  0
   23.4286   11.9127   -0.2957 C   0  0  2  0  0  0  0  0  0  0  0  0
   24.6676   12.6391   -0.3358 O   0  0  0  0  0  0  0  0  0  0  0  0
   23.6836   10.3513   -0.2636 C   0  0  2  0  0  0  0  0  0  0  0  0
   22.3835    9.6223   -0.2305 O   0  0  0  0  0  0  0  0  0  0  0  0
   24.4892    9.9099    0.9537 C   0  0  0  0  0  0  0  0  0  0  0  0
   25.8940   10.4263    0.9150 N   0  0  0  0  0  0  0  0  0  0  0  0
   22.1349    5.1367   -2.0656 C   0  0  2  0  0  0  0  0  0  0  0  0
   22.4134    3.7241   -2.2949 N   0  0  0  0  0  0  0  0  0  0  0  0
   21.3028    5.7354   -3.2760 C   0  0  0  0  0  0  0  0  0  0  0  0
   20.9927    7.2641   -3.0283 C   0  0  2  0  0  0  0  0  0  0  0  0
   20.2028    7.8105   -4.1647 N   0  0  0  0  0  0  0  0  0  0  0  0
   22.3488    8.0532   -2.8379 C   0  0  2  0  0  0  0  0  0  0  0  0
   23.1500    7.4266   -1.6286 C   0  0  2  0  0  0  0  0  0  0  0  0
   24.3802    8.1385   -1.4622 O   0  0  0  0  0  0  0  0  0  0  0  0
   23.4622    5.9060   -1.9032 C   0  0  1  0  0  0  0  0  0  0  0  0
   24.1893    5.3282   -0.7826 O   0  0  0  0  0  0  0  0  0  0  0  0
   23.5785    4.6787    0.3051 C   0  0  2  0  0  0  0  0  0  0  0  0
   22.7285    5.7470    1.0728 C   0  0  2  0  0  0  0  0  0  0  0  0
   21.7664    6.2770    0.2185 O   0  0  0  0  0  0  0  0  0  0  0  0
   23.6442    6.8844    1.6649 C   0  0  1  0  0  0  0  0  0  0  0  0
   22.8394    7.9106    2.4063 N   0  0  0  0  0  0  0  0  0  0  0  0
   24.7132    6.2156    2.6173 C   0  0  2  0  0  0  0  0  0  0  0  0
   25.5719    7.2025    3.1925 O   0  0  0  0  0  0  0  0  0  0  0  0
   25.5279    5.1630    1.7920 C   0  0  2  0  0  0  0  0  0  0  0  0
   24.6181    4.1273    1.1925 O   0  0  0  0  0  0  0  0  0  0  0  0
   26.5475    4.4595    2.6400 C   0  0  0  0  0  0  0  0  0  0  0  0
   25.9369    3.4497    3.4600 O   0  0  0  0  0  0  0  0  0  0  0  0
   20.3943   11.7272   -2.6264 O   0  0  0  0  0  0  0  0  0  0  0  0
   22.3296   13.5935   -1.6219 O   0  0  0  0  0  0  0  0  0  0  0  0
   26.6490    1.4306   -4.4850 N   0  0  0  0  0  0  0  0  0  0  0  0
   22.6762    3.1499   -3.5308 C   0  0  0  0  0  0  0  0  0  0  0  0
   22.6962    3.7757   -4.5850 O   0  0  0  0  0  0  0  0  0  0  0  0
   22.9244    1.6270   -3.4333 C   0  0  1  0  0  0  0  0  0  0  0  0
   24.4382    1.3420   -3.3585 C   0  0  0  0  0  0  0  0  0  0  0  0
   25.2911    1.9708   -4.4664 C   0  0  0  0  0  0  0  0  0  0  0  0
   22.2436    1.1103   -2.2676 O   0  0  0  0  0  0  0  0  0  0  0  0
  1  2  1  6  0  0  0
  1  3  1  0  0  0  0
  1  8  1  0  0  0  0
  3  4  1  0  0  0  0
  3 32  1  6  0  0  0
  4  5  1  0  0  0  0
  4 33  1  1  0  0  0
  5  6  1  6  0  0  0
  5  7  1  0  0  0  0
  7  8  1  0  0  0  0
  7  9  1  1  0  0  0
  9 10  1  0  0  0  0
 11 12  1  6  0  0  0
 11 13  1  0  0  0  0
 11 19  1  0  0  0  0
 12 35  1  0  0  0  0
 13 14  1  0  0  0  0
 14 15  1  6  0  0  0
 14 16  1  0  0  0  0
 16  2  1  1  0  0  0
 16 17  1  0  0  0  0
 17 18  1  6  0  0  0
 17 19  1  0  0  0  0
 19 20  1  1  0  0  0
 21 20  1  6  0  0  0
 21 22  1  0  0  0  0
 21 29  1  0  0  0  0
 22 23  1  6  0  0  0
 22 24  1  0  0  0  0
 24 25  1  1  0  0  0
 24 26  1  0  0  0  0
 26 27  1  6  0  0  0
 26 28  1  0  0  0  0
 28 29  1  0  0  0  0
 28 30  1  1  0  0  0
 30 31  1  0  0  0  0
 34 39  1  0  0  0  0
 35 36  2  0  0  0  0
 37 35  1  1  0  0  0
 37 38  1  0  0  0  0
 37 40  1  0  0  0  0
 38 39  1  0  0  0  0
M  END
>  <CHROM.1>
-179.11919443,-66.94011789,35.51998483,72.81545137,-27.27447146,-65.05034907
77.72753708,-95.83659834,-52.96737383,-168.04171685,23.35177206,6.87831193
-0.96941385,1.86421778,-1.03186444,0.39848996

>  <Name>
2g5q_lig

>  <RI>
0

>  <Rbt.Current_Directory>
/home/itssahil/PROJECTS/Mol_Feturizer/New_Systems/rnas/2g5q

>  <Rbt.Executable>
rbdock ($Id: //depot/dev/client3/rdock/2013.1/src/exe/rbdock.cxx#4 $)

>  <Rbt.Library>
libRbt.so (2013.1, Build901 2013/11/27)

>  <Rbt.Parameter_File>
/export/apps/rDock/src/rDock_2013.1_src/data/scripts/dock_solv.prm

>  <Rbt.Receptor>
prm/blind_docking_40.prm

>  <SCORE>
8.07129

>  <SCORE.INTER>
-4.50588

>  <SCORE.INTER.CONST>
1

>  <SCORE.INTER.POLAR>
0

>  <SCORE.INTER.ROT>
10

>  <SCORE.INTER.SOLV>
26.5119

>  <SCORE.INTER.VDW>
-22.1079

>  <SCORE.INTER.norm>
-0.112647

>  <SCORE.INTRA>
2.78242

>  <SCORE.INTRA.DIHEDRAL>
-13.3279

>  <SCORE.INTRA.DIHEDRAL.0>
22.5778

>  <SCORE.INTRA.POLAR>
0

>  <SCORE.INTRA.POLAR.0>
0

>  <SCORE.INTRA.REPUL>
0

>  <SCORE.INTRA.REPUL.0>
0

>  <SCORE.INTRA.SOLV>
6.78798

>  <SCORE.INTRA.SOLV.lig_0>
-102.332

>  <SCORE.INTRA.VDW>
6.05239

>  <SCORE.INTRA.VDW.0>
-5.08747

>  <SCORE.INTRA.norm>
0.0695605

>  <SCORE.RESTR>
9.79475

>  <SCORE.RESTR.CAVITY>
9.79475

>  <SCORE.RESTR.norm>
0.244869

>  <SCORE.SYSTEM>
0

>  <SCORE.SYSTEM.CONST>
0

>  <SCORE.SYSTEM.DIHEDRAL>
0

>  <SCORE.SYSTEM.SOLV>
0

>  <SCORE.SYSTEM.norm>
0

>  <SCORE.heavy>
40

>  <SCORE.norm>
0.201782

>  <RMSD>
34.008

$$$$
2g5q_lig
 OpenBabel11021811433D
libRbt.so/2013.1/901 2013/11/27
 40 42  0  0  0  0  0  0  0  0999 V2000
   23.5390    5.5462    2.2659 C   0  0  2  0  0  0  0  0  0  0  0  0
   23.3760    6.5877    1.3288 O   0  0  0  0  0  0  0  0  0  0  0  0
   23.6695    6.1665    3.6882 C   0  0  1  0  0  0  0  0  0  0  0  0
   24.9835    6.9928    3.8442 C   0  0  2  0  0  0  0  0  0  0  0  0
   26.1775    6.0396    3.5785 C   0  0  2  0  0  0  0  0  0  0  0  0
   27.4106    6.7600    3.7357 O   0  0  0  0  0  0  0  0  0  0  0  0
   26.0360    5.4645    2.1111 C   0  0  2  0  0  0  0  0  0  0  0  0
   24.7462    4.7295    1.9729 O   0  0  0  0  0  0  0  0  0  0  0  0
   27.1573    4.4977    1.7455 C   0  0  0  0  0  0  0  0  0  0  0  0
   28.4916    4.9770    2.2270 N   0  0  0  0  0  0  0  0  0  0  0  0
   21.8330   10.6629    1.0303 C   0  0  2  0  0  0  0  0  0  0  0  0
   21.3789   11.9978    1.4013 N   0  0  0  0  0  0  0  0  0  0  0  0
   20.9418    9.5621    1.7444 C   0  0  0  0  0  0  0  0  0  0  0  0
   21.4258    8.1142    1.3396 C   0  0  2  0  0  0  0  0  0  0  0  0
   20.5753    7.0917    2.0067 N   0  0  0  0  0  0  0  0  0  0  0  0
   22.9478    7.9392    1.7279 C   0  0  2  0  0  0  0  0  0  0  0  0
   23.8013    9.0537    1.0025 C   0  0  2  0  0  0  0  0  0  0  0  0
   25.1780    8.8971    1.3606 O   0  0  0  0  0  0  0  0  0  0  0  0
   23.3123   10.4894    1.4321 C   0  0  1  0  0  0  0  0  0  0  0  0
   24.0918   11.5139    0.7532 O   0  0  0  0  0  0  0  0  0  0  0  0
   24.6825   11.3482   -0.5124 C   0  0  2  0  0  0  0  0  0  0  0  0
   24.1436   12.4930   -1.4355 C   0  0  2  0  0  0  0  0  0  0  0  0
   24.4885   13.7278   -0.8943 O   0  0  0  0  0  0  0  0  0  0  0  0
   22.5843   12.3795   -1.6316 C   0  0  1  0  0  0  0  0  0  0  0  0
   22.0590   13.4695   -2.5183 N   0  0  0  0  0  0  0  0  0  0  0  0
   22.2629   10.9574   -2.2412 C   0  0  2  0  0  0  0  0  0  0  0  0
   20.8582   10.7976   -2.4493 O   0  0  0  0  0  0  0  0  0  0  0  0
   22.8238    9.8612   -1.2736 C   0  0  2  0  0  0  0  0  0  0  0  0
   24.3020   10.0346   -1.0619 O   0  0  0  0  0  0  0  0  0  0  0  0
   22.5835    8.4769   -1.8024 C   0  0  0  0  0  0  0  0  0  0  0  0
   23.5754    7.5551   -1.3214 O   0  0  0  0  0  0  0  0  0  0  0  0
   22.4872    7.0018    3.9381 O   0  0  0  0  0  0  0  0  0  0  0  0
   25.0533    7.5055    5.1208 O   0  0  0  0  0  0  0  0  0  0  0  0
   21.5188   12.3469    3.9009 N   0  0  0  0  0  0  0  0  0  0  0  0
   20.0545   12.3723    1.5802 C   0  0  0  0  0  0  0  0  0  0  0  0
   19.1035   11.6118    1.4364 O   0  0  0  0  0  0  0  0  0  0  0  0
   19.9095   13.8627    1.9649 C   0  0  1  0  0  0  0  0  0  0  0  0
   19.7114   13.9985    3.4882 C   0  0  0  0  0  0  0  0  0  0  0  0
   20.9095   13.5951    4.3555 C   0  0  0  0  0  0  0  0  0  0  0  0
   21.0872   14.5800    1.5314 O   0  0  0  0  0  0  0  0  0  0  0  0
  1  2  1  6  0  0  0
  1  3  1  0  0  0  0
  1  8  1  0  0  0  0
  3  4  1  0  0  0  0
  3 32  1  6  0  0  0
  4  5  1  0  0  0  0
  4 33  1  1  0  0  0
  5  6  1  6  0  0  0
  5  7  1  0  0  0  0
  7  8  1  0  0  0  0
  7  9  1  1  0  0  0
  9 10  1  0  0  0  0
 11 12  1  1  0  0  0
 11 13  1  0  0  0  0
 11 19  1  0  0  0  0
 12 35  1  0  0  0  0
 13 14  1  0  0  0  0
 14 15  1  1  0  0  0
 14 16  1  0  0  0  0
 16  2  1  6  0  0  0
 16 17  1  0  0  0  0
 17 18  1  1  0  0  0
 17 19  1  0  0  0  0
 19 20  1  6  0  0  0
 21 20  1  1  0  0  0
 21 22  1  0  0  0  0
 21 29  1  0  0  0  0
 22 23  1  1  0  0  0
 22 24  1  0  0  0  0
 24 25  1  6  0  0  0
 24 26  1  0  0  0  0
 26 27  1  1  0  0  0
 26 28  1  0  0  0  0
 28 29  1  0  0  0  0
 28 30  1  6  0  0  0
 30 31  1  0  0  0  0
 34 39  1  0  0  0  0
 35 36  2  0  0  0  0
 37 35  1  1  0  0  0
 37 38  1  0  0  0  0
 37 40  1  0  0  0  0
 38 39  1  0  0  0  0
M  END
>  <CHROM.1>
-18.65112843,-41.57769511,-37.68089447,-103.59453679,-90.42145464,123.60058453
152.62643287,-99.46728594,66.63866646,-44.13952928,23.15314745,9.51642498
1.26315855,0.66170390,-0.87737009,2.07106695

>  <Name>
2g5q_lig

>  <RI>
0

>  <Rbt.Current_Directory>
/home/itssahil/PROJECTS/Mol_Feturizer/New_Systems/rnas/2g5q

>  <Rbt.Executable>
rbdock ($Id: //depot/dev/client3/rdock/2013.1/src/exe/rbdock.cxx#4 $)

>  <Rbt.Library>
libRbt.so (2013.1, Build901 2013/11/27)

>  <Rbt.Parameter_File>
/export/apps/rDock/src/rDock_2013.1_src/data/scripts/dock_solv.prm

>  <Rbt.Receptor>
prm/blind_docking_80.prm

>  <SCORE>
46.4094

>  <SCORE.INTER>
-1.9347

>  <SCORE.INTER.CONST>
1

>  <SCORE.INTER.POLAR>
-0.804854

>  <SCORE.INTER.ROT>
10

>  <SCORE.INTER.SOLV>
25.872

>  <SCORE.INTER.VDW>
-17.4976

>  <SCORE.INTER.norm>
-0.0483676

>  <SCORE.INTRA>
28.6587

>  <SCORE.INTRA.DIHEDRAL>
6.62292

>  <SCORE.INTRA.DIHEDRAL.0>
22.5778

>  <SCORE.INTRA.POLAR>
0

>  <SCORE.INTRA.POLAR.0>
0

>  <SCORE.INTRA.REPUL>
0

>  <SCORE.INTRA.REPUL.0>
0

>  <SCORE.INTRA.SOLV>
13.1882

>  <SCORE.INTRA.SOLV.lig_0>
-102.332

>  <SCORE.INTRA.VDW>
18.7531

>  <SCORE.INTRA.VDW.0>
-5.08747

>  <SCORE.INTRA.norm>
0.716466

>  <SCORE.RESTR>
19.6854

>  <SCORE.RESTR.CAVITY>
19.6854

>  <SCORE.RESTR.norm>
0.492136

>  <SCORE.SYSTEM>
0

>  <SCORE.SYSTEM.CONST>
0

>  <SCORE.SYSTEM.DIHEDRAL>
0

>  <SCORE.SYSTEM.SOLV>
0

>  <SCORE.SYSTEM.norm>
0

>  <SCORE.heavy>
40

>  <SCORE.norm>
1.16023

>  <RMSD>
34.013

$$$$
2g5q_lig
 OpenBabel11021811433D
libRbt.so/2013.1/901 2013/11/27
 40 42  0  0  0  0  0  0  0  0999 V2000
   22.9811    3.9047   -3.5537 C   0  0  2  0  0  0  0  0  0  0  0  0
   23.5218    4.4869   -2.3883 O   0  0  0  0  0  0  0  0  0  0  0  0
   21.7009    3.1063   -3.1684 C   0  0  1  0  0  0  0  0  0  0  0  0
   22.0326    1.8706   -2.2757 C   0  0  2  0  0  0  0  0  0  0  0  0
   22.9988    0.9559   -3.0723 C   0  0  2  0  0  0  0  0  0  0  0  0
   23.3109   -0.2085   -2.2905 O   0  0  0  0  0  0  0  0  0  0  0  0
   24.3045    1.7851   -3.4066 C   0  0  2  0  0  0  0  0  0  0  0  0
   23.9519    2.9903   -4.2104 O   0  0  0  0  0  0  0  0  0  0  0  0
   25.3251    0.9820   -4.2059 C   0  0  0  0  0  0  0  0  0  0  0  0
   24.8105    0.6110   -5.5621 N   0  0  0  0  0  0  0  0  0  0  0  0
   23.2366    8.5328   -0.7676 C   0  0  2  0  0  0  0  0  0  0  0  0
   22.6862    9.7525   -0.1887 N   0  0  0  0  0  0  0  0  0  0  0  0
   22.5320    8.2165   -2.1529 C   0  0  0  0  0  0  0  0  0  0  0  0
   23.1305    6.8997   -2.7871 C   0  0  2  0  0  0  0  0  0  0  0  0
   22.4694    6.6204   -4.0906 N   0  0  0  0  0  0  0  0  0  0  0  0
   22.9450    5.6971   -1.7785 C   0  0  2  0  0  0  0  0  0  0  0  0
   23.6551    6.0503   -0.4117 C   0  0  2  0  0  0  0  0  0  0  0  0
   23.4805    4.9628    0.5020 O   0  0  0  0  0  0  0  0  0  0  0  0
   23.0327    7.3578    0.2111 C   0  0  1  0  0  0  0  0  0  0  0  0
   23.6968    7.6876    1.4635 O   0  0  0  0  0  0  0  0  0  0  0  0
   23.3069    7.1895    2.7197 C   0  0  2  0  0  0  0  0  0  0  0  0
   24.0609    8.0236    3.8100 C   0  0  2  0  0  0  0  0  0  0  0  0
   23.7157    9.3663    3.6894 O   0  0  0  0  0  0  0  0  0  0  0  0
   25.6205    7.8305    3.6968 C   0  0  1  0  0  0  0  0  0  0  0  0
   26.3517    8.6222    4.7403 N   0  0  0  0  0  0  0  0  0  0  0  0
   25.9411    6.2893    3.8359 C   0  0  2  0  0  0  0  0  0  0  0  0
   27.3475    6.0512    3.7483 O   0  0  0  0  0  0  0  0  0  0  0  0
   25.1615    5.5146    2.7203 C   0  0  2  0  0  0  0  0  0  0  0  0
   23.6832    5.7682    2.8208 O   0  0  0  0  0  0  0  0  0  0  0  0
   25.3919    4.0337    2.8068 C   0  0  0  0  0  0  0  0  0  0  0  0
   26.7469    3.6957    2.4681 O   0  0  0  0  0  0  0  0  0  0  0  0
   20.7755    4.0193   -2.4841 O   0  0  0  0  0  0  0  0  0  0  0  0
   20.8695    1.1959   -1.9770 O   0  0  0  0  0  0  0  0  0  0  0  0
   23.8835   12.2131   -1.8038 N   0  0  0  0  0  0  0  0  0  0  0  0
   23.3809   10.6380    0.6234 C   0  0  0  0  0  0  0  0  0  0  0  0
   24.5514   10.4865    0.9557 O   0  0  0  0  0  0  0  0  0  0  0  0
   22.5083   11.8306    1.0781 C   0  0  1  0  0  0  0  0  0  0  0  0
   22.0998   12.6817   -0.1413 C   0  0  0  0  0  0  0  0  0  0  0  0
   23.2539   13.2431   -0.9800 C   0  0  0  0  0  0  0  0  0  0  0  0
   21.3433   11.3277    1.7702 O   0  0  0  0  0  0  0  0  0  0  0  0
  1  2  1  1  0  0  0
  1  3  1  0  0  0  0
  1  8  1  0  0  0  0
  3  4  1  0  0  0  0
  3 32  1  1  0  0  0
  4  5  1  0  0  0  0
  4 33  1  6  0  0  0
  5  6  1  1  0  0  0
  5  7  1  0  0  0  0
  7  8  1  0  0  0  0
  7  9  1  6  0  0  0
  9 10  1  0  0  0  0
 11 12  1  1  0  0  0
 11 13  1  0  0  0  0
 11 19  1  0  0  0  0
 12 35  1  0  0  0  0
 13 14  1  0  0  0  0
 14 15  1  6  0  0  0
 14 16  1  0  0  0  0
 16  2  1  6  0  0  0
 16 17  1  0  0  0  0
 17 18  1  1  0  0  0
 17 19  1  0  0  0  0
 19 20  1  1  0  0  0
 21 20  1  6  0  0  0
 21 22  1  0  0  0  0
 21 29  1  0  0  0  0
 22 23  1  6  0  0  0
 22 24  1  0  0  0  0
 24 25  1  1  0  0  0
 24 26  1  0  0  0  0
 26 27  1  6  0  0  0
 26 28  1  0  0  0  0
 28 29  1  0  0  0  0
 28 30  1  1  0  0  0
 30 31  1  0  0  0  0
 34 39  1  0  0  0  0
 35 36  2  0  0  0  0
 37 35  1  6  0  0  0
 37 38  1  0  0  0  0
 37 40  1  0  0  0  0
 38 39  1  0  0  0  0
M  END
>  <CHROM.1>
-77.44658776,64.55503550,-149.62097972,-65.33888761,152.53479447,-167.65812505
-68.32171799,-64.49057201,-57.66352901,74.68842091,23.64744628,6.27052551
-0.22991956,1.68503944,1.10554880,-2.70560681

>  <Name>
2g5q_lig

>  <RI>
0

>  <Rbt.Current_Directory>
/home/itssahil/PROJECTS/Mol_Feturizer/New_Systems/rnas/2g5q

>  <Rbt.Executable>
rbdock ($Id: //depot/dev/client3/rdock/2013.1/src/exe/rbdock.cxx#4 $)

>  <Rbt.Library>
libRbt.so (2013.1, Build901 2013/11/27)

>  <Rbt.Parameter_File>
/export/apps/rDock/src/rDock_2013.1_src/data/scripts/dock_solv.prm

>  <Rbt.Receptor>
prm/blind_docking_40.prm

>  <SCORE>
-4.87233

>  <SCORE.INTER>
-12.7968

>  <SCORE.INTER.CONST>
1

>  <SCORE.INTER.POLAR>
-0.6795

>  <SCORE.INTER.ROT>
10

>  <SCORE.INTER.SOLV>
22.6416

>  <SCORE.INTER.VDW>
-24.08

>  <SCORE.INTER.norm>
-0.319919

>  <SCORE.INTRA>
-3.16336

>  <SCORE.INTRA.DIHEDRAL>
-14.6313

>  <SCORE.INTRA.DIHEDRAL.0>
22.5778

>  <SCORE.INTRA.POLAR>
0

>  <SCORE.INTRA.POLAR.0>
0

>  <SCORE.INTRA.REPUL>
0

>  <SCORE.INTRA.REPUL.0>
0

>  <SCORE.INTRA.SOLV>
7.91904

>  <SCORE.INTRA.SOLV.lig_0>
-102.332

>  <SCORE.INTRA.VDW>
0.192766

>  <SCORE.INTRA.VDW.0>
-5.08747

>  <SCORE.INTRA.norm>
-0.079084

>  <SCORE.RESTR>
11.0878

>  <SCORE.RESTR.CAVITY>
11.0878

>  <SCORE.RESTR.norm>
0.277195

>  <SCORE.SYSTEM>
0

>  <SCORE.SYSTEM.CONST>
0

>  <SCORE.SYSTEM.DIHEDRAL>
0

>  <SCORE.SYSTEM.SOLV>
0

>  <SCORE.SYSTEM.norm>
0

>  <SCORE.heavy>
40

>  <SCORE.norm>
-0.121808

>  <RMSD>
34.028

$$$$
2g5q_lig
 OpenBabel11021811433D
libRbt.so/2013.1/901 2013/11/27
 40 42  0  0  0  0  0  0  0  0999 V2000
   22.9598    3.8834   -3.5958 C   0  0  2  0  0  0  0  0  0  0  0  0
   23.5456    4.4789   -2.4592 O   0  0  0  0  0  0  0  0  0  0  0  0
   21.6858    3.1045   -3.1542 C   0  0  1  0  0  0  0  0  0  0  0  0
   22.0357    1.8802   -2.2529 C   0  0  2  0  0  0  0  0  0  0  0  0
   22.9653    0.9427   -3.0664 C   0  0  2  0  0  0  0  0  0  0  0  0
   23.2925   -0.2119   -2.2764 O   0  0  0  0  0  0  0  0  0  0  0  0
   24.2668    1.7530   -3.4585 C   0  0  2  0  0  0  0  0  0  0  0  0
   23.8988    2.9485   -4.2698 O   0  0  0  0  0  0  0  0  0  0  0  0
   25.2518    0.9265   -4.2784 C   0  0  0  0  0  0  0  0  0  0  0  0
   24.6674    0.4911   -5.5863 N   0  0  0  0  0  0  0  0  0  0  0  0
   23.2904    8.4955   -0.7624 C   0  0  2  0  0  0  0  0  0  0  0  0
   22.7491    9.7078   -0.1599 N   0  0  0  0  0  0  0  0  0  0  0  0
   22.5816    8.2101   -2.1524 C   0  0  0  0  0  0  0  0  0  0  0  0
   23.1702    6.9013   -2.8121 C   0  0  2  0  0  0  0  0  0  0  0  0
   22.5054    6.6511   -4.1196 N   0  0  0  0  0  0  0  0  0  0  0  0
   22.9779    5.6813   -1.8259 C   0  0  2  0  0  0  0  0  0  0  0  0
   23.6923    6.0039   -0.4539 C   0  0  2  0  0  0  0  0  0  0  0  0
   23.5114    4.9006    0.4395 O   0  0  0  0  0  0  0  0  0  0  0  0
   23.0797    7.3037    0.1943 C   0  0  1  0  0  0  0  0  0  0  0  0
   23.7478    7.6054    1.4517 O   0  0  0  0  0  0  0  0  0  0  0  0
   23.3424    7.1046    2.7019 C   0  0  2  0  0  0  0  0  0  0  0  0
   24.0631    7.9531    3.8036 C   0  0  2  0  0  0  0  0  0  0  0  0
   23.6995    9.2900    3.6727 O   0  0  0  0  0  0  0  0  0  0  0  0
   25.6273    7.7839    3.7198 C   0  0  1  0  0  0  0  0  0  0  0  0
   26.3267    8.5895    4.7744 N   0  0  0  0  0  0  0  0  0  0  0  0
   25.9691    6.2482    3.8692 C   0  0  2  0  0  0  0  0  0  0  0  0
   27.3803    6.0317    3.8083 O   0  0  0  0  0  0  0  0  0  0  0  0
   25.2224    5.4586    2.7416 C   0  0  2  0  0  0  0  0  0  0  0  0
   23.7387    5.6895    2.8141 O   0  0  0  0  0  0  0  0  0  0  0  0
   25.4739    3.9817    2.8367 C   0  0  0  0  0  0  0  0  0  0  0  0
   26.8293    3.6595    2.4843 O   0  0  0  0  0  0  0  0  0  0  0  0
   20.7932    4.0380   -2.4542 O   0  0  0  0  0  0  0  0  0  0  0  0
   20.8769    1.2224   -1.9038 O   0  0  0  0  0  0  0  0  0  0  0  0
   24.0626   12.2550   -1.5834 N   0  0  0  0  0  0  0  0  0  0  0  0
   23.4593   10.5887    0.6436 C   0  0  0  0  0  0  0  0  0  0  0  0
   24.6378   10.4390    0.9470 O   0  0  0  0  0  0  0  0  0  0  0  0
   22.5932   11.7739    1.1292 C   0  0  1  0  0  0  0  0  0  0  0  0
   22.1226   12.6131   -0.0759 C   0  0  0  0  0  0  0  0  0  0  0  0
   23.2325   13.2556   -0.9159 C   0  0  0  0  0  0  0  0  0  0  0  0
   21.4651   11.2616    1.8737 O   0  0  0  0  0  0  0  0  0  0  0  0
  1  2  1  1  0  0  0
  1  3  1  0  0  0  0
  1  8  1  0  0  0  0
  3  4  1  0  0  0  0
  3 32  1  1  0  0  0
  4  5  1  0  0  0  0
  4 33  1  6  0  0  0
  5  6  1  1  0  0  0
  5  7  1  0  0  0  0
  7  8  1  0  0  0  0
  7  9  1  6  0  0  0
  9 10  1  0  0  0  0
 11 12  1  1  0  0  0
 11 13  1  0  0  0  0
 11 19  1  0  0  0  0
 12 35  1  0  0  0  0
 13 14  1  0  0  0  0
 14 15  1  6  0  0  0
 14 16  1  0  0  0  0
 16  2  1  6  0  0  0
 16 17  1  0  0  0  0
 17 18  1  1  0  0  0
 17 19  1  0  0  0  0
 19 20  1  1  0  0  0
 21 20  1  6  0  0  0
 21 22  1  0  0  0  0
 21 29  1  0  0  0  0
 22 23  1  6  0  0  0
 22 24  1  0  0  0  0
 24 25  1  1  0  0  0
 24 26  1  0  0  0  0
 26 27  1  6  0  0  0
 26 28  1  0  0  0  0
 28 29  1  0  0  0  0
 28 30  1  1  0  0  0
 30 31  1  0  0  0  0
 34 39  1  0  0  0  0
 35 36  2  0  0  0  0
 37 35  1  6  0  0  0
 37 38  1  0  0  0  0
 37 40  1  0  0  0  0
 38 39  1  0  0  0  0
M  END
>  <CHROM.1>
-75.54977633,62.19635151,-148.11208746,-68.57880109,151.40299151,-165.12800987
-70.09657117,-63.01917262,-61.34159835,65.05420441,23.67259237,6.23582397
-0.22163560,1.70720951,1.10819596,-2.71717616

>  <Name>
2g5q_lig

>  <RI>
0

>  <Rbt.Current_Directory>
/home/itssahil/PROJECTS/Mol_Feturizer/New_Systems/rnas/2g5q

>  <Rbt.Executable>
rbdock ($Id: //depot/dev/client3/rdock/2013.1/src/exe/rbdock.cxx#4 $)

>  <Rbt.Library>
libRbt.so (2013.1, Build901 2013/11/27)

>  <Rbt.Parameter_File>
/export/apps/rDock/src/rDock_2013.1_src/data/scripts/dock_solv.prm

>  <Rbt.Receptor>
prm/blind_docking_40.prm

>  <SCORE>
-5.32012

>  <SCORE.INTER>
-12.8398

>  <SCORE.INTER.CONST>
1

>  <SCORE.INTER.POLAR>
-0.700988

>  <SCORE.INTER.ROT>
10

>  <SCORE.INTER.SOLV>
23.3529

>  <SCORE.INTER.VDW>
-24.2742

>  <SCORE.INTER.norm>
-0.320994

>  <SCORE.INTRA>
-3.61412

>  <SCORE.INTRA.DIHEDRAL>
-14.7668

>  <SCORE.INTRA.DIHEDRAL.0>
22.5778

>  <SCORE.INTRA.POLAR>
0

>  <SCORE.INTRA.POLAR.0>
0

>  <SCORE.INTRA.REPUL>
0

>  <SCORE.INTRA.REPUL.0>
0

>  <SCORE.INTRA.SOLV>
7.9508

>  <SCORE.INTRA.SOLV.lig_0>
-102.332

>  <SCORE.INTRA.VDW>
-0.206126

>  <SCORE.INTRA.VDW.0>
-5.08747

>  <SCORE.INTRA.norm>
-0.090353

>  <SCORE.RESTR>
11.1338

>  <SCORE.RESTR.CAVITY>
11.1338

>  <SCORE.RESTR.norm>
0.278344

>  <SCORE.SYSTEM>
0

>  <SCORE.SYSTEM.CONST>
0

>  <SCORE.SYSTEM.DIHEDRAL>
0

>  <SCORE.SYSTEM.SOLV>
0

>  <SCORE.SYSTEM.norm>
0

>  <SCORE.heavy>
40

>  <SCORE.norm>
-0.133003

>  <RMSD>
34.030

$$$$
2g5q_lig
 OpenBabel11021811433D
libRbt.so/2013.1/901 2013/11/27
 40 42  0  0  0  0  0  0  0  0999 V2000
   23.9279    6.1690    4.0530 C   0  0  2  0  0  0  0  0  0  0  0  0
   24.5045    7.4513    3.9400 O   0  0  0  0  0  0  0  0  0  0  0  0
   25.0542    5.1371    4.3557 C   0  0  1  0  0  0  0  0  0  0  0  0
   26.0370    4.9795    3.1545 C   0  0  2  0  0  0  0  0  0  0  0  0
   25.2141    4.5095    1.9270 C   0  0  2  0  0  0  0  0  0  0  0  0
   26.0901    4.3300    0.8024 O   0  0  0  0  0  0  0  0  0  0  0  0
   24.1107    5.6019    1.6218 C   0  0  2  0  0  0  0  0  0  0  0  0
   23.2214    5.7741    2.8060 O   0  0  0  0  0  0  0  0  0  0  0  0
   23.2281    5.2334    0.4340 C   0  0  0  0  0  0  0  0  0  0  0  0
   21.7990    5.6222    0.6540 N   0  0  0  0  0  0  0  0  0  0  0  0
   24.8432   10.6172    0.9501 C   0  0  2  0  0  0  0  0  0  0  0  0
   25.0528   11.2980   -0.3220 N   0  0  0  0  0  0  0  0  0  0  0  0
   26.1508    9.8235    1.3696 C   0  0  0  0  0  0  0  0  0  0  0  0
   25.9305    9.0902    2.7510 C   0  0  2  0  0  0  0  0  0  0  0  0
   27.1673    8.3591    3.1383 N   0  0  0  0  0  0  0  0  0  0  0  0
   24.6950    8.1112    2.6372 C   0  0  2  0  0  0  0  0  0  0  0  0
   23.4151    8.9358    2.2143 C   0  0  2  0  0  0  0  0  0  0  0  0
   22.2992    8.0464    2.1057 O   0  0  0  0  0  0  0  0  0  0  0  0
   23.6507    9.6463    0.8270 C   0  0  1  0  0  0  0  0  0  0  0  0
   22.4750   10.4149    0.4458 O   0  0  0  0  0  0  0  0  0  0  0  0
   21.5365    9.9989   -0.5156 C   0  0  2  0  0  0  0  0  0  0  0  0
   20.4977   11.1581   -0.6899 C   0  0  2  0  0  0  0  0  0  0  0  0
   21.1531   12.3098   -1.1147 O   0  0  0  0  0  0  0  0  0  0  0  0
   19.7078   11.4204    0.6480 C   0  0  1  0  0  0  0  0  0  0  0  0
   18.7068   12.5264    0.4899 N   0  0  0  0  0  0  0  0  0  0  0  0
   18.9950   10.0763    1.0753 C   0  0  2  0  0  0  0  0  0  0  0  0
   18.2534   10.2543    2.2837 O   0  0  0  0  0  0  0  0  0  0  0  0
   20.0843    8.9623    1.2342 C   0  0  2  0  0  0  0  0  0  0  0  0
   20.8581    8.7794   -0.0416 O   0  0  0  0  0  0  0  0  0  0  0  0
   19.4782    7.6414    1.6104 C   0  0  0  0  0  0  0  0  0  0  0  0
   19.3972    6.7626    0.4764 O   0  0  0  0  0  0  0  0  0  0  0  0
   25.7646    5.5705    5.5663 O   0  0  0  0  0  0  0  0  0  0  0  0
   27.0015    4.0483    3.4710 O   0  0  0  0  0  0  0  0  0  0  0  0
   22.4319   10.9381   -3.2479 N   0  0  0  0  0  0  0  0  0  0  0  0
   24.2835   12.3473   -0.8051 C   0  0  0  0  0  0  0  0  0  0  0  0
   23.3221   12.8210   -0.2096 O   0  0  0  0  0  0  0  0  0  0  0  0
   24.7636   12.8428   -2.1888 C   0  0  1  0  0  0  0  0  0  0  0  0
   23.5506   13.1491   -3.0905 C   0  0  0  0  0  0  0  0  0  0  0  0
   23.0895   12.0046   -4.0003 C   0  0  0  0  0  0  0  0  0  0  0  0
   25.5850   14.0188   -2.0114 O   0  0  0  0  0  0  0  0  0  0  0  0
  1  2  1  6  0  0  0
  1  3  1  0  0  0  0
  1  8  1  0  0  0  0
  3  4  1  0  0  0  0
  3 32  1  1  0  0  0
  4  5  1  0  0  0  0
  4 33  1  1  0  0  0
  5  6  1  6  0  0  0
  5  7  1  0  0  0  0
  7  8  1  0  0  0  0
  7  9  1  6  0  0  0
  9 10  1  0  0  0  0
 11 12  1  6  0  0  0
 11 13  1  0  0  0  0
 11 19  1  0  0  0  0
 12 35  1  0  0  0  0
 13 14  1  0  0  0  0
 14 15  1  6  0  0  0
 14 16  1  0  0  0  0
 16  2  1  1  0  0  0
 16 17  1  0  0  0  0
 17 18  1  6  0  0  0
 17 19  1  0  0  0  0
 19 20  1  1  0  0  0
 21 20  1  1  0  0  0
 21 22  1  0  0  0  0
 21 29  1  0  0  0  0
 22 23  1  1  0  0  0
 22 24  1  0  0  0  0
 24 25  1  6  0  0  0
 24 26  1  0  0  0  0
 26 27  1  1  0  0  0
 26 28  1  0  0  0  0
 28 29  1  0  0  0  0
 28 30  1  6  0  0  0
 30 31  1  0  0  0  0
 34 39  1  0  0  0  0
 35 36  2  0  0  0  0
 37 35  1  1  0  0  0
 37 38  1  0  0  0  0
 37 40  1  0  0  0  0
 38 39  1  0  0  0  0
M  END
>  <CHROM.1>
104.74132389,141.75462560,-161.75036093,-151.93358328,137.65324759,-176.05281766
102.08346243,139.35705551,-93.34299401,72.20727491,23.17152788,8.89825444
0.98194891,1.18838529,0.00493729,2.55887440

>  <Name>
2g5q_lig

>  <RI>
224

>  <Rbt.Current_Directory>
/home/itssahil/PROJECTS/Mol_Feturizer/New_Systems/rnas/2g5q

>  <Rbt.Executable>
rbdock ($Id: //depot/dev/client3/rdock/2013.1/src/exe/rbdock.cxx#4 $)

>  <Rbt.Library>
libRbt.so (2013.1, Build901 2013/11/27)

>  <Rbt.Parameter_File>
/export/apps/rDock/src/rDock_2013.1_src/data/scripts/dock_solv.prm

>  <Rbt.Receptor>
prm/blind_docking_100.prm

>  <SCORE>
26.2149

>  <SCORE.INTER>
-2.46746

>  <SCORE.INTER.CONST>
1

>  <SCORE.INTER.POLAR>
-0.518995

>  <SCORE.INTER.ROT>
10

>  <SCORE.INTER.SOLV>
26.007

>  <SCORE.INTER.VDW>
-18.8507

>  <SCORE.INTER.norm>
-0.0616864

>  <SCORE.INTRA>
12.1555

>  <SCORE.INTRA.DIHEDRAL>
6.39159

>  <SCORE.INTRA.DIHEDRAL.0>
22.5778

>  <SCORE.INTRA.POLAR>
0

>  <SCORE.INTRA.POLAR.0>
0

>  <SCORE.INTRA.REPUL>
0

>  <SCORE.INTRA.REPUL.0>
0

>  <SCORE.INTRA.SOLV>
14.0243

>  <SCORE.INTRA.SOLV.lig_0>
-102.332

>  <SCORE.INTRA.VDW>
1.94755

>  <SCORE.INTRA.VDW.0>
-5.08747

>  <SCORE.INTRA.norm>
0.303888

>  <SCORE.RESTR>
16.5269

>  <SCORE.RESTR.CAVITY>
16.5269

>  <SCORE.RESTR.norm>
0.413171

>  <SCORE.SYSTEM>
0

>  <SCORE.SYSTEM.CONST>
0

>  <SCORE.SYSTEM.DIHEDRAL>
0

>  <SCORE.SYSTEM.SOLV>
0

>  <SCORE.SYSTEM.norm>
0

>  <SCORE.heavy>
40

>  <SCORE.norm>
0.655373

>  <RMSD>
34.031

$$$$
2g5q_lig
 OpenBabel11021811433D
libRbt.so/2013.1/901 2013/11/27
 40 42  0  0  0  0  0  0  0  0999 V2000
   21.4389    4.2821   -2.4199 C   0  0  2  0  0  0  0  0  0  0  0  0
   22.2453    4.8902   -1.4353 O   0  0  0  0  0  0  0  0  0  0  0  0
   20.7331    3.0424   -1.7954 C   0  0  1  0  0  0  0  0  0  0  0  0
   21.7501    1.9186   -1.4261 C   0  0  2  0  0  0  0  0  0  0  0  0
   22.4873    1.5008   -2.7249 C   0  0  2  0  0  0  0  0  0  0  0  0
   23.4195    0.4480   -2.4298 O   0  0  0  0  0  0  0  0  0  0  0  0
   23.2285    2.7725   -3.3057 C   0  0  2  0  0  0  0  0  0  0  0  0
   22.2407    3.8511   -3.5953 O   0  0  0  0  0  0  0  0  0  0  0  0
   23.9799    2.4780   -4.5996 C   0  0  0  0  0  0  0  0  0  0  0  0
   23.0585    2.0496   -5.6993 N   0  0  0  0  0  0  0  0  0  0  0  0
   23.4852    9.0780   -1.4790 C   0  0  2  0  0  0  0  0  0  0  0  0
   23.4784   10.5220   -1.2776 N   0  0  0  0  0  0  0  0  0  0  0  0
   22.2455    8.6421   -2.3672 C   0  0  0  0  0  0  0  0  0  0  0  0
   22.2531    7.0791   -2.5939 C   0  0  2  0  0  0  0  0  0  0  0  0
   21.0923    6.6848   -3.4372 N   0  0  0  0  0  0  0  0  0  0  0  0
   22.2249    6.3432   -1.1955 C   0  0  2  0  0  0  0  0  0  0  0  0
   23.4700    6.8052   -0.3393 C   0  0  2  0  0  0  0  0  0  0  0  0
   23.4388    6.1425    0.9288 O   0  0  0  0  0  0  0  0  0  0  0  0
   23.4345    8.3647   -0.1120 C   0  0  1  0  0  0  0  0  0  0  0  0
   24.5889    8.7891    0.6663 O   0  0  0  0  0  0  0  0  0  0  0  0
   24.5177    9.6331    1.7892 C   0  0  2  0  0  0  0  0  0  0  0  0
   25.1718    8.8711    2.9912 C   0  0  2  0  0  0  0  0  0  0  0  0
   26.4970    8.5741    2.6876 O   0  0  0  0  0  0  0  0  0  0  0  0
   24.3670    7.5625    3.3412 C   0  0  1  0  0  0  0  0  0  0  0  0
   24.9833    6.8278    4.4947 N   0  0  0  0  0  0  0  0  0  0  0  0
   22.8756    7.9697    3.6686 C   0  0  2  0  0  0  0  0  0  0  0  0
   22.0949    6.8202    4.0023 O   0  0  0  0  0  0  0  0  0  0  0  0
   22.2806    8.7228    2.4312 C   0  0  2  0  0  0  0  0  0  0  0  0
   23.1058    9.9317    2.0883 O   0  0  0  0  0  0  0  0  0  0  0  0
   20.8694    9.1712    2.6786 C   0  0  0  0  0  0  0  0  0  0  0  0
   20.2752    9.7065    1.4848 O   0  0  0  0  0  0  0  0  0  0  0  0
   19.9826    3.4853   -0.6128 O   0  0  0  0  0  0  0  0  0  0  0  0
   21.0723    0.8449   -0.8921 O   0  0  0  0  0  0  0  0  0  0  0  0
   22.9679   11.6567   -3.8499 N   0  0  0  0  0  0  0  0  0  0  0  0
   22.3459   11.2956   -1.0647 C   0  0  0  0  0  0  0  0  0  0  0  0
   21.2064   10.8443   -1.0293 O   0  0  0  0  0  0  0  0  0  0  0  0
   22.6794   12.7956   -0.8939 C   0  0  1  0  0  0  0  0  0  0  0  0
   23.5593   13.2780   -2.0649 C   0  0  0  0  0  0  0  0  0  0  0  0
   22.9777   13.0673   -3.4676 C   0  0  0  0  0  0  0  0  0  0  0  0
   21.4480   13.5497   -0.8287 O   0  0  0  0  0  0  0  0  0  0  0  0
  1  2  1  1  0  0  0
  1  3  1  0  0  0  0
  1  8  1  0  0  0  0
  3  4  1  0  0  0  0
  3 32  1  1  0  0  0
  4  5  1  0  0  0  0
  4 33  1  6  0  0  0
  5  6  1  1  0  0  0
  5  7  1  0  0  0  0
  7  8  1  0  0  0  0
  7  9  1  6  0  0  0
  9 10  1  0  0  0  0
 11 12  1  1  0  0  0
 11 13  1  0  0  0  0
 11 19  1  0  0  0  0
 12 35  1  0  0  0  0
 13 14  1  0  0  0  0
 14 15  1  6  0  0  0
 14 16  1  0  0  0  0
 16  2  1  6  0  0  0
 16 17  1  0  0  0  0
 17 18  1  1  0  0  0
 17 19  1  0  0  0  0
 19 20  1  1  0  0  0
 21 20  1  6  0  0  0
 21 22  1  0  0  0  0
 21 29  1  0  0  0  0
 22 23  1  6  0  0  0
 22 24  1  0  0  0  0
 24 25  1  1  0  0  0
 24 26  1  0  0  0  0
 26 27  1  6  0  0  0
 26 28  1  0  0  0  0
 28 29  1  0  0  0  0
 28 30  1  1  0  0  0
 30 31  1  0  0  0  0
 34 39  1  0  0  0  0
 35 36  2  0  0  0  0
 37 35  1  6  0  0  0
 37 38  1  0  0  0  0
 37 40  1  0  0  0  0
 38 39  1  0  0  0  0
M  END
>  <CHROM.1>
-132.56611814,62.56870868,38.67189501,-44.45841737,109.00512830,123.12840429
-172.58616992,51.67465293,56.60946762,-71.11474462,22.72219042,7.23710557
-0.56947217,2.05067071,1.39036299,2.99719588

>  <Name>
2g5q_lig

>  <RI>
0

>  <Rbt.Current_Directory>
/home/itssahil/PROJECTS/Mol_Feturizer/New_Systems/rnas/2g5q

>  <Rbt.Executable>
rbdock ($Id: //depot/dev/client3/rdock/2013.1/src/exe/rbdock.cxx#4 $)

>  <Rbt.Library>
libRbt.so (2013.1, Build901 2013/11/27)

>  <Rbt.Parameter_File>
/export/apps/rDock/src/rDock_2013.1_src/data/scripts/dock_solv.prm

>  <Rbt.Receptor>
prm/blind_docking_40.prm

>  <SCORE>
27.2098

>  <SCORE.INTER>
11.5705

>  <SCORE.INTER.CONST>
1

>  <SCORE.INTER.POLAR>
-0.656671

>  <SCORE.INTER.ROT>
10

>  <SCORE.INTER.SOLV>
19.4956

>  <SCORE.INTER.VDW>
-6.86265

>  <SCORE.INTER.norm>
0.289262

>  <SCORE.INTRA>
7.23245

>  <SCORE.INTRA.DIHEDRAL>
0.705628

>  <SCORE.INTRA.DIHEDRAL.0>
22.5778

>  <SCORE.INTRA.POLAR>
0

>  <SCORE.INTRA.POLAR.0>
0

>  <SCORE.INTRA.REPUL>
0

>  <SCORE.INTRA.REPUL.0>
0

>  <SCORE.INTRA.SOLV>
9.32264

>  <SCORE.INTRA.SOLV.lig_0>
-102.332

>  <SCORE.INTRA.VDW>
2.21831

>  <SCORE.INTRA.VDW.0>
-5.08747

>  <SCORE.INTRA.norm>
0.180811

>  <SCORE.RESTR>
8.40683

>  <SCORE.RESTR.CAVITY>
8.40683

>  <SCORE.RESTR.norm>
0.210171

>  <SCORE.SYSTEM>
0

>  <SCORE.SYSTEM.CONST>
0

>  <SCORE.SYSTEM.DIHEDRAL>
0

>  <SCORE.SYSTEM.SOLV>
0

>  <SCORE.SYSTEM.norm>
0

>  <SCORE.heavy>
40

>  <SCORE.norm>
0.680244

>  <RMSD>
34.034

$$$$
2g5q_lig
 OpenBabel11021811433D
libRbt.so/2013.1/901 2013/11/27
 40 42  0  0  0  0  0  0  0  0999 V2000
   24.3138    5.8726    4.2660 C   0  0  2  0  0  0  0  0  0  0  0  0
   24.7887    7.1946    4.1387 O   0  0  0  0  0  0  0  0  0  0  0  0
   25.5226    4.8946    4.1809 C   0  0  1  0  0  0  0  0  0  0  0  0
   26.1778    4.9013    2.7652 C   0  0  2  0  0  0  0  0  0  0  0  0
   25.0934    4.4821    1.7389 C   0  0  2  0  0  0  0  0  0  0  0  0
   25.6655    4.4537    0.4212 O   0  0  0  0  0  0  0  0  0  0  0  0
   23.9035    5.5220    1.8217 C   0  0  2  0  0  0  0  0  0  0  0  0
   23.3339    5.5373    3.1995 O   0  0  0  0  0  0  0  0  0  0  0  0
   22.7672    5.1966    0.8582 C   0  0  0  0  0  0  0  0  0  0  0  0
   22.7096    3.7369    0.5301 N   0  0  0  0  0  0  0  0  0  0  0  0
   24.3739   10.5329    1.3528 C   0  0  2  0  0  0  0  0  0  0  0  0
   24.3124   11.2961    0.1120 N   0  0  0  0  0  0  0  0  0  0  0  0
   25.7902    9.8336    1.4971 C   0  0  0  0  0  0  0  0  0  0  0  0
   25.8637    9.0115    2.8437 C   0  0  2  0  0  0  0  0  0  0  0  0
   27.2001    8.3701    2.9723 N   0  0  0  0  0  0  0  0  0  0  0  0
   24.7048    7.9371    2.8695 C   0  0  2  0  0  0  0  0  0  0  0  0
   23.3128    8.6696    2.7192 C   0  0  2  0  0  0  0  0  0  0  0  0
   22.2656    7.6944    2.7365 O   0  0  0  0  0  0  0  0  0  0  0  0
   23.2551    9.4707    1.3628 C   0  0  1  0  0  0  0  0  0  0  0  0
   21.9768   10.1544    1.2327 O   0  0  0  0  0  0  0  0  0  0  0  0
   21.5118   11.1369    2.1252 C   0  0  2  0  0  0  0  0  0  0  0  0
   19.9499   11.0295    2.1695 C   0  0  2  0  0  0  0  0  0  0  0  0
   19.5834    9.7605    2.6072 O   0  0  0  0  0  0  0  0  0  0  0  0
   19.3176   11.3440    0.7609 C   0  0  1  0  0  0  0  0  0  0  0  0
   17.8210   11.2482    0.7942 N   0  0  0  0  0  0  0  0  0  0  0  0
   19.7769   12.7912    0.3227 C   0  0  2  0  0  0  0  0  0  0  0  0
   19.2265   13.1373   -0.9499 O   0  0  0  0  0  0  0  0  0  0  0  0
   21.3422   12.8317    0.2964 C   0  0  2  0  0  0  0  0  0  0  0  0
   21.9132   12.4690    1.6389 O   0  0  0  0  0  0  0  0  0  0  0  0
   21.8573   14.1898   -0.0828 C   0  0  0  0  0  0  0  0  0  0  0  0
   21.6306   15.1453    0.9662 O   0  0  0  0  0  0  0  0  0  0  0  0
   26.4954    5.2715    5.2152 O   0  0  0  0  0  0  0  0  0  0  0  0
   27.2293    4.0118    2.7429 O   0  0  0  0  0  0  0  0  0  0  0  0
   21.1752   10.3297   -1.8990 N   0  0  0  0  0  0  0  0  0  0  0  0
   23.9195   10.7917   -1.1199 C   0  0  0  0  0  0  0  0  0  0  0  0
   23.5822    9.6277   -1.3060 O   0  0  0  0  0  0  0  0  0  0  0  0
   23.9708   11.8584   -2.2379 C   0  0  1  0  0  0  0  0  0  0  0  0
   22.8108   11.6402   -3.2302 C   0  0  0  0  0  0  0  0  0  0  0  0
   21.4079   11.5825   -2.6146 C   0  0  0  0  0  0  0  0  0  0  0  0
   23.8994   13.1731   -1.6412 O   0  0  0  0  0  0  0  0  0  0  0  0
  1  2  1  6  0  0  0
  1  3  1  0  0  0  0
  1  8  1  0  0  0  0
  3  4  1  0  0  0  0
  3 32  1  1  0  0  0
  4  5  1  0  0  0  0
  4 33  1  1  0  0  0
  5  6  1  6  0  0  0
  5  7  1  0  0  0  0
  7  8  1  0  0  0  0
  7  9  1  6  0  0  0
  9 10  1  0  0  0  0
 11 12  1  6  0  0  0
 11 13  1  0  0  0  0
 11 19  1  0  0  0  0
 12 35  1  0  0  0  0
 13 14  1  0  0  0  0
 14 15  1  6  0  0  0
 14 16  1  0  0  0  0
 16  2  1  1  0  0  0
 16 17  1  0  0  0  0
 17 18  1  6  0  0  0
 17 19  1  0  0  0  0
 19 20  1  1  0  0  0
 21 20  1  6  0  0  0
 21 22  1  0  0  0  0
 21 29  1  0  0  0  0
 22 23  1  6  0  0  0
 22 24  1  0  0  0  0
 24 25  1  1  0  0  0
 24 26  1  0  0  0  0
 26 27  1  6  0  0  0
 26 28  1  0  0  0  0
 28 29  1  0  0  0  0
 28 30  1  1  0  0  0
 30 31  1  0  0  0  0
 34 39  1  0  0  0  0
 35 36  2  0  0  0  0
 37 35  1  1  0  0  0
 37 38  1  0  0  0  0
 37 40  1  0  0  0  0
 38 39  1  0  0  0  0
M  END
>  <CHROM.1>
100.22986071,25.97056481,88.03815011,-153.26255951,-58.29573061,-148.47287893
70.60836660,-144.25233391,54.10711668,-73.50642719,23.13993316,9.19953349
1.21344657,1.05536856,-0.31906727,2.54607831

>  <Name>
2g5q_lig

>  <RI>
224

>  <Rbt.Current_Directory>
/home/itssahil/PROJECTS/Mol_Feturizer/New_Systems/rnas/2g5q

>  <Rbt.Executable>
rbdock ($Id: //depot/dev/client3/rdock/2013.1/src/exe/rbdock.cxx#4 $)

>  <Rbt.Library>
libRbt.so (2013.1, Build901 2013/11/27)

>  <Rbt.Parameter_File>
/export/apps/rDock/src/rDock_2013.1_src/data/scripts/dock_solv.prm

>  <Rbt.Receptor>
prm/blind_docking_100.prm

>  <SCORE>
35.2908

>  <SCORE.INTER>
5.81791

>  <SCORE.INTER.CONST>
1

>  <SCORE.INTER.POLAR>
-0.546626

>  <SCORE.INTER.ROT>
10

>  <SCORE.INTER.SOLV>
25.3577

>  <SCORE.INTER.VDW>
-13.0185

>  <SCORE.INTER.norm>
0.145448

>  <SCORE.INTRA>
6.64803

>  <SCORE.INTRA.DIHEDRAL>
-3.44963

>  <SCORE.INTRA.DIHEDRAL.0>
22.5778

>  <SCORE.INTRA.POLAR>
0

>  <SCORE.INTRA.POLAR.0>
0

>  <SCORE.INTRA.REPUL>
0

>  <SCORE.INTRA.REPUL.0>
0

>  <SCORE.INTRA.SOLV>
12.7523

>  <SCORE.INTRA.SOLV.lig_0>
-102.332

>  <SCORE.INTRA.VDW>
1.99671

>  <SCORE.INTRA.VDW.0>
-5.08747

>  <SCORE.INTRA.norm>
0.166201

>  <SCORE.RESTR>
22.8249

>  <SCORE.RESTR.CAVITY>
22.8249

>  <SCORE.RESTR.norm>
0.570621

>  <SCORE.SYSTEM>
0

>  <SCORE.SYSTEM.CONST>
0

>  <SCORE.SYSTEM.DIHEDRAL>
0

>  <SCORE.SYSTEM.SOLV>
0

>  <SCORE.SYSTEM.norm>
0

>  <SCORE.heavy>
40

>  <SCORE.norm>
0.88227

>  <RMSD>
34.035

$$$$
2g5q_lig
 OpenBabel11021811433D
libRbt.so/2013.1/901 2013/11/27
 40 42  0  0  0  0  0  0  0  0999 V2000
   23.1529    3.9208   -1.5748 C   0  0  2  0  0  0  0  0  0  0  0  0
   22.8705    5.0360   -2.3909 O   0  0  0  0  0  0  0  0  0  0  0  0
   23.6241    2.7436   -2.4787 C   0  0  1  0  0  0  0  0  0  0  0  0
   22.4794    2.2257   -3.4034 C   0  0  2  0  0  0  0  0  0  0  0  0
   21.3140    1.7533   -2.4959 C   0  0  2  0  0  0  0  0  0  0  0  0
   20.2458    1.2460   -3.3120 O   0  0  0  0  0  0  0  0  0  0  0  0
   20.8320    2.9843   -1.6262 C   0  0  2  0  0  0  0  0  0  0  0  0
   21.9600    3.4956   -0.7961 O   0  0  0  0  0  0  0  0  0  0  0  0
   19.6901    2.6277   -0.6804 C   0  0  0  0  0  0  0  0  0  0  0  0
   20.0833    1.5664    0.2998 N   0  0  0  0  0  0  0  0  0  0  0  0
   23.0644    9.3255   -1.5910 C   0  0  2  0  0  0  0  0  0  0  0  0
   22.7452   10.6478   -1.0664 N   0  0  0  0  0  0  0  0  0  0  0  0
   21.8482    8.7639   -2.4404 C   0  0  0  0  0  0  0  0  0  0  0  0
   22.1927    7.3344   -3.0167 C   0  0  2  0  0  0  0  0  0  0  0  0
   21.0490    6.8240   -3.8201 N   0  0  0  0  0  0  0  0  0  0  0  0
   22.5416    6.3557   -1.8257 C   0  0  2  0  0  0  0  0  0  0  0  0
   23.7522    6.9496   -1.0020 C   0  0  2  0  0  0  0  0  0  0  0  0
   24.0622    6.0650    0.0794 O   0  0  0  0  0  0  0  0  0  0  0  0
   23.3819    8.3684   -0.4234 C   0  0  1  0  0  0  0  0  0  0  0  0
   24.5029    8.9184    0.3244 O   0  0  0  0  0  0  0  0  0  0  0  0
   24.3713    9.8132    1.4015 C   0  0  2  0  0  0  0  0  0  0  0  0
   24.9888    9.1220    2.6641 C   0  0  2  0  0  0  0  0  0  0  0  0
   26.3303    8.8367    2.4284 O   0  0  0  0  0  0  0  0  0  0  0  0
   24.1934    7.8162    3.0443 C   0  0  1  0  0  0  0  0  0  0  0  0
   24.7747    7.1491    4.2557 N   0  0  0  0  0  0  0  0  0  0  0  0
   22.6829    8.2095    3.2919 C   0  0  2  0  0  0  0  0  0  0  0  0
   21.9093    7.0623    3.6491 O   0  0  0  0  0  0  0  0  0  0  0  0
   22.1260    8.8914    1.9967 C   0  0  2  0  0  0  0  0  0  0  0  0
   22.9433   10.0983    1.6292 O   0  0  0  0  0  0  0  0  0  0  0  0
   20.6983    9.3235    2.1656 C   0  0  0  0  0  0  0  0  0  0  0  0
   19.7932    8.2268    1.9587 O   0  0  0  0  0  0  0  0  0  0  0  0
   24.7756    3.2002   -3.2686 O   0  0  0  0  0  0  0  0  0  0  0  0
   22.9464    1.1799   -4.1686 O   0  0  0  0  0  0  0  0  0  0  0  0
   21.3870   15.8224   -2.2390 N   0  0  0  0  0  0  0  0  0  0  0  0
   23.6722   11.6376   -0.7713 C   0  0  0  0  0  0  0  0  0  0  0  0
   24.8827   11.5051   -0.9142 O   0  0  0  0  0  0  0  0  0  0  0  0
   23.0093   12.9230   -0.2246 C   0  0  1  0  0  0  0  0  0  0  0  0
   22.6829   13.8841   -1.3856 C   0  0  0  0  0  0  0  0  0  0  0  0
   21.6703   14.9913   -1.0707 C   0  0  0  0  0  0  0  0  0  0  0  0
   21.8120   12.5656    0.5020 O   0  0  0  0  0  0  0  0  0  0  0  0
  1  2  1  6  0  0  0
  1  3  1  0  0  0  0
  1  8  1  0  0  0  0
  3  4  1  0  0  0  0
  3 32  1  6  0  0  0
  4  5  1  0  0  0  0
  4 33  1  1  0  0  0
  5  6  1  6  0  0  0
  5  7  1  0  0  0  0
  7  8  1  0  0  0  0
  7  9  1  1  0  0  0
  9 10  1  0  0  0  0
 11 12  1  1  0  0  0
 11 13  1  0  0  0  0
 11 19  1  0  0  0  0
 12 35  1  0  0  0  0
 13 14  1  0  0  0  0
 14 15  1  1  0  0  0
 14 16  1  0  0  0  0
 16  2  1  6  0  0  0
 16 17  1  0  0  0  0
 17 18  1  1  0  0  0
 17 19  1  0  0  0  0
 19 20  1  6  0  0  0
 21 20  1  6  0  0  0
 21 22  1  0  0  0  0
 21 29  1  0  0  0  0
 22 23  1  6  0  0  0
 22 24  1  0  0  0  0
 24 25  1  1  0  0  0
 24 26  1  0  0  0  0
 26 27  1  6  0  0  0
 26 28  1  0  0  0  0
 28 29  1  0  0  0  0
 28 30  1  1  0  0  0
 30 31  1  0  0  0  0
 34 39  1  0  0  0  0
 35 36  2  0  0  0  0
 37 35  1  6  0  0  0
 37 38  1  0  0  0  0
 37 40  1  0  0  0  0
 38 39  1  0  0  0  0
M  END
>  <CHROM.1>
-173.22258858,60.81614479,-152.37208524,-176.31180353,89.26401798,119.00676385
-81.77380166,-90.80293419,162.59573284,-177.96809439,22.67869788,7.45565620
-0.45058371,-2.01798640,-1.33426691,-0.17749013

>  <Name>
2g5q_lig

>  <RI>
0

>  <Rbt.Current_Directory>
/home/itssahil/PROJECTS/Mol_Feturizer/New_Systems/rnas/2g5q

>  <Rbt.Executable>
rbdock ($Id: //depot/dev/client3/rdock/2013.1/src/exe/rbdock.cxx#4 $)

>  <Rbt.Library>
libRbt.so (2013.1, Build901 2013/11/27)

>  <Rbt.Parameter_File>
/export/apps/rDock/src/rDock_2013.1_src/data/scripts/dock_solv.prm

>  <Rbt.Receptor>
prm/blind_docking_40.prm

>  <SCORE>
12.8962

>  <SCORE.INTER>
3.03675

>  <SCORE.INTER.CONST>
1

>  <SCORE.INTER.POLAR>
-0.959166

>  <SCORE.INTER.ROT>
10

>  <SCORE.INTER.SOLV>
20.5014

>  <SCORE.INTER.VDW>
-11.8787

>  <SCORE.INTER.norm>
0.0759188

>  <SCORE.INTRA>
-1.59773

>  <SCORE.INTRA.DIHEDRAL>
-6.93056

>  <SCORE.INTRA.DIHEDRAL.0>
22.5778

>  <SCORE.INTRA.POLAR>
0

>  <SCORE.INTRA.POLAR.0>
0

>  <SCORE.INTRA.REPUL>
0

>  <SCORE.INTRA.REPUL.0>
0

>  <SCORE.INTRA.SOLV>
1.93183

>  <SCORE.INTRA.SOLV.lig_0>
-102.332

>  <SCORE.INTRA.VDW>
0.901637

>  <SCORE.INTRA.VDW.0>
-5.08747

>  <SCORE.INTRA.norm>
-0.0399433

>  <SCORE.RESTR>
11.4572

>  <SCORE.RESTR.CAVITY>
11.4572

>  <SCORE.RESTR.norm>
0.28643

>  <SCORE.SYSTEM>
0

>  <SCORE.SYSTEM.CONST>
0

>  <SCORE.SYSTEM.DIHEDRAL>
0

>  <SCORE.SYSTEM.SOLV>
0

>  <SCORE.SYSTEM.norm>
0

>  <SCORE.heavy>
40

>  <SCORE.norm>
0.322405

>  <RMSD>
34.042

$$$$
2g5q_lig
 OpenBabel11021811433D
libRbt.so/2013.1/901 2013/11/27
 40 42  0  0  0  0  0  0  0  0999 V2000
   23.4752    3.6844   -1.7973 C   0  0  2  0  0  0  0  0  0  0  0  0
   23.1528    4.8210   -2.5678 O   0  0  0  0  0  0  0  0  0  0  0  0
   23.8352    2.5126   -2.7575 C   0  0  1  0  0  0  0  0  0  0  0  0
   22.6015    2.0403   -3.5872 C   0  0  2  0  0  0  0  0  0  0  0  0
   21.5069    1.5806   -2.5894 C   0  0  2  0  0  0  0  0  0  0  0  0
   20.3591    1.1150   -3.3175 O   0  0  0  0  0  0  0  0  0  0  0  0
   21.1347    2.8072   -1.6615 C   0  0  2  0  0  0  0  0  0  0  0  0
   22.3434    3.2750   -0.9246 O   0  0  0  0  0  0  0  0  0  0  0  0
   20.0700    2.4619   -0.6258 C   0  0  0  0  0  0  0  0  0  0  0  0
   19.7429    3.6284    0.2540 N   0  0  0  0  0  0  0  0  0  0  0  0
   23.0086    9.0671   -1.5541 C   0  0  2  0  0  0  0  0  0  0  0  0
   22.5768   10.3351   -0.9783 N   0  0  0  0  0  0  0  0  0  0  0  0
   21.8658    8.4652   -2.4749 C   0  0  0  0  0  0  0  0  0  0  0  0
   22.3322    7.0948   -3.1065 C   0  0  2  0  0  0  0  0  0  0  0  0
   21.2565    6.5467   -3.9761 N   0  0  0  0  0  0  0  0  0  0  0  0
   22.7102    6.0836   -1.9521 C   0  0  2  0  0  0  0  0  0  0  0  0
   23.8459    6.7187   -1.0555 C   0  0  2  0  0  0  0  0  0  0  0  0
   24.1820    5.8041   -0.0073 O   0  0  0  0  0  0  0  0  0  0  0  0
   23.3544    8.0765   -0.4231 C   0  0  1  0  0  0  0  0  0  0  0  0
   24.4066    8.6653    0.3921 O   0  0  0  0  0  0  0  0  0  0  0  0
   24.1867    9.6378    1.3841 C   0  0  2  0  0  0  0  0  0  0  0  0
   24.8650    9.1275    2.7004 C   0  0  2  0  0  0  0  0  0  0  0  0
   26.2283    8.9522    2.4831 O   0  0  0  0  0  0  0  0  0  0  0  0
   24.1982    7.7914    3.2032 C   0  0  1  0  0  0  0  0  0  0  0  0
   24.8382    7.2969    4.4665 N   0  0  0  0  0  0  0  0  0  0  0  0
   22.6563    8.0585    3.4235 C   0  0  2  0  0  0  0  0  0  0  0  0
   21.9961    6.8797    3.8888 O   0  0  0  0  0  0  0  0  0  0  0  0
   22.0393    8.5625    2.0752 C   0  0  2  0  0  0  0  0  0  0  0  0
   22.7374    9.8038    1.5939 O   0  0  0  0  0  0  0  0  0  0  0  0
   20.5762    8.8689    2.2132 C   0  0  0  0  0  0  0  0  0  0  0  0
   20.0082    9.2779    0.9582 O   0  0  0  0  0  0  0  0  0  0  0  0
   24.9257    2.9546   -3.6371 O   0  0  0  0  0  0  0  0  0  0  0  0
   22.9727    0.9973   -4.4067 O   0  0  0  0  0  0  0  0  0  0  0  0
   23.0249   15.2657   -2.7198 N   0  0  0  0  0  0  0  0  0  0  0  0
   23.4211   11.3580   -0.5698 C   0  0  0  0  0  0  0  0  0  0  0  0
   24.6440   11.3050   -0.6418 O   0  0  0  0  0  0  0  0  0  0  0  0
   22.6480   12.5678    0.0038 C   0  0  1  0  0  0  0  0  0  0  0  0
   22.2389   13.5223   -1.1363 C   0  0  0  0  0  0  0  0  0  0  0  0
   23.3816   14.0320   -2.0222 C   0  0  0  0  0  0  0  0  0  0  0  0
   21.4863   12.0908    0.7195 O   0  0  0  0  0  0  0  0  0  0  0  0
  1  2  1  6  0  0  0
  1  3  1  0  0  0  0
  1  8  1  0  0  0  0
  3  4  1  0  0  0  0
  3 32  1  6  0  0  0
  4  5  1  0  0  0  0
  4 33  1  6  0  0  0
  5  6  1  6  0  0  0
  5  7  1  0  0  0  0
  7  8  1  0  0  0  0
  7  9  1  1  0  0  0
  9 10  1  0  0  0  0
 11 12  1  1  0  0  0
 11 13  1  0  0  0  0
 11 19  1  0  0  0  0
 12 35  1  0  0  0  0
 13 14  1  0  0  0  0
 14 15  1  1  0  0  0
 14 16  1  0  0  0  0
 16  2  1  6  0  0  0
 16 17  1  0  0  0  0
 17 18  1  1  0  0  0
 17 19  1  0  0  0  0
 19 20  1  1  0  0  0
 21 20  1  6  0  0  0
 21 22  1  0  0  0  0
 21 29  1  0  0  0  0
 22 23  1  6  0  0  0
 22 24  1  0  0  0  0
 24 25  1  1  0  0  0
 24 26  1  0  0  0  0
 26 27  1  6  0  0  0
 26 28  1  0  0  0  0
 28 29  1  0  0  0  0
 28 30  1  1  0  0  0
 30 31  1  0  0  0  0
 34 39  1  0  0  0  0
 35 36  2  0  0  0  0
 37 35  1  6  0  0  0
 37 38  1  0  0  0  0
 37 40  1  0  0  0  0
 38 39  1  0  0  0  0
M  END
>  <CHROM.1>
177.30469180,179.27472685,-154.08995136,-175.71214996,79.89446845,127.79007648
-177.63467132,-86.45622248,-55.74308648,-158.57458090,22.77329589,7.30246636
-0.51471975,-2.42194427,-1.43761351,-0.53018389

>  <Name>
2g5q_lig

>  <RI>
0

>  <Rbt.Current_Directory>
/home/itssahil/PROJECTS/Mol_Feturizer/New_Systems/rnas/2g5q

>  <Rbt.Executable>
rbdock ($Id: //depot/dev/client3/rdock/2013.1/src/exe/rbdock.cxx#4 $)

>  <Rbt.Library>
libRbt.so (2013.1, Build901 2013/11/27)

>  <Rbt.Parameter_File>
/export/apps/rDock/src/rDock_2013.1_src/data/scripts/dock_solv.prm

>  <Rbt.Receptor>
prm/blind_docking_40.prm

>  <SCORE>
6.19614

>  <SCORE.INTER>
-0.772878

>  <SCORE.INTER.CONST>
1

>  <SCORE.INTER.POLAR>
-1.82179

>  <SCORE.INTER.ROT>
10

>  <SCORE.INTER.SOLV>
21.8334

>  <SCORE.INTER.VDW>
-11.9871

>  <SCORE.INTER.norm>
-0.0193219

>  <SCORE.INTRA>
-2.13949

>  <SCORE.INTRA.DIHEDRAL>
-10.1743

>  <SCORE.INTRA.DIHEDRAL.0>
22.5778

>  <SCORE.INTRA.POLAR>
0

>  <SCORE.INTRA.POLAR.0>
0

>  <SCORE.INTRA.REPUL>
0

>  <SCORE.INTRA.REPUL.0>
0

>  <SCORE.INTRA.SOLV>
1.63907

>  <SCORE.INTRA.SOLV.lig_0>
-102.332

>  <SCORE.INTRA.VDW>
2.12814

>  <SCORE.INTRA.VDW.0>
-5.08747

>  <SCORE.INTRA.norm>
-0.0534872

>  <SCORE.RESTR>
9.1085

>  <SCORE.RESTR.CAVITY>
9.1085

>  <SCORE.RESTR.norm>
0.227713

>  <SCORE.SYSTEM>
0

>  <SCORE.SYSTEM.CONST>
0

>  <SCORE.SYSTEM.DIHEDRAL>
0

>  <SCORE.SYSTEM.SOLV>
0

>  <SCORE.SYSTEM.norm>
0

>  <SCORE.heavy>
40

>  <SCORE.norm>
0.154903

>  <RMSD>
34.046

$$$$
2g5q_lig
 OpenBabel11021811433D
libRbt.so/2013.1/901 2013/11/27
 40 42  0  0  0  0  0  0  0  0999 V2000
   22.9316    5.6032   -3.3681 C   0  0  2  0  0  0  0  0  0  0  0  0
   22.2795    5.8050   -2.1338 O   0  0  0  0  0  0  0  0  0  0  0  0
   21.8567    5.4317   -4.4817 C   0  0  1  0  0  0  0  0  0  0  0  0
   21.0322    4.1202   -4.2975 C   0  0  2  0  0  0  0  0  0  0  0  0
   22.0227    2.9277   -4.3395 C   0  0  2  0  0  0  0  0  0  0  0  0
   21.2969    1.6960   -4.1959 O   0  0  0  0  0  0  0  0  0  0  0  0
   23.0708    3.1119   -3.1684 C   0  0  2  0  0  0  0  0  0  0  0  0
   23.8034    4.3994   -3.3368 O   0  0  0  0  0  0  0  0  0  0  0  0
   24.1084    1.9951   -3.1240 C   0  0  0  0  0  0  0  0  0  0  0  0
   25.0480    2.0547   -4.2882 N   0  0  0  0  0  0  0  0  0  0  0  0
   23.2214    6.4596    2.0806 C   0  0  2  0  0  0  0  0  0  0  0  0
   23.9296    6.8579    3.2912 N   0  0  0  0  0  0  0  0  0  0  0  0
   24.0814    5.4070    1.2632 C   0  0  0  0  0  0  0  0  0  0  0  0
   23.3147    4.9673   -0.0457 C   0  0  2  0  0  0  0  0  0  0  0  0
   24.1264    3.9721   -0.7972 N   0  0  0  0  0  0  0  0  0  0  0  0
   23.0044    6.2412   -0.9283 C   0  0  2  0  0  0  0  0  0  0  0  0
   22.1518    7.2664   -0.0804 C   0  0  2  0  0  0  0  0  0  0  0  0
   21.8776    8.4216   -0.8793 O   0  0  0  0  0  0  0  0  0  0  0  0
   22.9413    7.7035    1.2121 C   0  0  1  0  0  0  0  0  0  0  0  0
   22.1488    8.6382    1.9974 O   0  0  0  0  0  0  0  0  0  0  0  0
   22.6893    9.7051    2.7375 C   0  0  2  0  0  0  0  0  0  0  0  0
   21.6515   10.8776    2.6972 C   0  0  2  0  0  0  0  0  0  0  0  0
   20.4502   10.4545    3.2578 O   0  0  0  0  0  0  0  0  0  0  0  0
   21.4348   11.3955    1.2250 C   0  0  1  0  0  0  0  0  0  0  0  0
   20.4456   12.5221    1.1765 N   0  0  0  0  0  0  0  0  0  0  0  0
   22.8335   11.8527    0.6488 C   0  0  2  0  0  0  0  0  0  0  0  0
   22.6993   12.3416   -0.6873 O   0  0  0  0  0  0  0  0  0  0  0  0
   23.8214   10.6394    0.7150 C   0  0  2  0  0  0  0  0  0  0  0  0
   23.9590   10.1328    2.1236 O   0  0  0  0  0  0  0  0  0  0  0  0
   25.1873   11.0060    0.2113 C   0  0  0  0  0  0  0  0  0  0  0  0
   26.2013   10.1774    0.8028 O   0  0  0  0  0  0  0  0  0  0  0  0
   20.9823    6.6122   -4.4653 O   0  0  0  0  0  0  0  0  0  0  0  0
   20.1085    4.0133   -5.3138 O   0  0  0  0  0  0  0  0  0  0  0  0
   25.5180    4.8120    3.6921 N   0  0  0  0  0  0  0  0  0  0  0  0
   25.1441    7.5288    3.3246 C   0  0  0  0  0  0  0  0  0  0  0  0
   25.7701    7.8598    2.3237 O   0  0  0  0  0  0  0  0  0  0  0  0
   25.6300    7.7982    4.7675 C   0  0  1  0  0  0  0  0  0  0  0  0
   26.1711    6.4973    5.3944 C   0  0  0  0  0  0  0  0  0  0  0  0
   25.3724    5.2255    5.0862 C   0  0  0  0  0  0  0  0  0  0  0  0
   26.6507    8.8213    4.7398 O   0  0  0  0  0  0  0  0  0  0  0  0
  1  2  1  1  0  0  0
  1  3  1  0  0  0  0
  1  8  1  0  0  0  0
  3  4  1  0  0  0  0
  3 32  1  1  0  0  0
  4  5  1  0  0  0  0
  4 33  1  6  0  0  0
  5  6  1  1  0  0  0
  5  7  1  0  0  0  0
  7  8  1  0  0  0  0
  7  9  1  6  0  0  0
  9 10  1  0  0  0  0
 11 12  1  1  0  0  0
 11 13  1  0  0  0  0
 11 19  1  0  0  0  0
 12 35  1  0  0  0  0
 13 14  1  0  0  0  0
 14 15  1  6  0  0  0
 14 16  1  0  0  0  0
 16  2  1  6  0  0  0
 16 17  1  0  0  0  0
 17 18  1  6  0  0  0
 17 19  1  0  0  0  0
 19 20  1  1  0  0  0
 21 20  1  6  0  0  0
 21 22  1  0  0  0  0
 21 29  1  0  0  0  0
 22 23  1  6  0  0  0
 22 24  1  0  0  0  0
 24 25  1  1  0  0  0
 24 26  1  0  0  0  0
 26 27  1  6  0  0  0
 26 28  1  0  0  0  0
 28 29  1  0  0  0  0
 28 30  1  1  0  0  0
 30 31  1  0  0  0  0
 34 39  1  0  0  0  0
 35 36  2  0  0  0  0
 37 35  1  6  0  0  0
 37 38  1  0  0  0  0
 37 40  1  0  0  0  0
 38 39  1  0  0  0  0
M  END
>  <CHROM.1>
-168.69393984,69.42827732,63.59086608,-98.24300375,95.09891938,146.64463708
153.54486647,75.20060168,-40.30131479,70.60371132,23.26798430,7.10280601
0.09564708,1.86997809,0.95648459,-2.54440481

>  <Name>
2g5q_lig

>  <RI>
224

>  <Rbt.Current_Directory>
/home/itssahil/PROJECTS/Mol_Feturizer/New_Systems/rnas/2g5q

>  <Rbt.Executable>
rbdock ($Id: //depot/dev/client3/rdock/2013.1/src/exe/rbdock.cxx#4 $)

>  <Rbt.Library>
libRbt.so (2013.1, Build901 2013/11/27)

>  <Rbt.Parameter_File>
/export/apps/rDock/src/rDock_2013.1_src/data/scripts/dock_solv.prm

>  <Rbt.Receptor>
prm/blind_docking_60.prm

>  <SCORE>
17.0354

>  <SCORE.INTER>
-5.72486

>  <SCORE.INTER.CONST>
1

>  <SCORE.INTER.POLAR>
0

>  <SCORE.INTER.ROT>
10

>  <SCORE.INTER.SOLV>
23.3515

>  <SCORE.INTER.VDW>
-21.8671

>  <SCORE.INTER.norm>
-0.143121

>  <SCORE.INTRA>
5.97239

>  <SCORE.INTRA.DIHEDRAL>
-2.88375

>  <SCORE.INTRA.DIHEDRAL.0>
22.5778

>  <SCORE.INTRA.POLAR>
0

>  <SCORE.INTRA.POLAR.0>
0

>  <SCORE.INTRA.REPUL>
0.125199

>  <SCORE.INTRA.REPUL.0>
0

>  <SCORE.INTRA.SOLV>
11.6765

>  <SCORE.INTRA.SOLV.lig_0>
-102.332

>  <SCORE.INTRA.VDW>
0.949997

>  <SCORE.INTRA.VDW.0>
-5.08747

>  <SCORE.INTRA.norm>
0.14931

>  <SCORE.RESTR>
16.7879

>  <SCORE.RESTR.CAVITY>
16.7879

>  <SCORE.RESTR.norm>
0.419697

>  <SCORE.SYSTEM>
0

>  <SCORE.SYSTEM.CONST>
0

>  <SCORE.SYSTEM.DIHEDRAL>
0

>  <SCORE.SYSTEM.SOLV>
0

>  <SCORE.SYSTEM.norm>
0

>  <SCORE.heavy>
40

>  <SCORE.norm>
0.425886

>  <RMSD>
34.048

$$$$
2g5q_lig
 OpenBabel11021811433D
libRbt.so/2013.1/901 2013/11/27
 40 42  0  0  0  0  0  0  0  0999 V2000
   21.9594    4.1805   -3.1241 C   0  0  2  0  0  0  0  0  0  0  0  0
   22.7033    4.8214   -2.1115 O   0  0  0  0  0  0  0  0  0  0  0  0
   20.8588    3.3024   -2.4591 C   0  0  1  0  0  0  0  0  0  0  0  0
   21.4698    2.1103   -1.6596 C   0  0  2  0  0  0  0  0  0  0  0  0
   22.2972    1.2499   -2.6496 C   0  0  2  0  0  0  0  0  0  0  0  0
   22.8593    0.1254   -1.9539 O   0  0  0  0  0  0  0  0  0  0  0  0
   23.4318    2.1615   -3.2707 C   0  0  2  0  0  0  0  0  0  0  0  0
   22.8225    3.3234   -3.9788 O   0  0  0  0  0  0  0  0  0  0  0  0
   24.3034    1.4161   -4.2758 C   0  0  0  0  0  0  0  0  0  0  0  0
   25.5940    2.1286   -4.5373 N   0  0  0  0  0  0  0  0  0  0  0  0
   23.1164    9.1476   -1.6750 C   0  0  2  0  0  0  0  0  0  0  0  0
   22.8468   10.5286   -1.2929 N   0  0  0  0  0  0  0  0  0  0  0  0
   21.9292    8.5821   -2.5619 C   0  0  0  0  0  0  0  0  0  0  0  0
   22.2205    7.0883   -2.9841 C   0  0  2  0  0  0  0  0  0  0  0  0
   21.1056    6.5736   -3.8244 N   0  0  0  0  0  0  0  0  0  0  0  0
   22.4212    6.2040   -1.6896 C   0  0  2  0  0  0  0  0  0  0  0  0
   23.6067    6.7997   -0.8313 C   0  0  2  0  0  0  0  0  0  0  0  0
   23.7824    6.0012    0.3433 O   0  0  0  0  0  0  0  0  0  0  0  0
   23.2888    8.2845   -0.4079 C   0  0  1  0  0  0  0  0  0  0  0  0
   24.3875    8.8347    0.3720 O   0  0  0  0  0  0  0  0  0  0  0  0
   24.2257    9.7418    1.4346 C   0  0  2  0  0  0  0  0  0  0  0  0
   24.9281    9.1237    2.6906 C   0  0  2  0  0  0  0  0  0  0  0  0
   26.2786    8.9275    2.4184 O   0  0  0  0  0  0  0  0  0  0  0  0
   24.2384    7.7743    3.1219 C   0  0  1  0  0  0  0  0  0  0  0  0
   24.9015    7.1765    4.3274 N   0  0  0  0  0  0  0  0  0  0  0  0
   22.7122    8.0666    3.4091 C   0  0  2  0  0  0  0  0  0  0  0  0
   22.0324    6.8764    3.8135 O   0  0  0  0  0  0  0  0  0  0  0  0
   22.0699    8.6790    2.1188 C   0  0  2  0  0  0  0  0  0  0  0  0
   22.7887    9.9316    1.7014 O   0  0  0  0  0  0  0  0  0  0  0  0
   20.6210    9.0142    2.3240 C   0  0  0  0  0  0  0  0  0  0  0  0
   19.9351    9.1544    1.0690 O   0  0  0  0  0  0  0  0  0  0  0  0
   20.0461    4.1617   -1.5878 O   0  0  0  0  0  0  0  0  0  0  0  0
   20.4546    1.3620   -1.1056 O   0  0  0  0  0  0  0  0  0  0  0  0
   20.0794   12.6444    0.3487 N   0  0  0  0  0  0  0  0  0  0  0  0
   22.8983   11.6207   -2.1478 C   0  0  0  0  0  0  0  0  0  0  0  0
   23.1882   11.5451   -3.3368 O   0  0  0  0  0  0  0  0  0  0  0  0
   22.5657   12.9487   -1.4294 C   0  0  1  0  0  0  0  0  0  0  0  0
   22.5480   12.7335    0.0976 C   0  0  0  0  0  0  0  0  0  0  0  0
   21.3397   11.9682    0.6496 C   0  0  0  0  0  0  0  0  0  0  0  0
   23.5457   13.9449   -1.7989 O   0  0  0  0  0  0  0  0  0  0  0  0
  1  2  1  1  0  0  0
  1  3  1  0  0  0  0
  1  8  1  0  0  0  0
  3  4  1  0  0  0  0
  3 32  1  1  0  0  0
  4  5  1  0  0  0  0
  4 33  1  6  0  0  0
  5  6  1  1  0  0  0
  5  7  1  0  0  0  0
  7  8  1  0  0  0  0
  7  9  1  6  0  0  0
  9 10  1  0  0  0  0
 11 12  1  1  0  0  0
 11 13  1  0  0  0  0
 11 19  1  0  0  0  0
 12 35  1  0  0  0  0
 13 14  1  0  0  0  0
 14 15  1  1  0  0  0
 14 16  1  0  0  0  0
 16  2  1  6  0  0  0
 16 17  1  0  0  0  0
 17 18  1  1  0  0  0
 17 19  1  0  0  0  0
 19 20  1  1  0  0  0
 21 20  1  6  0  0  0
 21 22  1  0  0  0  0
 21 29  1  0  0  0  0
 22 23  1  6  0  0  0
 22 24  1  0  0  0  0
 24 25  1  1  0  0  0
 24 26  1  0  0  0  0
 26 27  1  6  0  0  0
 26 28  1  0  0  0  0
 28 29  1  0  0  0  0
 28 30  1  1  0  0  0
 30 31  1  0  0  0  0
 34 39  1  0  0  0  0
 35 36  2  0  0  0  0
 37 35  1  6  0  0  0
 37 38  1  0  0  0  0
 37 40  1  0  0  0  0
 38 39  1  0  0  0  0
M  END
>  <CHROM.1>
-97.19735556,-162.58216212,-72.08321568,-45.05472028,95.18537062,124.82314809
-161.13347162,11.47532449,-73.43983463,-59.66861683,22.70430837,7.23880639
-0.64963059,1.74654666,1.42450982,-2.95576870

>  <Name>
2g5q_lig

>  <RI>
0

>  <Rbt.Current_Directory>
/home/itssahil/PROJECTS/Mol_Feturizer/New_Systems/rnas/2g5q

>  <Rbt.Executable>
rbdock ($Id: //depot/dev/client3/rdock/2013.1/src/exe/rbdock.cxx#4 $)

>  <Rbt.Library>
libRbt.so (2013.1, Build901 2013/11/27)

>  <Rbt.Parameter_File>
/export/apps/rDock/src/rDock_2013.1_src/data/scripts/dock_solv.prm

>  <Rbt.Receptor>
prm/blind_docking_40.prm

>  <SCORE>
18.9252

>  <SCORE.INTER>
2.39297

>  <SCORE.INTER.CONST>
1

>  <SCORE.INTER.POLAR>
-0.863503

>  <SCORE.INTER.ROT>
10

>  <SCORE.INTER.SOLV>
20.3559

>  <SCORE.INTER.VDW>
-12.5783

>  <SCORE.INTER.norm>
0.0598243

>  <SCORE.INTRA>
5.98667

>  <SCORE.INTRA.DIHEDRAL>
0.29434

>  <SCORE.INTRA.DIHEDRAL.0>
22.5778

>  <SCORE.INTRA.POLAR>
0

>  <SCORE.INTRA.POLAR.0>
0

>  <SCORE.INTRA.REPUL>
0

>  <SCORE.INTRA.REPUL.0>
0

>  <SCORE.INTRA.SOLV>
4.6746

>  <SCORE.INTRA.SOLV.lig_0>
-102.332

>  <SCORE.INTRA.VDW>
3.5022

>  <SCORE.INTRA.VDW.0>
-5.08747

>  <SCORE.INTRA.norm>
0.149667

>  <SCORE.RESTR>
10.5456

>  <SCORE.RESTR.CAVITY>
10.5456

>  <SCORE.RESTR.norm>
0.26364

>  <SCORE.SYSTEM>
0

>  <SCORE.SYSTEM.CONST>
0

>  <SCORE.SYSTEM.DIHEDRAL>
0

>  <SCORE.SYSTEM.SOLV>
0

>  <SCORE.SYSTEM.norm>
0

>  <SCORE.heavy>
40

>  <SCORE.norm>
0.473131

>  <RMSD>
34.057

$$$$
2g5q_lig
 OpenBabel11021811433D
libRbt.so/2013.1/901 2013/11/27
 40 42  0  0  0  0  0  0  0  0999 V2000
   23.0208    3.7951   -3.7879 C   0  0  2  0  0  0  0  0  0  0  0  0
   23.6443    4.4230   -2.6895 O   0  0  0  0  0  0  0  0  0  0  0  0
   21.7371    3.0688   -3.2886 C   0  0  1  0  0  0  0  0  0  0  0  0
   22.0747    1.8752   -2.3425 C   0  0  2  0  0  0  0  0  0  0  0  0
   22.9638    0.8804   -3.1329 C   0  0  2  0  0  0  0  0  0  0  0  0
   23.2782   -0.2478   -2.3005 O   0  0  0  0  0  0  0  0  0  0  0  0
   24.2768    1.6394   -3.5846 C   0  0  2  0  0  0  0  0  0  0  0  0
   23.9222    2.8085   -4.4392 O   0  0  0  0  0  0  0  0  0  0  0  0
   25.2238    0.7538   -4.3873 C   0  0  0  0  0  0  0  0  0  0  0  0
   24.6747    0.4263   -5.7411 N   0  0  0  0  0  0  0  0  0  0  0  0
   23.2696    8.3679   -0.8524 C   0  0  2  0  0  0  0  0  0  0  0  0
   22.6943    9.5378   -0.1997 N   0  0  0  0  0  0  0  0  0  0  0  0
   22.5467    8.1023   -2.2391 C   0  0  0  0  0  0  0  0  0  0  0  0
   23.1718    6.8398   -2.9530 C   0  0  2  0  0  0  0  0  0  0  0  0
   22.4930    6.6083   -4.2567 N   0  0  0  0  0  0  0  0  0  0  0  0
   23.0436    5.5810   -2.0059 C   0  0  2  0  0  0  0  0  0  0  0  0
   23.7704    5.8845   -0.6360 C   0  0  2  0  0  0  0  0  0  0  0  0
   23.6476    4.7459    0.2221 O   0  0  0  0  0  0  0  0  0  0  0  0
   23.1214    7.1376    0.0665 C   0  0  1  0  0  0  0  0  0  0  0  0
   23.8007    7.4223    1.3218 O   0  0  0  0  0  0  0  0  0  0  0  0
   23.5490    6.7440    2.5280 C   0  0  2  0  0  0  0  0  0  0  0  0
   24.1603    7.6032    3.6861 C   0  0  2  0  0  0  0  0  0  0  0  0
   23.5616    8.8593    3.6990 O   0  0  0  0  0  0  0  0  0  0  0  0
   25.7243    7.7260    3.5392 C   0  0  1  0  0  0  0  0  0  0  0  0
   26.3200    8.5436    4.6468 N   0  0  0  0  0  0  0  0  0  0  0  0
   26.3374    6.2695    3.5257 C   0  0  2  0  0  0  0  0  0  0  0  0
   27.7602    6.3164    3.4014 O   0  0  0  0  0  0  0  0  0  0  0  0
   25.6889    5.4657    2.3484 C   0  0  2  0  0  0  0  0  0  0  0  0
   24.1928    5.4189    2.4878 O   0  0  0  0  0  0  0  0  0  0  0  0
   26.2004    4.0556    2.2894 C   0  0  0  0  0  0  0  0  0  0  0  0
   25.9072    3.3431    3.5024 O   0  0  0  0  0  0  0  0  0  0  0  0
   20.8825    4.0538   -2.6122 O   0  0  0  0  0  0  0  0  0  0  0  0
   20.9072    1.2629   -1.9430 O   0  0  0  0  0  0  0  0  0  0  0  0
   23.6183   12.3562   -1.8148 N   0  0  0  0  0  0  0  0  0  0  0  0
   23.4060   10.4764    0.5341 C   0  0  0  0  0  0  0  0  0  0  0  0
   24.6160   10.4211    0.7244 O   0  0  0  0  0  0  0  0  0  0  0  0
   22.4994   11.5931    1.1012 C   0  0  1  0  0  0  0  0  0  0  0  0
   21.8697   12.3995   -0.0527 C   0  0  0  0  0  0  0  0  0  0  0  0
   22.8474   13.2090   -0.9124 C   0  0  0  0  0  0  0  0  0  0  0  0
   21.4779   10.9970    1.9321 O   0  0  0  0  0  0  0  0  0  0  0  0
  1  2  1  1  0  0  0
  1  3  1  0  0  0  0
  1  8  1  0  0  0  0
  3  4  1  0  0  0  0
  3 32  1  1  0  0  0
  4  5  1  0  0  0  0
  4 33  1  6  0  0  0
  5  6  1  1  0  0  0
  5  7  1  0  0  0  0
  7  8  1  0  0  0  0
  7  9  1  6  0  0  0
  9 10  1  0  0  0  0
 11 12  1  1  0  0  0
 11 13  1  0  0  0  0
 11 19  1  0  0  0  0
 12 35  1  0  0  0  0
 13 14  1  0  0  0  0
 14 15  1  6  0  0  0
 14 16  1  0  0  0  0
 16  2  1  6  0  0  0
 16 17  1  0  0  0  0
 17 18  1  1  0  0  0
 17 19  1  0  0  0  0
 19 20  1  1  0  0  0
 21 20  1  6  0  0  0
 21 22  1  0  0  0  0
 21 29  1  0  0  0  0
 22 23  1  6  0  0  0
 22 24  1  0  0  0  0
 24 25  1  1  0  0  0
 24 26  1  0  0  0  0
 26 27  1  6  0  0  0
 26 28  1  0  0  0  0
 28 29  1  0  0  0  0
 28 30  1  1  0  0  0
 30 31  1  0  0  0  0
 34 39  1  0  0  0  0
 35 36  2  0  0  0  0
 37 35  1  6  0  0  0
 37 38  1  0  0  0  0
 37 40  1  0  0  0  0
 38 39  1  0  0  0  0
M  END
>  <CHROM.1>
-68.83729924,69.71479883,-142.70598711,-72.37014331,159.66844396,-164.04842480
60.19716095,-63.88607054,-65.74515364,74.60609011,23.69823780,6.13219858
-0.34052204,1.68964852,1.08289927,-2.69410874

>  <Name>
2g5q_lig

>  <RI>
0

>  <Rbt.Current_Directory>
/home/itssahil/PROJECTS/Mol_Feturizer/New_Systems/rnas/2g5q

>  <Rbt.Executable>
rbdock ($Id: //depot/dev/client3/rdock/2013.1/src/exe/rbdock.cxx#4 $)

>  <Rbt.Library>
libRbt.so (2013.1, Build901 2013/11/27)

>  <Rbt.Parameter_File>
/export/apps/rDock/src/rDock_2013.1_src/data/scripts/dock_solv.prm

>  <Rbt.Receptor>
prm/blind_docking_40.prm

>  <SCORE>
-5.03872

>  <SCORE.INTER>
-12.8299

>  <SCORE.INTER.CONST>
1

>  <SCORE.INTER.POLAR>
-0.590705

>  <SCORE.INTER.ROT>
10

>  <SCORE.INTER.SOLV>
22.1589

>  <SCORE.INTER.VDW>
-24.2372

>  <SCORE.INTER.norm>
-0.320747

>  <SCORE.INTRA>
-3.92906

>  <SCORE.INTRA.DIHEDRAL>
-15.5589

>  <SCORE.INTRA.DIHEDRAL.0>
22.5778

>  <SCORE.INTRA.POLAR>
0

>  <SCORE.INTRA.POLAR.0>
0

>  <SCORE.INTRA.REPUL>
0

>  <SCORE.INTRA.REPUL.0>
0

>  <SCORE.INTRA.SOLV>
7.0356

>  <SCORE.INTRA.SOLV.lig_0>
-102.332

>  <SCORE.INTRA.VDW>
0.332569

>  <SCORE.INTRA.VDW.0>
-5.08747

>  <SCORE.INTRA.norm>
-0.0982265

>  <SCORE.RESTR>
11.7202

>  <SCORE.RESTR.CAVITY>
11.7202

>  <SCORE.RESTR.norm>
0.293005

>  <SCORE.SYSTEM>
0

>  <SCORE.SYSTEM.CONST>
0

>  <SCORE.SYSTEM.DIHEDRAL>
0

>  <SCORE.SYSTEM.SOLV>
0

>  <SCORE.SYSTEM.norm>
0

>  <SCORE.heavy>
40

>  <SCORE.norm>
-0.125968

>  <RMSD>
34.057

$$$$
2g5q_lig
 OpenBabel11021811433D
libRbt.so/2013.1/901 2013/11/27
 40 42  0  0  0  0  0  0  0  0999 V2000
   23.4092    3.8254   -1.7465 C   0  0  2  0  0  0  0  0  0  0  0  0
   22.8820    4.8746   -2.5280 O   0  0  0  0  0  0  0  0  0  0  0  0
   23.7265    2.6173   -2.6764 C   0  0  1  0  0  0  0  0  0  0  0  0
   22.4312    1.9927   -3.2812 C   0  0  2  0  0  0  0  0  0  0  0  0
   21.5361    1.5251   -2.1044 C   0  0  2  0  0  0  0  0  0  0  0  0
   20.3396    0.9213   -2.6222 O   0  0  0  0  0  0  0  0  0  0  0  0
   21.1974    2.7844   -1.2079 C   0  0  2  0  0  0  0  0  0  0  0  0
   22.4549    3.3958   -0.6906 O   0  0  0  0  0  0  0  0  0  0  0  0
   20.3272    2.4357   -0.0051 C   0  0  0  0  0  0  0  0  0  0  0  0
   19.9670    3.6471    0.7977 N   0  0  0  0  0  0  0  0  0  0  0  0
   22.9674    9.1527   -1.6520 C   0  0  2  0  0  0  0  0  0  0  0  0
   22.6110   10.4582   -1.1092 N   0  0  0  0  0  0  0  0  0  0  0  0
   21.7758    8.5788   -2.5276 C   0  0  0  0  0  0  0  0  0  0  0  0
   22.1604    7.1677   -3.1236 C   0  0  2  0  0  0  0  0  0  0  0  0
   21.0395    6.6457   -3.9513 N   0  0  0  0  0  0  0  0  0  0  0  0
   22.5156    6.1764   -1.9449 C   0  0  2  0  0  0  0  0  0  0  0  0
   23.7012    6.7830   -1.0944 C   0  0  2  0  0  0  0  0  0  0  0  0
   24.0167    5.8869   -0.0242 O   0  0  0  0  0  0  0  0  0  0  0  0
   23.2909    8.1828   -0.4967 C   0  0  1  0  0  0  0  0  0  0  0  0
   24.3889    8.7448    0.2758 O   0  0  0  0  0  0  0  0  0  0  0  0
   24.2303    9.7041    1.2920 C   0  0  2  0  0  0  0  0  0  0  0  0
   24.9211    9.1419    2.5804 C   0  0  2  0  0  0  0  0  0  0  0  0
   26.2710    8.9206    2.3251 O   0  0  0  0  0  0  0  0  0  0  0  0
   24.2171    7.8213    3.0734 C   0  0  1  0  0  0  0  0  0  0  0  0
   24.8689    7.2772    4.3101 N   0  0  0  0  0  0  0  0  0  0  0  0
   22.6922    8.1408    3.3380 C   0  0  2  0  0  0  0  0  0  0  0  0
   21.9997    6.9779    3.7965 O   0  0  0  0  0  0  0  0  0  0  0  0
   22.0616    8.6952    2.0161 C   0  0  2  0  0  0  0  0  0  0  0  0
   22.7938    9.9194    1.5418 O   0  0  0  0  0  0  0  0  0  0  0  0
   20.6149    9.0528    2.1971 C   0  0  0  0  0  0  0  0  0  0  0  0
   19.7547    8.0362    1.6572 O   0  0  0  0  0  0  0  0  0  0  0  0
   24.6362    3.0756   -3.7350 O   0  0  0  0  0  0  0  0  0  0  0  0
   22.7687    0.9239   -4.0819 O   0  0  0  0  0  0  0  0  0  0  0  0
   24.9484   15.0246   -1.9144 N   0  0  0  0  0  0  0  0  0  0  0  0
   22.2274   11.5603   -1.8604 C   0  0  0  0  0  0  0  0  0  0  0  0
   22.1516   11.5607   -3.0842 O   0  0  0  0  0  0  0  0  0  0  0  0
   21.9221   12.7957   -0.9823 C   0  0  1  0  0  0  0  0  0  0  0  0
   23.1927   13.6539   -0.8175 C   0  0  0  0  0  0  0  0  0  0  0  0
   23.9587   13.9668   -2.1081 C   0  0  0  0  0  0  0  0  0  0  0  0
   20.8586   13.5599   -1.5941 O   0  0  0  0  0  0  0  0  0  0  0  0
  1  2  1  6  0  0  0
  1  3  1  0  0  0  0
  1  8  1  0  0  0  0
  3  4  1  0  0  0  0
  3 32  1  6  0  0  0
  4  5  1  0  0  0  0
  4 33  1  6  0  0  0
  5  6  1  6  0  0  0
  5  7  1  0  0  0  0
  7  8  1  0  0  0  0
  7  9  1  1  0  0  0
  9 10  1  0  0  0  0
 11 12  1  1  0  0  0
 11 13  1  0  0  0  0
 11 19  1  0  0  0  0
 12 35  1  0  0  0  0
 13 14  1  0  0  0  0
 14 15  1  1  0  0  0
 14 16  1  0  0  0  0
 16  2  1  6  0  0  0
 16 17  1  0  0  0  0
 17 18  1  1  0  0  0
 17 19  1  0  0  0  0
 19 20  1  6  0  0  0
 21 20  1  6  0  0  0
 21 22  1  0  0  0  0
 21 29  1  0  0  0  0
 22 23  1  6  0  0  0
 22 24  1  0  0  0  0
 24 25  1  1  0  0  0
 24 26  1  0  0  0  0
 26 27  1  6  0  0  0
 26 28  1  0  0  0  0
 28 29  1  0  0  0  0
 28 30  1  1  0  0  0
 30 31  1  0  0  0  0
 34 39  1  0  0  0  0
 35 36  2  0  0  0  0
 37 35  1  6  0  0  0
 37 38  1  0  0  0  0
 37 40  1  0  0  0  0
 38 39  1  0  0  0  0
M  END
>  <CHROM.1>
-178.22682562,-177.48945782,-56.88082898,172.03589550,83.62914099,125.85920322
-101.54711276,91.68667750,48.27795789,166.55554916,22.69148527,7.36375370
-0.59588352,2.38892043,1.41981277,2.52538568

>  <Name>
2g5q_lig

>  <RI>
0

>  <Rbt.Current_Directory>
/home/itssahil/PROJECTS/Mol_Feturizer/New_Systems/rnas/2g5q

>  <Rbt.Executable>
rbdock ($Id: //depot/dev/client3/rdock/2013.1/src/exe/rbdock.cxx#4 $)

>  <Rbt.Library>
libRbt.so (2013.1, Build901 2013/11/27)

>  <Rbt.Parameter_File>
/export/apps/rDock/src/rDock_2013.1_src/data/scripts/dock_solv.prm

>  <Rbt.Receptor>
prm/blind_docking_40.prm

>  <SCORE>
6.27238

>  <SCORE.INTER>
-1.58245

>  <SCORE.INTER.CONST>
1

>  <SCORE.INTER.POLAR>
-1.81887

>  <SCORE.INTER.ROT>
10

>  <SCORE.INTER.SOLV>
26.3486

>  <SCORE.INTER.VDW>
-14.0416

>  <SCORE.INTER.norm>
-0.0395612

>  <SCORE.INTRA>
-1.5763

>  <SCORE.INTRA.DIHEDRAL>
-5.81338

>  <SCORE.INTRA.DIHEDRAL.0>
22.5778

>  <SCORE.INTRA.POLAR>
0

>  <SCORE.INTRA.POLAR.0>
0

>  <SCORE.INTRA.REPUL>
0

>  <SCORE.INTRA.REPUL.0>
0

>  <SCORE.INTRA.SOLV>
-0.712366

>  <SCORE.INTRA.SOLV.lig_0>
-102.332

>  <SCORE.INTRA.VDW>
1.68657

>  <SCORE.INTRA.VDW.0>
-5.08747

>  <SCORE.INTRA.norm>
-0.0394075

>  <SCORE.RESTR>
9.43112

>  <SCORE.RESTR.CAVITY>
9.43112

>  <SCORE.RESTR.norm>
0.235778

>  <SCORE.SYSTEM>
0

>  <SCORE.SYSTEM.CONST>
0

>  <SCORE.SYSTEM.DIHEDRAL>
0

>  <SCORE.SYSTEM.SOLV>
0

>  <SCORE.SYSTEM.norm>
0

>  <SCORE.heavy>
40

>  <SCORE.norm>
0.156809

>  <RMSD>
34.064

$$$$
2g5q_lig
 OpenBabel11021811433D
libRbt.so/2013.1/901 2013/11/27
 40 42  0  0  0  0  0  0  0  0999 V2000
   24.4706    5.5324    4.3690 C   0  0  2  0  0  0  0  0  0  0  0  0
   24.7940    6.9031    4.2898 O   0  0  0  0  0  0  0  0  0  0  0  0
   25.7773    4.7216    4.6135 C   0  0  1  0  0  0  0  0  0  0  0  0
   26.7413    4.7884    3.3887 C   0  0  2  0  0  0  0  0  0  0  0  0
   25.9897    4.2103    2.1616 C   0  0  2  0  0  0  0  0  0  0  0  0
   26.8548    4.2332    1.0147 O   0  0  0  0  0  0  0  0  0  0  0  0
   24.6940    5.0849    1.9162 C   0  0  2  0  0  0  0  0  0  0  0  0
   23.8188    5.0505    3.1228 O   0  0  0  0  0  0  0  0  0  0  0  0
   23.8658    4.5940    0.7335 C   0  0  0  0  0  0  0  0  0  0  0  0
   22.7333    5.5210    0.4174 N   0  0  0  0  0  0  0  0  0  0  0  0
   24.7384   10.0926    1.3063 C   0  0  2  0  0  0  0  0  0  0  0  0
   24.9102   10.8094    0.0484 N   0  0  0  0  0  0  0  0  0  0  0  0
   26.1393    9.5699    1.8356 C   0  0  0  0  0  0  0  0  0  0  0  0
   25.9588    8.7987    3.2021 C   0  0  2  0  0  0  0  0  0  0  0  0
   27.2806    8.3237    3.6931 N   0  0  0  0  0  0  0  0  0  0  0  0
   24.9536    7.5959    3.0000 C   0  0  2  0  0  0  0  0  0  0  0  0
   23.5740    8.1543    2.4692 C   0  0  2  0  0  0  0  0  0  0  0  0
   22.6677    7.0629    2.2810 O   0  0  0  0  0  0  0  0  0  0  0  0
   23.7745    8.9062    1.0982 C   0  0  1  0  0  0  0  0  0  0  0  0
   22.5044    9.4301    0.6178 O   0  0  0  0  0  0  0  0  0  0  0  0
   21.2467    8.9566    1.0327 C   0  0  2  0  0  0  0  0  0  0  0  0
   20.2316    9.2442   -0.1249 C   0  0  2  0  0  0  0  0  0  0  0  0
   20.6441    8.5855   -1.2792 O   0  0  0  0  0  0  0  0  0  0  0  0
   20.0845   10.7919   -0.3815 C   0  0  1  0  0  0  0  0  0  0  0  0
   19.1105   11.0779   -1.4859 N   0  0  0  0  0  0  0  0  0  0  0  0
   19.6213   11.4764    0.9654 C   0  0  2  0  0  0  0  0  0  0  0  0
   19.4629   12.8861    0.7927 O   0  0  0  0  0  0  0  0  0  0  0  0
   20.6755   11.1537    2.0777 C   0  0  2  0  0  0  0  0  0  0  0  0
   20.8344    9.6694    2.2551 O   0  0  0  0  0  0  0  0  0  0  0  0
   20.2872   11.7468    3.4010 C   0  0  0  0  0  0  0  0  0  0  0  0
   18.9963   11.2784    3.8241 O   0  0  0  0  0  0  0  0  0  0  0  0
   26.4248    5.2433    5.8246 O   0  0  0  0  0  0  0  0  0  0  0  0
   27.8707    4.0457    3.6537 O   0  0  0  0  0  0  0  0  0  0  0  0
   24.8253   12.8000   -4.8077 N   0  0  0  0  0  0  0  0  0  0  0  0
   24.0107   11.7240   -0.4815 C   0  0  0  0  0  0  0  0  0  0  0  0
   22.9512   12.0299    0.0543 O   0  0  0  0  0  0  0  0  0  0  0  0
   24.4857   12.3029   -1.8342 C   0  0  1  0  0  0  0  0  0  0  0  0
   23.3859   12.1251   -2.9005 C   0  0  0  0  0  0  0  0  0  0  0  0
   23.5299   12.9898   -4.1582 C   0  0  0  0  0  0  0  0  0  0  0  0
   24.8162   13.6994   -1.6613 O   0  0  0  0  0  0  0  0  0  0  0  0
  1  2  1  6  0  0  0
  1  3  1  0  0  0  0
  1  8  1  0  0  0  0
  3  4  1  0  0  0  0
  3 32  1  1  0  0  0
  4  5  1  0  0  0  0
  4 33  1  1  0  0  0
  5  6  1  6  0  0  0
  5  7  1  0  0  0  0
  7  8  1  0  0  0  0
  7  9  1  6  0  0  0
  9 10  1  0  0  0  0
 11 12  1  6  0  0  0
 11 13  1  0  0  0  0
 11 19  1  0  0  0  0
 12 35  1  0  0  0  0
 13 14  1  0  0  0  0
 14 15  1  6  0  0  0
 14 16  1  0  0  0  0
 16  2  1  1  0  0  0
 16 17  1  0  0  0  0
 17 18  1  6  0  0  0
 17 19  1  0  0  0  0
 19 20  1  1  0  0  0
 21 20  1  6  0  0  0
 21 22  1  0  0  0  0
 21 29  1  0  0  0  0
 22 23  1  6  0  0  0
 22 24  1  0  0  0  0
 24 25  1  6  0  0  0
 24 26  1  0  0  0  0
 26 27  1  6  0  0  0
 26 28  1  0  0  0  0
 28 29  1  0  0  0  0
 28 30  1  1  0  0  0
 30 31  1  0  0  0  0
 34 39  1  0  0  0  0
 35 36  2  0  0  0  0
 37 35  1  1  0  0  0
 37 38  1  0  0  0  0
 37 40  1  0  0  0  0
 38 39  1  0  0  0  0
M  END
>  <CHROM.1>
98.62326080,-173.41063480,-159.41211987,-152.12981378,-140.01320688,-153.64479676
57.66094189,126.74061974,162.95560538,55.48717028,23.47991164,8.82040225
1.27817633,1.05746177,-0.39231798,2.36242441

>  <Name>
2g5q_lig

>  <RI>
224

>  <Rbt.Current_Directory>
/home/itssahil/PROJECTS/Mol_Feturizer/New_Systems/rnas/2g5q

>  <Rbt.Executable>
rbdock ($Id: //depot/dev/client3/rdock/2013.1/src/exe/rbdock.cxx#4 $)

>  <Rbt.Library>
libRbt.so (2013.1, Build901 2013/11/27)

>  <Rbt.Parameter_File>
/export/apps/rDock/src/rDock_2013.1_src/data/scripts/dock_solv.prm

>  <Rbt.Receptor>
prm/blind_docking_100.prm

>  <SCORE>
14.1104

>  <SCORE.INTER>
-10.4809

>  <SCORE.INTER.CONST>
1

>  <SCORE.INTER.POLAR>
-0.824309

>  <SCORE.INTER.ROT>
10

>  <SCORE.INTER.SOLV>
25.6171

>  <SCORE.INTER.VDW>
-23.0453

>  <SCORE.INTER.norm>
-0.262023

>  <SCORE.INTRA>
5.83563

>  <SCORE.INTRA.DIHEDRAL>
-1.96963

>  <SCORE.INTRA.DIHEDRAL.0>
22.5778

>  <SCORE.INTRA.POLAR>
0

>  <SCORE.INTRA.POLAR.0>
0

>  <SCORE.INTRA.REPUL>
0

>  <SCORE.INTRA.REPUL.0>
0

>  <SCORE.INTRA.SOLV>
7.71881

>  <SCORE.INTRA.SOLV.lig_0>
-102.332

>  <SCORE.INTRA.VDW>
2.96104

>  <SCORE.INTRA.VDW.0>
-5.08747

>  <SCORE.INTRA.norm>
0.145891

>  <SCORE.RESTR>
18.7556

>  <SCORE.RESTR.CAVITY>
18.7556

>  <SCORE.RESTR.norm>
0.468891

>  <SCORE.SYSTEM>
0

>  <SCORE.SYSTEM.CONST>
0

>  <SCORE.SYSTEM.DIHEDRAL>
0

>  <SCORE.SYSTEM.SOLV>
0

>  <SCORE.SYSTEM.norm>
0

>  <SCORE.heavy>
40

>  <SCORE.norm>
0.352759

>  <RMSD>
34.075

$$$$
2g5q_lig
 OpenBabel11021811433D
libRbt.so/2013.1/901 2013/11/27
 40 42  0  0  0  0  0  0  0  0999 V2000
   21.3063    3.2659   -2.1217 C   0  0  2  0  0  0  0  0  0  0  0  0
   22.3433    3.9286   -1.4326 O   0  0  0  0  0  0  0  0  0  0  0  0
   21.4870    1.7295   -1.9438 C   0  0  1  0  0  0  0  0  0  0  0  0
   22.7744    1.2090   -2.6547 C   0  0  2  0  0  0  0  0  0  0  0  0
   22.6540    1.5497   -4.1628 C   0  0  2  0  0  0  0  0  0  0  0  0
   23.8138    1.0645   -4.8584 O   0  0  0  0  0  0  0  0  0  0  0  0
   22.5175    3.1196   -4.3074 C   0  0  2  0  0  0  0  0  0  0  0  0
   21.3124    3.5972   -3.5709 O   0  0  0  0  0  0  0  0  0  0  0  0
   22.3776    3.5687   -5.7580 C   0  0  0  0  0  0  0  0  0  0  0  0
   21.9197    4.9902   -5.8644 N   0  0  0  0  0  0  0  0  0  0  0  0
   23.5879    8.0628   -0.7719 C   0  0  2  0  0  0  0  0  0  0  0  0
   23.5376    9.4880   -0.4685 N   0  0  0  0  0  0  0  0  0  0  0  0
   22.6687    7.7353   -2.0224 C   0  0  0  0  0  0  0  0  0  0  0  0
   22.7259    6.1933   -2.3590 C   0  0  2  0  0  0  0  0  0  0  0  0
   21.8689    5.9013   -3.5398 N   0  0  0  0  0  0  0  0  0  0  0  0
   22.2686    5.3604   -1.0960 C   0  0  2  0  0  0  0  0  0  0  0  0
   23.2029    5.7160    0.1278 C   0  0  2  0  0  0  0  0  0  0  0  0
   22.7831    4.9656    1.2717 O   0  0  0  0  0  0  0  0  0  0  0  0
   23.1189    7.2555    0.4563 C   0  0  1  0  0  0  0  0  0  0  0  0
   23.9897    7.5824    1.5757 O   0  0  0  0  0  0  0  0  0  0  0  0
   23.8113    7.0969    2.8836 C   0  0  2  0  0  0  0  0  0  0  0  0
   24.4997    8.1109    3.8588 C   0  0  2  0  0  0  0  0  0  0  0  0
   23.9101    9.3636    3.7191 O   0  0  0  0  0  0  0  0  0  0  0  0
   26.0519    8.1865    3.5985 C   0  0  1  0  0  0  0  0  0  0  0  0
   26.7213    9.1521    4.5311 N   0  0  0  0  0  0  0  0  0  0  0  0
   26.6547    6.7354    3.7670 C   0  0  2  0  0  0  0  0  0  0  0  0
   28.0670    6.7416    3.5492 O   0  0  0  0  0  0  0  0  0  0  0  0
   25.9282    5.7739    2.7668 C   0  0  2  0  0  0  0  0  0  0  0  0
   24.4438    5.7711    3.0040 O   0  0  0  0  0  0  0  0  0  0  0  0
   26.4270    4.3633    2.8896 C   0  0  0  0  0  0  0  0  0  0  0  0
   25.4068    3.4163    2.5329 O   0  0  0  0  0  0  0  0  0  0  0  0
   21.5206    1.4318   -0.5056 O   0  0  0  0  0  0  0  0  0  0  0  0
   22.8770   -0.1531   -2.4769 O   0  0  0  0  0  0  0  0  0  0  0  0
   23.0650   12.6273   -3.2562 N   0  0  0  0  0  0  0  0  0  0  0  0
   24.5408   10.2078    0.1653 C   0  0  0  0  0  0  0  0  0  0  0  0
   25.5946    9.7157    0.5533 O   0  0  0  0  0  0  0  0  0  0  0  0
   24.1743   11.6992    0.3437 C   0  0  1  0  0  0  0  0  0  0  0  0
   24.1378   12.4023   -1.0284 C   0  0  0  0  0  0  0  0  0  0  0  0
   22.9163   12.0962   -1.9027 C   0  0  0  0  0  0  0  0  0  0  0  0
   22.8940   11.7958    1.0075 O   0  0  0  0  0  0  0  0  0  0  0  0
  1  2  1  1  0  0  0
  1  3  1  0  0  0  0
  1  8  1  0  0  0  0
  3  4  1  0  0  0  0
  3 32  1  1  0  0  0
  4  5  1  0  0  0  0
  4 33  1  6  0  0  0
  5  6  1  6  0  0  0
  5  7  1  0  0  0  0
  7  8  1  0  0  0  0
  7  9  1  6  0  0  0
  9 10  1  0  0  0  0
 11 12  1  1  0  0  0
 11 13  1  0  0  0  0
 11 19  1  0  0  0  0
 12 35  1  0  0  0  0
 13 14  1  0  0  0  0
 14 15  1  6  0  0  0
 14 16  1  0  0  0  0
 16  2  1  6  0  0  0
 16 17  1  0  0  0  0
 17 18  1  1  0  0  0
 17 19  1  0  0  0  0
 19 20  1  1  0  0  0
 21 20  1  6  0  0  0
 21 22  1  0  0  0  0
 21 29  1  0  0  0  0
 22 23  1  6  0  0  0
 22 24  1  0  0  0  0
 24 25  1  1  0  0  0
 24 26  1  0  0  0  0
 26 27  1  6  0  0  0
 26 28  1  0  0  0  0
 28 29  1  0  0  0  0
 28 30  1  1  0  0  0
 30 31  1  0  0  0  0
 34 39  1  0  0  0  0
 35 36  2  0  0  0  0
 37 35  1  6  0  0  0
 37 38  1  0  0  0  0
 37 40  1  0  0  0  0
 38 39  1  0  0  0  0
M  END
>  <CHROM.1>
-163.19140733,166.06332493,-153.59965704,-83.04160466,175.89535762,-155.62721001
151.14320037,-68.53435199,75.01023440,-170.86100237,23.65255519,6.27921026
-0.31536253,2.27271411,1.12908799,3.12124797

>  <Name>
2g5q_lig

>  <RI>
0

>  <Rbt.Current_Directory>
/home/itssahil/PROJECTS/Mol_Feturizer/New_Systems/rnas/2g5q

>  <Rbt.Executable>
rbdock ($Id: //depot/dev/client3/rdock/2013.1/src/exe/rbdock.cxx#4 $)

>  <Rbt.Library>
libRbt.so (2013.1, Build901 2013/11/27)

>  <Rbt.Parameter_File>
/export/apps/rDock/src/rDock_2013.1_src/data/scripts/dock_solv.prm

>  <Rbt.Receptor>
prm/blind_docking_40.prm

>  <SCORE>
10.6431

>  <SCORE.INTER>
-1.09582

>  <SCORE.INTER.CONST>
1

>  <SCORE.INTER.POLAR>
0

>  <SCORE.INTER.ROT>
10

>  <SCORE.INTER.SOLV>
25.9714

>  <SCORE.INTER.VDW>
-19.6544

>  <SCORE.INTER.norm>
-0.0273955

>  <SCORE.INTRA>
-0.216322

>  <SCORE.INTRA.DIHEDRAL>
-10.7597

>  <SCORE.INTRA.DIHEDRAL.0>
22.5778

>  <SCORE.INTRA.POLAR>
0

>  <SCORE.INTRA.POLAR.0>
0

>  <SCORE.INTRA.REPUL>
0

>  <SCORE.INTRA.REPUL.0>
0

>  <SCORE.INTRA.SOLV>
6.94187

>  <SCORE.INTRA.SOLV.lig_0>
-102.332

>  <SCORE.INTRA.VDW>
1.69261

>  <SCORE.INTRA.VDW.0>
-5.08747

>  <SCORE.INTRA.norm>
-0.00540804

>  <SCORE.RESTR>
11.9553

>  <SCORE.RESTR.CAVITY>
11.9553

>  <SCORE.RESTR.norm>
0.298882

>  <SCORE.SYSTEM>
0

>  <SCORE.SYSTEM.CONST>
0

>  <SCORE.SYSTEM.DIHEDRAL>
0

>  <SCORE.SYSTEM.SOLV>
0

>  <SCORE.SYSTEM.norm>
0

>  <SCORE.heavy>
40

>  <SCORE.norm>
0.266078

>  <RMSD>
34.095

$$$$
2g5q_lig
 OpenBabel11021811433D
libRbt.so/2013.1/901 2013/11/27
 40 42  0  0  0  0  0  0  0  0999 V2000
   23.6239    6.5671    3.6619 C   0  0  2  0  0  0  0  0  0  0  0  0
   24.3851    7.7480    3.5366 O   0  0  0  0  0  0  0  0  0  0  0  0
   24.5812    5.3864    4.0003 C   0  0  1  0  0  0  0  0  0  0  0  0
   25.5461    5.0626    2.8181 C   0  0  2  0  0  0  0  0  0  0  0  0
   24.6795    4.6957    1.5855 C   0  0  2  0  0  0  0  0  0  0  0  0
   25.5345    4.3674    0.4784 O   0  0  0  0  0  0  0  0  0  0  0  0
   23.7538    5.9328    1.2439 C   0  0  2  0  0  0  0  0  0  0  0  0
   22.8838    6.2569    2.4105 O   0  0  0  0  0  0  0  0  0  0  0  0
   22.8426    5.6758    0.0484 C   0  0  0  0  0  0  0  0  0  0  0  0
   23.6026    5.1714   -1.1390 N   0  0  0  0  0  0  0  0  0  0  0  0
   24.3061   11.2607    0.9420 C   0  0  2  0  0  0  0  0  0  0  0  0
   24.3123   12.0935   -0.2547 N   0  0  0  0  0  0  0  0  0  0  0  0
   25.6372   10.4016    1.0196 C   0  0  0  0  0  0  0  0  0  0  0  0
   25.6378    9.5031    2.3185 C   0  0  2  0  0  0  0  0  0  0  0  0
   26.8957    8.7112    2.3850 N   0  0  0  0  0  0  0  0  0  0  0  0
   24.3664    8.5642    2.3108 C   0  0  2  0  0  0  0  0  0  0  0  0
   23.0631    9.4540    2.2287 C   0  0  2  0  0  0  0  0  0  0  0  0
   21.9136    8.6016    2.2155 O   0  0  0  0  0  0  0  0  0  0  0  0
   23.0756   10.3304    0.9184 C   0  0  1  0  0  0  0  0  0  0  0  0
   21.8802   11.1578    0.8515 O   0  0  0  0  0  0  0  0  0  0  0  0
   20.8256   10.9508   -0.0558 C   0  0  2  0  0  0  0  0  0  0  0  0
   19.8503   12.1696    0.0719 C   0  0  2  0  0  0  0  0  0  0  0  0
   20.5317   13.3441   -0.2323 O   0  0  0  0  0  0  0  0  0  0  0  0
   19.2167   12.2430    1.5127 C   0  0  1  0  0  0  0  0  0  0  0  0
   18.2770   13.4050    1.6436 N   0  0  0  0  0  0  0  0  0  0  0  0
   18.4663   10.8811    1.7948 C   0  0  2  0  0  0  0  0  0  0  0  0
   17.8622   10.8906    3.0898 O   0  0  0  0  0  0  0  0  0  0  0  0
   19.4930    9.7070    1.6537 C   0  0  2  0  0  0  0  0  0  0  0  0
   20.1220    9.7023    0.2884 O   0  0  0  0  0  0  0  0  0  0  0  0
   18.8450    8.3715    1.8779 C   0  0  0  0  0  0  0  0  0  0  0  0
   19.5553    7.3257    1.1945 O   0  0  0  0  0  0  0  0  0  0  0  0
   25.3313    5.7334    5.2147 O   0  0  0  0  0  0  0  0  0  0  0  0
   26.3581    4.0056    3.1658 O   0  0  0  0  0  0  0  0  0  0  0  0
   22.3831   10.8253   -3.4711 N   0  0  0  0  0  0  0  0  0  0  0  0
   24.6832   11.6700   -1.5232 C   0  0  0  0  0  0  0  0  0  0  0  0
   25.0600   10.5321   -1.7811 O   0  0  0  0  0  0  0  0  0  0  0  0
   24.5849   12.7993   -2.5747 C   0  0  1  0  0  0  0  0  0  0  0  0
   23.1055   13.1225   -2.8663 C   0  0  0  0  0  0  0  0  0  0  0  0
   22.4168   12.2225   -3.8987 C   0  0  0  0  0  0  0  0  0  0  0  0
   25.2809   13.9664   -2.0820 O   0  0  0  0  0  0  0  0  0  0  0  0
  1  2  1  6  0  0  0
  1  3  1  0  0  0  0
  1  8  1  0  0  0  0
  3  4  1  0  0  0  0
  3 32  1  1  0  0  0
  4  5  1  0  0  0  0
  4 33  1  1  0  0  0
  5  6  1  6  0  0  0
  5  7  1  0  0  0  0
  7  8  1  0  0  0  0
  7  9  1  6  0  0  0
  9 10  1  0  0  0  0
 11 12  1  6  0  0  0
 11 13  1  0  0  0  0
 11 19  1  0  0  0  0
 12 35  1  0  0  0  0
 13 14  1  0  0  0  0
 14 15  1  6  0  0  0
 14 16  1  0  0  0  0
 16  2  1  1  0  0  0
 16 17  1  0  0  0  0
 17 18  1  6  0  0  0
 17 19  1  0  0  0  0
 19 20  1  1  0  0  0
 21 20  1  1  0  0  0
 21 22  1  0  0  0  0
 21 29  1  0  0  0  0
 22 23  1  1  0  0  0
 22 24  1  0  0  0  0
 24 25  1  6  0  0  0
 24 26  1  0  0  0  0
 26 27  1  1  0  0  0
 26 28  1  0  0  0  0
 28 29  1  0  0  0  0
 28 30  1  6  0  0  0
 30 31  1  0  0  0  0
 34 39  1  0  0  0  0
 35 36  2  0  0  0  0
 37 35  1  1  0  0  0
 37 38  1  0  0  0  0
 37 40  1  0  0  0  0
 38 39  1  0  0  0  0
M  END
>  <CHROM.1>
123.06968704,-51.30897958,44.72273266,-161.74453272,131.52078422,-172.11373246
154.00965566,-71.30897744,-83.79132485,61.62848749,22.86217780,9.24271995
0.92893706,1.09624713,-0.34326596,2.52157527

>  <Name>
2g5q_lig

>  <RI>
224

>  <Rbt.Current_Directory>
/home/itssahil/PROJECTS/Mol_Feturizer/New_Systems/rnas/2g5q

>  <Rbt.Executable>
rbdock ($Id: //depot/dev/client3/rdock/2013.1/src/exe/rbdock.cxx#4 $)

>  <Rbt.Library>
libRbt.so (2013.1, Build901 2013/11/27)

>  <Rbt.Parameter_File>
/export/apps/rDock/src/rDock_2013.1_src/data/scripts/dock_solv.prm

>  <Rbt.Receptor>
prm/blind_docking_100.prm

>  <SCORE>
56.9682

>  <SCORE.INTER>
35.6853

>  <SCORE.INTER.CONST>
1

>  <SCORE.INTER.POLAR>
0

>  <SCORE.INTER.ROT>
10

>  <SCORE.INTER.SOLV>
29.4333

>  <SCORE.INTER.VDW>
3.71241

>  <SCORE.INTER.norm>
0.892132

>  <SCORE.INTRA>
2.46094

>  <SCORE.INTRA.DIHEDRAL>
-1.82668

>  <SCORE.INTRA.DIHEDRAL.0>
22.5778

>  <SCORE.INTRA.POLAR>
0

>  <SCORE.INTRA.POLAR.0>
0

>  <SCORE.INTRA.REPUL>
0

>  <SCORE.INTRA.REPUL.0>
0

>  <SCORE.INTRA.SOLV>
5.90919

>  <SCORE.INTRA.SOLV.lig_0>
-102.332

>  <SCORE.INTRA.VDW>
0.41968

>  <SCORE.INTRA.VDW.0>
-5.08747

>  <SCORE.INTRA.norm>
0.0615234

>  <SCORE.RESTR>
18.8219

>  <SCORE.RESTR.CAVITY>
18.8219

>  <SCORE.RESTR.norm>
0.470549

>  <SCORE.SYSTEM>
0

>  <SCORE.SYSTEM.CONST>
0

>  <SCORE.SYSTEM.DIHEDRAL>
0

>  <SCORE.SYSTEM.SOLV>
0

>  <SCORE.SYSTEM.norm>
0

>  <SCORE.heavy>
40

>  <SCORE.norm>
1.4242

>  <RMSD>
34.102

$$$$
2g5q_lig
 OpenBabel11021811433D
libRbt.so/2013.1/901 2013/11/27
 40 42  0  0  0  0  0  0  0  0999 V2000
   23.7444    3.6321   -1.9951 C   0  0  2  0  0  0  0  0  0  0  0  0
   23.2846    4.7092   -2.7811 O   0  0  0  0  0  0  0  0  0  0  0  0
   23.9479    2.3912   -2.9136 C   0  0  1  0  0  0  0  0  0  0  0  0
   22.5961    1.8620   -3.4844 C   0  0  2  0  0  0  0  0  0  0  0  0
   21.6913    1.4806   -2.2841 C   0  0  2  0  0  0  0  0  0  0  0  0
   20.4412    0.9654   -2.7702 O   0  0  0  0  0  0  0  0  0  0  0  0
   21.4698    2.7737   -1.3993 C   0  0  2  0  0  0  0  0  0  0  0  0
   22.7812    3.2917   -0.9150 O   0  0  0  0  0  0  0  0  0  0  0  0
   20.5997    2.5092   -0.1751 C   0  0  0  0  0  0  0  0  0  0  0  0
   20.3730    3.7500    0.6316 N   0  0  0  0  0  0  0  0  0  0  0  0
   22.8227    8.9432   -1.8130 C   0  0  2  0  0  0  0  0  0  0  0  0
   22.2955   10.1817   -1.2528 N   0  0  0  0  0  0  0  0  0  0  0  0
   21.7326    8.2495   -2.7330 C   0  0  0  0  0  0  0  0  0  0  0  0
   22.3022    6.9108   -3.3478 C   0  0  2  0  0  0  0  0  0  0  0  0
   21.2747    6.2762   -4.2170 N   0  0  0  0  0  0  0  0  0  0  0  0
   22.7469    5.9420   -2.1810 C   0  0  2  0  0  0  0  0  0  0  0  0
   23.8276    6.6680   -1.2855 C   0  0  2  0  0  0  0  0  0  0  0  0
   24.2241    5.7913   -0.2261 O   0  0  0  0  0  0  0  0  0  0  0  0
   23.2340    7.9922   -0.6699 C   0  0  1  0  0  0  0  0  0  0  0  0
   24.2352    8.6651    0.1443 O   0  0  0  0  0  0  0  0  0  0  0  0
   23.9452    9.6770    1.0771 C   0  0  2  0  0  0  0  0  0  0  0  0
   24.6686    9.3034    2.4151 C   0  0  2  0  0  0  0  0  0  0  0  0
   26.0402    9.2218    2.1949 O   0  0  0  0  0  0  0  0  0  0  0  0
   24.1115    7.9530    3.0055 C   0  0  1  0  0  0  0  0  0  0  0  0
   24.7952    7.5888    4.2901 N   0  0  0  0  0  0  0  0  0  0  0  0
   22.5546    8.1122    3.2250 C   0  0  2  0  0  0  0  0  0  0  0  0
   21.9914    6.9164    3.7682 O   0  0  0  0  0  0  0  0  0  0  0  0
   21.8926    8.4823    1.8548 C   0  0  2  0  0  0  0  0  0  0  0  0
   22.4885    9.7422    1.2913 O   0  0  0  0  0  0  0  0  0  0  0  0
   20.4107    8.6817    1.9888 C   0  0  0  0  0  0  0  0  0  0  0  0
   20.1099    9.8674    2.7428 O   0  0  0  0  0  0  0  0  0  0  0  0
   24.8688    2.7637   -3.9959 O   0  0  0  0  0  0  0  0  0  0  0  0
   22.8332    0.7600   -4.2762 O   0  0  0  0  0  0  0  0  0  0  0  0
   24.4086   15.3358   -1.4911 N   0  0  0  0  0  0  0  0  0  0  0  0
   22.4174   11.4377   -1.8305 C   0  0  0  0  0  0  0  0  0  0  0  0
   22.9979   11.6497   -2.8895 O   0  0  0  0  0  0  0  0  0  0  0  0
   21.7536   12.5454   -0.9803 C   0  0  1  0  0  0  0  0  0  0  0  0
   22.7769   13.6557   -0.6669 C   0  0  0  0  0  0  0  0  0  0  0  0
   23.4932   14.2643   -1.8780 C   0  0  0  0  0  0  0  0  0  0  0  0
   20.6184   13.0776   -1.6995 O   0  0  0  0  0  0  0  0  0  0  0  0
  1  2  1  6  0  0  0
  1  3  1  0  0  0  0
  1  8  1  0  0  0  0
  3  4  1  0  0  0  0
  3 32  1  6  0  0  0
  4  5  1  0  0  0  0
  4 33  1  6  0  0  0
  5  6  1  6  0  0  0
  5  7  1  0  0  0  0
  7  8  1  0  0  0  0
  7  9  1  1  0  0  0
  9 10  1  0  0  0  0
 11 12  1  1  0  0  0
 11 13  1  0  0  0  0
 11 19  1  0  0  0  0
 12 35  1  0  0  0  0
 13 14  1  0  0  0  0
 14 15  1  1  0  0  0
 14 16  1  0  0  0  0
 16  2  1  6  0  0  0
 16 17  1  0  0  0  0
 17 18  1  1  0  0  0
 17 19  1  0  0  0  0
 19 20  1  1  0  0  0
 21 20  1  6  0  0  0
 21 22  1  0  0  0  0
 21 29  1  0  0  0  0
 22 23  1  6  0  0  0
 22 24  1  0  0  0  0
 24 25  1  1  0  0  0
 24 26  1  0  0  0  0
 26 27  1  6  0  0  0
 26 28  1  0  0  0  0
 28 29  1  0  0  0  0
 28 30  1  1  0  0  0
 30 31  1  0  0  0  0
 34 39  1  0  0  0  0
 35 36  2  0  0  0  0
 37 35  1  6  0  0  0
 37 38  1  0  0  0  0
 37 40  1  0  0  0  0
 38 39  1  0  0  0  0
M  END
>  <CHROM.1>
167.77219848,-178.59502269,-91.12886811,-178.78357156,76.54295167,130.92361301
69.00570089,124.71514185,53.77409544,178.09314822,22.71979967,7.33052365
-0.68609062,2.59338553,1.51013123,2.37693667

>  <Name>
2g5q_lig

>  <RI>
0

>  <Rbt.Current_Directory>
/home/itssahil/PROJECTS/Mol_Feturizer/New_Systems/rnas/2g5q

>  <Rbt.Executable>
rbdock ($Id: //depot/dev/client3/rdock/2013.1/src/exe/rbdock.cxx#4 $)

>  <Rbt.Library>
libRbt.so (2013.1, Build901 2013/11/27)

>  <Rbt.Parameter_File>
/export/apps/rDock/src/rDock_2013.1_src/data/scripts/dock_solv.prm

>  <Rbt.Receptor>
prm/blind_docking_40.prm

>  <SCORE>
6.44781

>  <SCORE.INTER>
0.976526

>  <SCORE.INTER.CONST>
1

>  <SCORE.INTER.POLAR>
-1.83095

>  <SCORE.INTER.ROT>
10

>  <SCORE.INTER.SOLV>
27.1429

>  <SCORE.INTER.VDW>
-12.5601

>  <SCORE.INTER.norm>
0.0244131

>  <SCORE.INTRA>
-3.69853

>  <SCORE.INTRA.DIHEDRAL>
-10.4456

>  <SCORE.INTRA.DIHEDRAL.0>
22.5778

>  <SCORE.INTRA.POLAR>
0

>  <SCORE.INTRA.POLAR.0>
0

>  <SCORE.INTRA.REPUL>
0

>  <SCORE.INTRA.REPUL.0>
0

>  <SCORE.INTRA.SOLV>
-0.205078

>  <SCORE.INTRA.SOLV.lig_0>
-102.332

>  <SCORE.INTRA.VDW>
1.62681

>  <SCORE.INTRA.VDW.0>
-5.08747

>  <SCORE.INTRA.norm>
-0.0924633

>  <SCORE.RESTR>
9.16981

>  <SCORE.RESTR.CAVITY>
9.16981

>  <SCORE.RESTR.norm>
0.229245

>  <SCORE.SYSTEM>
0

>  <SCORE.SYSTEM.CONST>
0

>  <SCORE.SYSTEM.DIHEDRAL>
0

>  <SCORE.SYSTEM.SOLV>
0

>  <SCORE.SYSTEM.norm>
0

>  <SCORE.heavy>
40

>  <SCORE.norm>
0.161195

>  <RMSD>
34.114

$$$$
2g5q_lig
 OpenBabel11021811433D
libRbt.so/2013.1/901 2013/11/27
 40 42  0  0  0  0  0  0  0  0999 V2000
   24.1575    3.1350   -2.3328 C   0  0  2  0  0  0  0  0  0  0  0  0
   24.7671    4.3995   -2.4704 O   0  0  0  0  0  0  0  0  0  0  0  0
   23.8835    2.5528   -3.7508 C   0  0  1  0  0  0  0  0  0  0  0  0
   22.8107    3.3815   -4.5227 C   0  0  2  0  0  0  0  0  0  0  0  0
   21.5040    3.3602   -3.6878 C   0  0  2  0  0  0  0  0  0  0  0  0
   20.4813    4.0959   -4.3786 O   0  0  0  0  0  0  0  0  0  0  0  0
   21.8091    3.9992   -2.2726 C   0  0  2  0  0  0  0  0  0  0  0  0
   22.8777    3.2226   -1.5815 O   0  0  0  0  0  0  0  0  0  0  0  0
   20.5891    4.0170   -1.3578 C   0  0  0  0  0  0  0  0  0  0  0  0
   20.9227    4.5158    0.0139 N   0  0  0  0  0  0  0  0  0  0  0  0
   22.3869    7.0197    0.0882 C   0  0  2  0  0  0  0  0  0  0  0  0
   22.0074    8.1252    0.9598 N   0  0  0  0  0  0  0  0  0  0  0  0
   23.5686    6.1871    0.7410 C   0  0  0  0  0  0  0  0  0  0  0  0
   23.9781    4.9841   -0.1968 C   0  0  2  0  0  0  0  0  0  0  0  0
   25.0791    4.2050    0.4317 N   0  0  0  0  0  0  0  0  0  0  0  0
   24.4030    5.5408   -1.6137 C   0  0  2  0  0  0  0  0  0  0  0  0
   23.2044    6.3663   -2.2290 C   0  0  2  0  0  0  0  0  0  0  0  0
   23.5936    6.8747   -3.5089 O   0  0  0  0  0  0  0  0  0  0  0  0
   22.8225    7.5701   -1.2857 C   0  0  1  0  0  0  0  0  0  0  0  0
   21.7103    8.3213   -1.8487 O   0  0  0  0  0  0  0  0  0  0  0  0
   21.1265    9.4457   -1.2380 C   0  0  2  0  0  0  0  0  0  0  0  0
   20.6895   10.4258   -2.3789 C   0  0  2  0  0  0  0  0  0  0  0  0
   19.7719    9.7913   -3.2107 O   0  0  0  0  0  0  0  0  0  0  0  0
   21.9346   10.9359   -3.1988 C   0  0  1  0  0  0  0  0  0  0  0  0
   21.5266   11.8792   -4.2916 N   0  0  0  0  0  0  0  0  0  0  0  0
   22.9349   11.6379   -2.1970 C   0  0  2  0  0  0  0  0  0  0  0  0
   24.0857   12.1300   -2.8866 O   0  0  0  0  0  0  0  0  0  0  0  0
   23.3334   10.6085   -1.0861 C   0  0  2  0  0  0  0  0  0  0  0  0
   22.1179   10.0977   -0.3638 O   0  0  0  0  0  0  0  0  0  0  0  0
   24.2623   11.2139   -0.0741 C   0  0  0  0  0  0  0  0  0  0  0  0
   25.3860   11.8453   -0.7093 O   0  0  0  0  0  0  0  0  0  0  0  0
   25.1536    2.5155   -4.4881 O   0  0  0  0  0  0  0  0  0  0  0  0
   22.5987    2.8162   -5.7608 O   0  0  0  0  0  0  0  0  0  0  0  0
   20.6694   12.0460    1.6545 N   0  0  0  0  0  0  0  0  0  0  0  0
   21.9627    8.0732    2.3460 C   0  0  0  0  0  0  0  0  0  0  0  0
   22.2345    7.0735    3.0017 O   0  0  0  0  0  0  0  0  0  0  0  0
   21.5144    9.4136    2.9726 C   0  0  1  0  0  0  0  0  0  0  0  0
   22.4528   10.5497    2.5178 C   0  0  0  0  0  0  0  0  0  0  0  0
   21.8453   11.9573    2.5177 C   0  0  0  0  0  0  0  0  0  0  0  0
   20.1490    9.6848    2.5834 O   0  0  0  0  0  0  0  0  0  0  0  0
  1  2  1  6  0  0  0
  1  3  1  0  0  0  0
  1  8  1  0  0  0  0
  3  4  1  0  0  0  0
  3 32  1  6  0  0  0
  4  5  1  0  0  0  0
  4 33  1  6  0  0  0
  5  6  1  6  0  0  0
  5  7  1  0  0  0  0
  7  8  1  0  0  0  0
  7  9  1  1  0  0  0
  9 10  1  0  0  0  0
 11 12  1  1  0  0  0
 11 13  1  0  0  0  0
 11 19  1  0  0  0  0
 12 35  1  0  0  0  0
 13 14  1  0  0  0  0
 14 15  1  1  0  0  0
 14 16  1  0  0  0  0
 16  2  1  6  0  0  0
 16 17  1  0  0  0  0
 17 18  1  6  0  0  0
 17 19  1  0  0  0  0
 19 20  1  6  0  0  0
 21 20  1  6  0  0  0
 21 22  1  0  0  0  0
 21 29  1  0  0  0  0
 22 23  1  6  0  0  0
 22 24  1  0  0  0  0
 24 25  1  6  0  0  0
 24 26  1  0  0  0  0
 26 27  1  6  0  0  0
 26 28  1  0  0  0  0
 28 29  1  0  0  0  0
 28 30  1  1  0  0  0
 30 31  1  0  0  0  0
 34 39  1  0  0  0  0
 35 36  2  0  0  0  0
 37 35  1  6  0  0  0
 37 38  1  0  0  0  0
 37 40  1  0  0  0  0
 38 39  1  0  0  0  0
M  END
>  <CHROM.1>
138.93784342,175.11442765,-37.70032208,31.35180427,59.86168382,145.39268789
-51.56295154,-57.02169704,154.23930691,-58.69431793,22.56290434,7.40050852
-1.25724944,0.17990806,-1.45385786,2.18339097

>  <Name>
2g5q_lig

>  <RI>
0

>  <Rbt.Current_Directory>
/home/itssahil/PROJECTS/Mol_Feturizer/New_Systems/rnas/2g5q

>  <Rbt.Executable>
rbdock ($Id: //depot/dev/client3/rdock/2013.1/src/exe/rbdock.cxx#4 $)

>  <Rbt.Library>
libRbt.so (2013.1, Build901 2013/11/27)

>  <Rbt.Parameter_File>
/export/apps/rDock/src/rDock_2013.1_src/data/scripts/dock_solv.prm

>  <Rbt.Receptor>
prm/blind_docking_40.prm

>  <SCORE>
12.1655

>  <SCORE.INTER>
-8.16078

>  <SCORE.INTER.CONST>
1

>  <SCORE.INTER.POLAR>
-1.11234

>  <SCORE.INTER.ROT>
10

>  <SCORE.INTER.SOLV>
22.8965

>  <SCORE.INTER.VDW>
-19.6316

>  <SCORE.INTER.norm>
-0.20402

>  <SCORE.INTRA>
10.2549

>  <SCORE.INTRA.DIHEDRAL>
-5.66761

>  <SCORE.INTRA.DIHEDRAL.0>
22.5778

>  <SCORE.INTRA.POLAR>
0

>  <SCORE.INTRA.POLAR.0>
0

>  <SCORE.INTRA.REPUL>
0

>  <SCORE.INTRA.REPUL.0>
0

>  <SCORE.INTRA.SOLV>
12.0806

>  <SCORE.INTRA.SOLV.lig_0>
-102.332

>  <SCORE.INTRA.VDW>
7.04843

>  <SCORE.INTRA.VDW.0>
-5.08747

>  <SCORE.INTRA.norm>
0.256373

>  <SCORE.RESTR>
10.0714

>  <SCORE.RESTR.CAVITY>
10.0714

>  <SCORE.RESTR.norm>
0.251785

>  <SCORE.SYSTEM>
0

>  <SCORE.SYSTEM.CONST>
0

>  <SCORE.SYSTEM.DIHEDRAL>
0

>  <SCORE.SYSTEM.SOLV>
0

>  <SCORE.SYSTEM.norm>
0

>  <SCORE.heavy>
40

>  <SCORE.norm>
0.304138

>  <RMSD>
34.115

$$$$
2g5q_lig
 OpenBabel11021811433D
libRbt.so/2013.1/901 2013/11/27
 40 42  0  0  0  0  0  0  0  0999 V2000
   22.4201    2.3598   -2.6527 C   0  0  2  0  0  0  0  0  0  0  0  0
   23.2746    3.2743   -2.0022 O   0  0  0  0  0  0  0  0  0  0  0  0
   23.2647    1.4939   -3.6334 C   0  0  1  0  0  0  0  0  0  0  0  0
   23.8393    2.3412   -4.8105 C   0  0  2  0  0  0  0  0  0  0  0  0
   22.6428    2.9724   -5.5687 C   0  0  2  0  0  0  0  0  0  0  0  0
   23.1311    3.7445   -6.6777 O   0  0  0  0  0  0  0  0  0  0  0  0
   21.8352    3.8792   -4.5540 C   0  0  2  0  0  0  0  0  0  0  0  0
   21.3474    3.0561   -3.4106 O   0  0  0  0  0  0  0  0  0  0  0  0
   20.6204    4.5430   -5.1938 C   0  0  0  0  0  0  0  0  0  0  0  0
   21.0085    5.4938   -6.2833 N   0  0  0  0  0  0  0  0  0  0  0  0
   23.4813    7.5122   -0.9658 C   0  0  2  0  0  0  0  0  0  0  0  0
   23.0784    8.8754   -0.6415 N   0  0  0  0  0  0  0  0  0  0  0  0
   22.9352    7.1048   -2.3981 C   0  0  0  0  0  0  0  0  0  0  0  0
   23.3756    5.6310   -2.7566 C   0  0  2  0  0  0  0  0  0  0  0  0
   22.8669    5.2653   -4.1062 N   0  0  0  0  0  0  0  0  0  0  0  0
   22.8400    4.6369   -1.6508 C   0  0  2  0  0  0  0  0  0  0  0  0
   23.4005    5.0766   -0.2404 C   0  0  2  0  0  0  0  0  0  0  0  0
   22.9091    4.1789    0.7600 O   0  0  0  0  0  0  0  0  0  0  0  0
   22.9368    6.5433    0.1042 C   0  0  1  0  0  0  0  0  0  0  0  0
   23.4646    6.9503    1.3980 O   0  0  0  0  0  0  0  0  0  0  0  0
   23.2082    6.2738    2.6042 C   0  0  2  0  0  0  0  0  0  0  0  0
   23.3595    7.3128    3.7665 C   0  0  2  0  0  0  0  0  0  0  0  0
   22.4484    8.3489    3.5853 O   0  0  0  0  0  0  0  0  0  0  0  0
   24.8328    7.8657    3.8473 C   0  0  1  0  0  0  0  0  0  0  0  0
   24.9890    8.8586    4.9609 N   0  0  0  0  0  0  0  0  0  0  0  0
   25.8121    6.6415    4.0466 C   0  0  2  0  0  0  0  0  0  0  0  0
   27.1684    7.0828    4.1347 O   0  0  0  0  0  0  0  0  0  0  0  0
   25.6137    5.6445    2.8553 C   0  0  2  0  0  0  0  0  0  0  0  0
   24.1854    5.1832    2.7709 O   0  0  0  0  0  0  0  0  0  0  0  0
   26.4918    4.4344    2.9905 C   0  0  0  0  0  0  0  0  0  0  0  0
   26.3676    3.5696    1.8496 O   0  0  0  0  0  0  0  0  0  0  0  0
   24.3425    0.8502   -2.8704 O   0  0  0  0  0  0  0  0  0  0  0  0
   24.5640    1.5254   -5.6511 O   0  0  0  0  0  0  0  0  0  0  0  0
   22.9764   13.3457   -3.8710 N   0  0  0  0  0  0  0  0  0  0  0  0
   22.3421    9.7113   -1.4693 C   0  0  0  0  0  0  0  0  0  0  0  0
   21.9488    9.3937   -2.5863 O   0  0  0  0  0  0  0  0  0  0  0  0
   22.0868   11.0969   -0.8325 C   0  0  1  0  0  0  0  0  0  0  0  0
   21.9630   12.1697   -1.9333 C   0  0  0  0  0  0  0  0  0  0  0  0
   23.1128   12.2224   -2.9461 C   0  0  0  0  0  0  0  0  0  0  0  0
   20.8839   11.0360   -0.0334 O   0  0  0  0  0  0  0  0  0  0  0  0
  1  2  1  6  0  0  0
  1  3  1  0  0  0  0
  1  8  1  0  0  0  0
  3  4  1  0  0  0  0
  3 32  1  1  0  0  0
  4  5  1  0  0  0  0
  4 33  1  6  0  0  0
  5  6  1  6  0  0  0
  5  7  1  0  0  0  0
  7  8  1  0  0  0  0
  7  9  1  6  0  0  0
  9 10  1  0  0  0  0
 11 12  1  1  0  0  0
 11 13  1  0  0  0  0
 11 19  1  0  0  0  0
 12 35  1  0  0  0  0
 13 14  1  0  0  0  0
 14 15  1  6  0  0  0
 14 16  1  0  0  0  0
 16  2  1  6  0  0  0
 16 17  1  0  0  0  0
 17 18  1  1  0  0  0
 17 19  1  0  0  0  0
 19 20  1  1  0  0  0
 21 20  1  6  0  0  0
 21 22  1  0  0  0  0
 21 29  1  0  0  0  0
 22 23  1  6  0  0  0
 22 24  1  0  0  0  0
 24 25  1  1  0  0  0
 24 26  1  0  0  0  0
 26 27  1  6  0  0  0
 26 28  1  0  0  0  0
 28 29  1  0  0  0  0
 28 30  1  1  0  0  0
 30 31  1  0  0  0  0
 34 39  1  0  0  0  0
 35 36  2  0  0  0  0
 37 35  1  6  0  0  0
 37 38  1  0  0  0  0
 37 40  1  0  0  0  0
 38 39  1  0  0  0  0
M  END
>  <CHROM.1>
144.57228162,-63.59189598,-0.98372406,-98.81104170,-178.24110054,-154.40891685
-176.16405666,150.61072681,-52.54896593,-174.52254159,23.34431347,6.15290836
-0.99483194,-1.98204164,-1.17629232,0.56247042

>  <Name>
2g5q_lig

>  <RI>
0

>  <Rbt.Current_Directory>
/home/itssahil/PROJECTS/Mol_Feturizer/New_Systems/rnas/2g5q

>  <Rbt.Executable>
rbdock ($Id: //depot/dev/client3/rdock/2013.1/src/exe/rbdock.cxx#4 $)

>  <Rbt.Library>
libRbt.so (2013.1, Build901 2013/11/27)

>  <Rbt.Parameter_File>
/export/apps/rDock/src/rDock_2013.1_src/data/scripts/dock_solv.prm

>  <Rbt.Receptor>
prm/blind_docking_40.prm

>  <SCORE>
31.1242

>  <SCORE.INTER>
-4.70371

>  <SCORE.INTER.CONST>
1

>  <SCORE.INTER.POLAR>
-0.392374

>  <SCORE.INTER.ROT>
10

>  <SCORE.INTER.SOLV>
21.2169

>  <SCORE.INTER.VDW>
-19.1669

>  <SCORE.INTER.norm>
-0.117593

>  <SCORE.INTRA>
23.4099

>  <SCORE.INTRA.DIHEDRAL>
-6.77644

>  <SCORE.INTRA.DIHEDRAL.0>
22.5778

>  <SCORE.INTRA.POLAR>
0

>  <SCORE.INTRA.POLAR.0>
0

>  <SCORE.INTRA.REPUL>
0

>  <SCORE.INTRA.REPUL.0>
0

>  <SCORE.INTRA.SOLV>
8.73512

>  <SCORE.INTRA.SOLV.lig_0>
-102.332

>  <SCORE.INTRA.VDW>
22.4306

>  <SCORE.INTRA.VDW.0>
-5.08747

>  <SCORE.INTRA.norm>
0.585248

>  <SCORE.RESTR>
12.418

>  <SCORE.RESTR.CAVITY>
12.418

>  <SCORE.RESTR.norm>
0.310449

>  <SCORE.SYSTEM>
0

>  <SCORE.SYSTEM.CONST>
0

>  <SCORE.SYSTEM.DIHEDRAL>
0

>  <SCORE.SYSTEM.SOLV>
0

>  <SCORE.SYSTEM.norm>
0

>  <SCORE.heavy>
40

>  <SCORE.norm>
0.778104

>  <RMSD>
34.129

$$$$
2g5q_lig
 OpenBabel11021811433D
libRbt.so/2013.1/901 2013/11/27
 40 42  0  0  0  0  0  0  0  0999 V2000
   22.2888    3.7206   -3.1919 C   0  0  2  0  0  0  0  0  0  0  0  0
   22.4570    4.1582   -1.8616 O   0  0  0  0  0  0  0  0  0  0  0  0
   21.4252    2.4249   -3.1888 C   0  0  1  0  0  0  0  0  0  0  0  0
   22.1693    1.2313   -2.5141 C   0  0  2  0  0  0  0  0  0  0  0  0
   23.4808    0.9830   -3.3035 C   0  0  2  0  0  0  0  0  0  0  0  0
   24.1859   -0.1273   -2.7253 O   0  0  0  0  0  0  0  0  0  0  0  0
   24.3513    2.3032   -3.2471 C   0  0  2  0  0  0  0  0  0  0  0  0
   23.5943    3.4398   -3.8454 O   0  0  0  0  0  0  0  0  0  0  0  0
   25.6667    2.1758   -4.0082 C   0  0  0  0  0  0  0  0  0  0  0  0
   25.4488    1.9295   -5.4690 N   0  0  0  0  0  0  0  0  0  0  0  0
   23.6132    8.3525   -1.4767 C   0  0  2  0  0  0  0  0  0  0  0  0
   23.5691    9.7721   -1.1470 N   0  0  0  0  0  0  0  0  0  0  0  0
   22.4197    7.9785   -2.4522 C   0  0  0  0  0  0  0  0  0  0  0  0
   22.4679    6.4428   -2.8177 C   0  0  2  0  0  0  0  0  0  0  0  0
   21.3507    6.1075   -3.7414 N   0  0  0  0  0  0  0  0  0  0  0  0
   22.3976    5.5830   -1.4934 C   0  0  2  0  0  0  0  0  0  0  0  0
   23.5972    5.9860   -0.5472 C   0  0  2  0  0  0  0  0  0  0  0  0
   23.5278    5.2109    0.6538 O   0  0  0  0  0  0  0  0  0  0  0  0
   23.5212    7.5177   -0.1826 C   0  0  1  0  0  0  0  0  0  0  0  0
   24.6341    7.8889    0.6789 O   0  0  0  0  0  0  0  0  0  0  0  0
   24.6071    8.9637    1.5856 C   0  0  2  0  0  0  0  0  0  0  0  0
   25.1776    8.4428    2.9481 C   0  0  2  0  0  0  0  0  0  0  0  0
   26.4814    7.9924    2.7645 O   0  0  0  0  0  0  0  0  0  0  0  0
   24.2678    7.3050    3.5483 C   0  0  1  0  0  0  0  0  0  0  0  0
   24.8036    6.8024    4.8563 N   0  0  0  0  0  0  0  0  0  0  0  0
   22.8063    7.8796    3.7252 C   0  0  2  0  0  0  0  0  0  0  0  0
   21.9330    6.8913    4.2753 O   0  0  0  0  0  0  0  0  0  0  0  0
   22.2947    8.3800    2.3322 C   0  0  2  0  0  0  0  0  0  0  0  0
   23.2171    9.4208    1.7615 O   0  0  0  0  0  0  0  0  0  0  0  0
   20.9179    8.9712    2.4248 C   0  0  0  0  0  0  0  0  0  0  0  0
   20.3559    9.1914    1.1207 O   0  0  0  0  0  0  0  0  0  0  0  0
   20.1597    2.7150   -2.5014 O   0  0  0  0  0  0  0  0  0  0  0  0
   21.3674    0.1119   -2.5509 O   0  0  0  0  0  0  0  0  0  0  0  0
   22.8999   13.3202   -3.5402 N   0  0  0  0  0  0  0  0  0  0  0  0
   22.4135   10.5322   -1.0327 C   0  0  0  0  0  0  0  0  0  0  0  0
   21.2836   10.0889   -1.2066 O   0  0  0  0  0  0  0  0  0  0  0  0
   22.7102   12.0075   -0.6781 C   0  0  1  0  0  0  0  0  0  0  0  0
   23.9535   12.4965   -1.4483 C   0  0  0  0  0  0  0  0  0  0  0  0
   23.8764   12.3909   -2.9759 C   0  0  0  0  0  0  0  0  0  0  0  0
   21.5540   12.8132   -0.9994 O   0  0  0  0  0  0  0  0  0  0  0  0
  1  2  1  1  0  0  0
  1  3  1  0  0  0  0
  1  8  1  0  0  0  0
  3  4  1  0  0  0  0
  3 32  1  1  0  0  0
  4  5  1  0  0  0  0
  4 33  1  6  0  0  0
  5  6  1  1  0  0  0
  5  7  1  0  0  0  0
  7  8  1  0  0  0  0
  7  9  1  6  0  0  0
  9 10  1  0  0  0  0
 11 12  1  1  0  0  0
 11 13  1  0  0  0  0
 11 19  1  0  0  0  0
 12 35  1  0  0  0  0
 13 14  1  0  0  0  0
 14 15  1  6  0  0  0
 14 16  1  0  0  0  0
 16  2  1  6  0  0  0
 16 17  1  0  0  0  0
 17 18  1  1  0  0  0
 17 19  1  0  0  0  0
 19 20  1  1  0  0  0
 21 20  1  6  0  0  0
 21 22  1  0  0  0  0
 21 29  1  0  0  0  0
 22 23  1  6  0  0  0
 22 24  1  0  0  0  0
 24 25  1  1  0  0  0
 24 26  1  0  0  0  0
 26 27  1  6  0  0  0
 26 28  1  0  0  0  0
 28 29  1  0  0  0  0
 28 30  1  1  0  0  0
 30 31  1  0  0  0  0
 34 39  1  0  0  0  0
 35 36  2  0  0  0  0
 37 35  1  6  0  0  0
 37 38  1  0  0  0  0
 37 40  1  0  0  0  0
 38 39  1  0  0  0  0
M  END
>  <CHROM.1>
-139.60819865,62.30752774,32.49566373,-13.02048269,86.54445059,133.19192000
-168.95621150,39.54683505,57.60752256,68.39997848,23.06171739,6.72236759
-0.77287448,1.54291579,1.42236731,-2.69774429

>  <Name>
2g5q_lig

>  <RI>
0

>  <Rbt.Current_Directory>
/home/itssahil/PROJECTS/Mol_Feturizer/New_Systems/rnas/2g5q

>  <Rbt.Executable>
rbdock ($Id: //depot/dev/client3/rdock/2013.1/src/exe/rbdock.cxx#4 $)

>  <Rbt.Library>
libRbt.so (2013.1, Build901 2013/11/27)

>  <Rbt.Parameter_File>
/export/apps/rDock/src/rDock_2013.1_src/data/scripts/dock_solv.prm

>  <Rbt.Receptor>
prm/blind_docking_40.prm

>  <SCORE>
33.9985

>  <SCORE.INTER>
17.8696

>  <SCORE.INTER.CONST>
1

>  <SCORE.INTER.POLAR>
-0.828519

>  <SCORE.INTER.ROT>
10

>  <SCORE.INTER.SOLV>
20.7388

>  <SCORE.INTER.VDW>
-2.50479

>  <SCORE.INTER.norm>
0.44674

>  <SCORE.INTRA>
7.65015

>  <SCORE.INTRA.DIHEDRAL>
1.09079

>  <SCORE.INTRA.DIHEDRAL.0>
22.5778

>  <SCORE.INTRA.POLAR>
0

>  <SCORE.INTRA.POLAR.0>
0

>  <SCORE.INTRA.REPUL>
0

>  <SCORE.INTRA.REPUL.0>
0

>  <SCORE.INTRA.SOLV>
6.31039

>  <SCORE.INTRA.SOLV.lig_0>
-102.332

>  <SCORE.INTRA.VDW>
3.94956

>  <SCORE.INTRA.VDW.0>
-5.08747

>  <SCORE.INTRA.norm>
0.191254

>  <SCORE.RESTR>
8.47877

>  <SCORE.RESTR.CAVITY>
8.47877

>  <SCORE.RESTR.norm>
0.211969

>  <SCORE.SYSTEM>
0

>  <SCORE.SYSTEM.CONST>
0

>  <SCORE.SYSTEM.DIHEDRAL>
0

>  <SCORE.SYSTEM.SOLV>
0

>  <SCORE.SYSTEM.norm>
0

>  <SCORE.heavy>
40

>  <SCORE.norm>
0.849963

>  <RMSD>
34.145

$$$$
2g5q_lig
 OpenBabel11021811433D
libRbt.so/2013.1/901 2013/11/27
 40 42  0  0  0  0  0  0  0  0999 V2000
   21.9997    3.8696   -3.2727 C   0  0  2  0  0  0  0  0  0  0  0  0
   22.2795    4.3053   -1.9607 O   0  0  0  0  0  0  0  0  0  0  0  0
   21.0825    2.6133   -3.1996 C   0  0  1  0  0  0  0  0  0  0  0  0
   21.8191    1.3910   -2.5695 C   0  0  2  0  0  0  0  0  0  0  0  0
   23.0600    1.0815   -3.4466 C   0  0  2  0  0  0  0  0  0  0  0  0
   23.7546   -0.0563   -2.9105 O   0  0  0  0  0  0  0  0  0  0  0  0
   23.9893    2.3623   -3.4610 C   0  0  2  0  0  0  0  0  0  0  0  0
   23.2426    3.5285   -4.0135 O   0  0  0  0  0  0  0  0  0  0  0  0
   25.2412    2.1734   -4.3110 C   0  0  0  0  0  0  0  0  0  0  0  0
   26.0510    0.9959   -3.8645 N   0  0  0  0  0  0  0  0  0  0  0  0
   23.3360    8.4225   -0.9557 C   0  0  2  0  0  0  0  0  0  0  0  0
   23.2160    9.8266   -0.5818 N   0  0  0  0  0  0  0  0  0  0  0  0
   22.5537    8.1458   -2.3075 C   0  0  0  0  0  0  0  0  0  0  0  0
   22.6872    6.6271   -2.7200 C   0  0  2  0  0  0  0  0  0  0  0  0
   21.9589    6.3834   -3.9944 N   0  0  0  0  0  0  0  0  0  0  0  0
   22.1318    5.7136   -1.5559 C   0  0  2  0  0  0  0  0  0  0  0  0
   22.9310    6.0202   -0.2277 C   0  0  2  0  0  0  0  0  0  0  0  0
   22.4221    5.1966    0.8263 O   0  0  0  0  0  0  0  0  0  0  0  0
   22.7717    7.5362    0.1740 C   0  0  1  0  0  0  0  0  0  0  0  0
   23.5188    7.8186    1.3907 O   0  0  0  0  0  0  0  0  0  0  0  0
   23.1715    7.3291    2.6627 C   0  0  2  0  0  0  0  0  0  0  0  0
   23.9542    8.1770    3.7218 C   0  0  2  0  0  0  0  0  0  0  0  0
   23.5972    9.5166    3.6007 O   0  0  0  0  0  0  0  0  0  0  0  0
   25.5107    7.9920    3.5613 C   0  0  1  0  0  0  0  0  0  0  0  0
   26.2694    8.7970    4.5746 N   0  0  0  0  0  0  0  0  0  0  0  0
   25.8450    6.4540    3.7032 C   0  0  2  0  0  0  0  0  0  0  0  0
   27.2493    6.2234    3.5735 O   0  0  0  0  0  0  0  0  0  0  0  0
   25.0355    5.6651    2.6192 C   0  0  2  0  0  0  0  0  0  0  0  0
   23.5596    5.9109    2.7640 O   0  0  0  0  0  0  0  0  0  0  0  0
   25.2775    4.1864    2.7110 C   0  0  0  0  0  0  0  0  0  0  0  0
   26.6091    3.8485    2.2895 O   0  0  0  0  0  0  0  0  0  0  0  0
   19.8821    2.9621   -2.4279 O   0  0  0  0  0  0  0  0  0  0  0  0
   20.9684    0.3080   -2.5419 O   0  0  0  0  0  0  0  0  0  0  0  0
   22.3436   15.1885   -0.3099 N   0  0  0  0  0  0  0  0  0  0  0  0
   23.0537   10.8807   -1.4698 C   0  0  0  0  0  0  0  0  0  0  0  0
   22.9999   10.7469   -2.6874 O   0  0  0  0  0  0  0  0  0  0  0  0
   22.9653   12.2478   -0.7531 C   0  0  1  0  0  0  0  0  0  0  0  0
   23.2649   13.3868   -1.7486 C   0  0  0  0  0  0  0  0  0  0  0  0
   23.4790   14.7737   -1.1313 C   0  0  0  0  0  0  0  0  0  0  0  0
   21.6469   12.3970   -0.1795 O   0  0  0  0  0  0  0  0  0  0  0  0
  1  2  1  1  0  0  0
  1  3  1  0  0  0  0
  1  8  1  0  0  0  0
  3  4  1  0  0  0  0
  3 32  1  1  0  0  0
  4  5  1  0  0  0  0
  4 33  1  6  0  0  0
  5  6  1  1  0  0  0
  5  7  1  0  0  0  0
  7  8  1  0  0  0  0
  7  9  1  6  0  0  0
  9 10  1  0  0  0  0
 11 12  1  1  0  0  0
 11 13  1  0  0  0  0
 11 19  1  0  0  0  0
 12 35  1  0  0  0  0
 13 14  1  0  0  0  0
 14 15  1  6  0  0  0
 14 16  1  0  0  0  0
 16  2  1  6  0  0  0
 16 17  1  0  0  0  0
 17 18  1  1  0  0  0
 17 19  1  0  0  0  0
 19 20  1  1  0  0  0
 21 20  1  6  0  0  0
 21 22  1  0  0  0  0
 21 29  1  0  0  0  0
 22 23  1  6  0  0  0
 22 24  1  0  0  0  0
 24 25  1  1  0  0  0
 24 26  1  0  0  0  0
 26 27  1  6  0  0  0
 26 28  1  0  0  0  0
 28 29  1  0  0  0  0
 28 30  1  1  0  0  0
 30 31  1  0  0  0  0
 34 39  1  0  0  0  0
 35 36  2  0  0  0  0
 37 35  1  6  0  0  0
 37 38  1  0  0  0  0
 37 40  1  0  0  0  0
 38 39  1  0  0  0  0
M  END
>  <CHROM.1>
-131.19197241,-56.89549439,-29.01742349,-41.30142907,171.29659696,-163.93907727
-70.28188458,160.90114794,-168.70510933,-55.96794293,23.41429564,6.48520738
-0.49648756,1.68477919,1.11040522,-2.88871263

>  <Name>
2g5q_lig

>  <RI>
0

>  <Rbt.Current_Directory>
/home/itssahil/PROJECTS/Mol_Feturizer/New_Systems/rnas/2g5q

>  <Rbt.Executable>
rbdock ($Id: //depot/dev/client3/rdock/2013.1/src/exe/rbdock.cxx#4 $)

>  <Rbt.Library>
libRbt.so (2013.1, Build901 2013/11/27)

>  <Rbt.Parameter_File>
/export/apps/rDock/src/rDock_2013.1_src/data/scripts/dock_solv.prm

>  <Rbt.Receptor>
prm/blind_docking_40.prm

>  <SCORE>
7.61568

>  <SCORE.INTER>
-7.07604

>  <SCORE.INTER.CONST>
1

>  <SCORE.INTER.POLAR>
-0.517751

>  <SCORE.INTER.ROT>
10

>  <SCORE.INTER.SOLV>
24.172

>  <SCORE.INTER.VDW>
-21.3155

>  <SCORE.INTER.norm>
-0.176901

>  <SCORE.INTRA>
2.85911

>  <SCORE.INTRA.DIHEDRAL>
-10.1145

>  <SCORE.INTRA.DIHEDRAL.0>
22.5778

>  <SCORE.INTRA.POLAR>
0

>  <SCORE.INTRA.POLAR.0>
0

>  <SCORE.INTRA.REPUL>
0

>  <SCORE.INTRA.REPUL.0>
0

>  <SCORE.INTRA.SOLV>
3.79203

>  <SCORE.INTRA.SOLV.lig_0>
-102.332

>  <SCORE.INTRA.VDW>
6.02035

>  <SCORE.INTRA.VDW.0>
-5.08747

>  <SCORE.INTRA.norm>
0.0714778

>  <SCORE.RESTR>
11.8326

>  <SCORE.RESTR.CAVITY>
11.8326

>  <SCORE.RESTR.norm>
0.295815

>  <SCORE.SYSTEM>
0

>  <SCORE.SYSTEM.CONST>
0

>  <SCORE.SYSTEM.DIHEDRAL>
0

>  <SCORE.SYSTEM.SOLV>
0

>  <SCORE.SYSTEM.norm>
0

>  <SCORE.heavy>
40

>  <SCORE.norm>
0.190392

>  <RMSD>
34.152

$$$$
2g5q_lig
 OpenBabel11021811433D
libRbt.so/2013.1/901 2013/11/27
 40 42  0  0  0  0  0  0  0  0999 V2000
   21.1596    4.2450   -1.9922 C   0  0  2  0  0  0  0  0  0  0  0  0
   22.2645    4.9433   -1.4622 O   0  0  0  0  0  0  0  0  0  0  0  0
   21.3390    2.7259   -1.7008 C   0  0  1  0  0  0  0  0  0  0  0  0
   22.5475    2.1225   -2.4813 C   0  0  2  0  0  0  0  0  0  0  0  0
   22.2889    2.3370   -3.9952 C   0  0  2  0  0  0  0  0  0  0  0  0
   23.3723    1.7725   -4.7516 O   0  0  0  0  0  0  0  0  0  0  0  0
   22.1572    3.8914   -4.2606 C   0  0  2  0  0  0  0  0  0  0  0  0
   21.0325    4.4527   -3.4588 O   0  0  0  0  0  0  0  0  0  0  0  0
   21.8859    4.2191   -5.7251 C   0  0  0  0  0  0  0  0  0  0  0  0
   23.0968    4.0115   -6.5809 N   0  0  0  0  0  0  0  0  0  0  0  0
   23.3695    9.1688   -1.4231 C   0  0  2  0  0  0  0  0  0  0  0  0
   23.3283   10.6043   -1.1712 N   0  0  0  0  0  0  0  0  0  0  0  0
   22.0990    8.7221   -2.2611 C   0  0  0  0  0  0  0  0  0  0  0  0
   22.1433    7.1686   -2.5424 C   0  0  2  0  0  0  0  0  0  0  0  0
   20.9526    6.7647   -3.3381 N   0  0  0  0  0  0  0  0  0  0  0  0
   22.2115    6.3861   -1.1709 C   0  0  2  0  0  0  0  0  0  0  0  0
   23.4850    6.8600   -0.3643 C   0  0  2  0  0  0  0  0  0  0  0  0
   23.5412    6.1548    0.8797 O   0  0  0  0  0  0  0  0  0  0  0  0
   23.4130    8.4091   -0.0811 C   0  0  1  0  0  0  0  0  0  0  0  0
   24.5929    8.8451    0.6511 O   0  0  0  0  0  0  0  0  0  0  0  0
   24.5550    9.6534    1.8015 C   0  0  2  0  0  0  0  0  0  0  0  0
   25.2024    8.8366    2.9706 C   0  0  2  0  0  0  0  0  0  0  0  0
   26.5164    8.5169    2.6424 O   0  0  0  0  0  0  0  0  0  0  0  0
   24.3688    7.5375    3.2872 C   0  0  1  0  0  0  0  0  0  0  0  0
   24.9787    6.7504    4.4091 N   0  0  0  0  0  0  0  0  0  0  0  0
   22.8917    7.9706    3.6447 C   0  0  2  0  0  0  0  0  0  0  0  0
   22.0859    6.8305    3.9499 O   0  0  0  0  0  0  0  0  0  0  0  0
   22.3026    8.7783    2.4393 C   0  0  2  0  0  0  0  0  0  0  0  0
   23.1543    9.9769    2.1263 O   0  0  0  0  0  0  0  0  0  0  0  0
   20.9059    9.2532    2.7173 C   0  0  0  0  0  0  0  0  0  0  0  0
   20.2289    9.6215    1.5044 O   0  0  0  0  0  0  0  0  0  0  0  0
   21.5049    2.5500   -0.2518 O   0  0  0  0  0  0  0  0  0  0  0  0
   22.6510    0.7786   -2.1975 O   0  0  0  0  0  0  0  0  0  0  0  0
   21.1759   12.1975    1.7089 N   0  0  0  0  0  0  0  0  0  0  0  0
   23.1114   11.5804   -2.1337 C   0  0  0  0  0  0  0  0  0  0  0  0
   22.9349   11.3405   -3.3231 O   0  0  0  0  0  0  0  0  0  0  0  0
   23.1341   13.0084   -1.5416 C   0  0  1  0  0  0  0  0  0  0  0  0
   22.1041   13.1234   -0.3996 C   0  0  0  0  0  0  0  0  0  0  0  0
   22.2992   12.1575    0.7748 C   0  0  0  0  0  0  0  0  0  0  0  0
   24.4671   13.3024   -1.0661 O   0  0  0  0  0  0  0  0  0  0  0  0
  1  2  1  6  0  0  0
  1  3  1  0  0  0  0
  1  8  1  0  0  0  0
  3  4  1  0  0  0  0
  3 32  1  1  0  0  0
  4  5  1  0  0  0  0
  4 33  1  6  0  0  0
  5  6  1  6  0  0  0
  5  7  1  0  0  0  0
  7  8  1  0  0  0  0
  7  9  1  6  0  0  0
  9 10  1  0  0  0  0
 11 12  1  1  0  0  0
 11 13  1  0  0  0  0
 11 19  1  0  0  0  0
 12 35  1  0  0  0  0
 13 14  1  0  0  0  0
 14 15  1  1  0  0  0
 14 16  1  0  0  0  0
 16  2  1  6  0  0  0
 16 17  1  0  0  0  0
 17 18  1  1  0  0  0
 17 19  1  0  0  0  0
 19 20  1  6  0  0  0
 21 20  1  6  0  0  0
 21 22  1  0  0  0  0
 21 29  1  0  0  0  0
 22 23  1  6  0  0  0
 22 24  1  0  0  0  0
 24 25  1  1  0  0  0
 24 26  1  0  0  0  0
 26 27  1  6  0  0  0
 26 28  1  0  0  0  0
 28 29  1  0  0  0  0
 28 30  1  1  0  0  0
 30 31  1  0  0  0  0
 34 39  1  0  0  0  0
 35 36  2  0  0  0  0
 37 35  1  1  0  0  0
 37 38  1  0  0  0  0
 37 40  1  0  0  0  0
 38 39  1  0  0  0  0
M  END
>  <CHROM.1>
-159.55715508,-72.78940234,-49.94604667,-69.46686882,108.70597540,119.28043136
-162.31359754,-55.84584689,58.97748768,-171.52325681,22.77424428,7.41557468
-0.59193511,-2.30429891,-1.40300850,-0.18107210

>  <Name>
2g5q_lig

>  <RI>
0

>  <Rbt.Current_Directory>
/home/itssahil/PROJECTS/Mol_Feturizer/New_Systems/rnas/2g5q

>  <Rbt.Executable>
rbdock ($Id: //depot/dev/client3/rdock/2013.1/src/exe/rbdock.cxx#4 $)

>  <Rbt.Library>
libRbt.so (2013.1, Build901 2013/11/27)

>  <Rbt.Parameter_File>
/export/apps/rDock/src/rDock_2013.1_src/data/scripts/dock_solv.prm

>  <Rbt.Receptor>
prm/blind_docking_40.prm

>  <SCORE>
21.2923

>  <SCORE.INTER>
4.64508

>  <SCORE.INTER.CONST>
1

>  <SCORE.INTER.POLAR>
-0.553506

>  <SCORE.INTER.ROT>
10

>  <SCORE.INTER.SOLV>
18.3732

>  <SCORE.INTER.VDW>
-11.4493

>  <SCORE.INTER.norm>
0.116127

>  <SCORE.INTRA>
6.91773

>  <SCORE.INTRA.DIHEDRAL>
-3.67394

>  <SCORE.INTRA.DIHEDRAL.0>
22.5778

>  <SCORE.INTRA.POLAR>
0

>  <SCORE.INTRA.POLAR.0>
0

>  <SCORE.INTRA.REPUL>
0

>  <SCORE.INTRA.REPUL.0>
0

>  <SCORE.INTRA.SOLV>
9.21483

>  <SCORE.INTRA.SOLV.lig_0>
-102.332

>  <SCORE.INTRA.VDW>
4.14728

>  <SCORE.INTRA.VDW.0>
-5.08747

>  <SCORE.INTRA.norm>
0.172943

>  <SCORE.RESTR>
9.72946

>  <SCORE.RESTR.CAVITY>
9.72946

>  <SCORE.RESTR.norm>
0.243236

>  <SCORE.SYSTEM>
0

>  <SCORE.SYSTEM.CONST>
0

>  <SCORE.SYSTEM.DIHEDRAL>
0

>  <SCORE.SYSTEM.SOLV>
0

>  <SCORE.SYSTEM.norm>
0

>  <SCORE.heavy>
40

>  <SCORE.norm>
0.532307

>  <RMSD>
34.156

$$$$
2g5q_lig
 OpenBabel11021811433D
libRbt.so/2013.1/901 2013/11/27
 40 42  0  0  0  0  0  0  0  0999 V2000
   22.6472    4.6895   -1.0506 C   0  0  2  0  0  0  0  0  0  0  0  0
   22.0092    5.6394   -1.8753 O   0  0  0  0  0  0  0  0  0  0  0  0
   23.6948    3.9106   -1.8995 C   0  0  1  0  0  0  0  0  0  0  0  0
   23.0175    3.0309   -2.9955 C   0  0  2  0  0  0  0  0  0  0  0  0
   22.0736    2.0283   -2.2823 C   0  0  2  0  0  0  0  0  0  0  0  0
   21.4463    1.1819   -3.2593 O   0  0  0  0  0  0  0  0  0  0  0  0
   20.9971    2.8539   -1.4676 C   0  0  2  0  0  0  0  0  0  0  0  0
   21.6741    3.7284   -0.4678 O   0  0  0  0  0  0  0  0  0  0  0  0
   20.0187    1.9621   -0.7106 C   0  0  0  0  0  0  0  0  0  0  0  0
   20.6191    1.4078    0.5440 N   0  0  0  0  0  0  0  0  0  0  0  0
   23.0966    9.8670   -1.7273 C   0  0  2  0  0  0  0  0  0  0  0  0
   23.0599   11.2920   -1.4211 N   0  0  0  0  0  0  0  0  0  0  0  0
   21.7934    9.4439   -2.5264 C   0  0  0  0  0  0  0  0  0  0  0  0
   21.8323    7.9020   -2.8665 C   0  0  2  0  0  0  0  0  0  0  0  0
   20.6106    7.5205   -3.6253 N   0  0  0  0  0  0  0  0  0  0  0  0
   21.9624    7.0701   -1.5290 C   0  0  2  0  0  0  0  0  0  0  0  0
   23.2670    7.5217   -0.7603 C   0  0  2  0  0  0  0  0  0  0  0  0
   23.3793    6.7717    0.4534 O   0  0  0  0  0  0  0  0  0  0  0  0
   23.2005    9.0589   -0.4173 C   0  0  1  0  0  0  0  0  0  0  0  0
   24.4086    9.4747    0.2797 O   0  0  0  0  0  0  0  0  0  0  0  0
   24.4175   10.1202    1.5293 C   0  0  2  0  0  0  0  0  0  0  0  0
   25.1498    9.1749    2.5409 C   0  0  2  0  0  0  0  0  0  0  0  0
   26.4500    8.9430    2.1027 O   0  0  0  0  0  0  0  0  0  0  0  0
   24.3665    7.8199    2.7229 C   0  0  1  0  0  0  0  0  0  0  0  0
   25.0579    6.9091    3.6938 N   0  0  0  0  0  0  0  0  0  0  0  0
   22.9024    8.1551    3.2142 C   0  0  2  0  0  0  0  0  0  0  0  0
   22.1425    6.9600    3.4049 O   0  0  0  0  0  0  0  0  0  0  0  0
   22.2265    9.0981    2.1623 C   0  0  2  0  0  0  0  0  0  0  0  0
   23.0304   10.3537    1.9692 O   0  0  0  0  0  0  0  0  0  0  0  0
   20.8371    9.4878    2.5762 C   0  0  0  0  0  0  0  0  0  0  0  0
   20.8060   10.8228    3.1070 O   0  0  0  0  0  0  0  0  0  0  0  0
   24.6186    4.8830   -2.4988 O   0  0  0  0  0  0  0  0  0  0  0  0
   23.9866    2.3565   -3.7051 O   0  0  0  0  0  0  0  0  0  0  0  0
   20.5129   12.6356    0.8712 N   0  0  0  0  0  0  0  0  0  0  0  0
   23.2817   12.3134   -2.3343 C   0  0  0  0  0  0  0  0  0  0  0  0
   23.5447   12.1275   -3.5173 O   0  0  0  0  0  0  0  0  0  0  0  0
   23.1772   13.7146   -1.6893 C   0  0  1  0  0  0  0  0  0  0  0  0
   22.4480   13.6195   -0.3338 C   0  0  0  0  0  0  0  0  0  0  0  0
   20.9756   13.1969   -0.3963 C   0  0  0  0  0  0  0  0  0  0  0  0
   24.5057   14.2596   -1.5237 O   0  0  0  0  0  0  0  0  0  0  0  0
  1  2  1  6  0  0  0
  1  3  1  0  0  0  0
  1  8  1  0  0  0  0
  3  4  1  0  0  0  0
  3 32  1  6  0  0  0
  4  5  1  0  0  0  0
  4 33  1  1  0  0  0
  5  6  1  6  0  0  0
  5  7  1  0  0  0  0
  7  8  1  0  0  0  0
  7  9  1  1  0  0  0
  9 10  1  0  0  0  0
 11 12  1  1  0  0  0
 11 13  1  0  0  0  0
 11 19  1  0  0  0  0
 12 35  1  0  0  0  0
 13 14  1  0  0  0  0
 14 15  1  1  0  0  0
 14 16  1  0  0  0  0
 16  2  1  6  0  0  0
 16 17  1  0  0  0  0
 17 18  1  1  0  0  0
 17 19  1  0  0  0  0
 19 20  1  6  0  0  0
 21 20  1  6  0  0  0
 21 22  1  0  0  0  0
 21 29  1  0  0  0  0
 22 23  1  6  0  0  0
 22 24  1  0  0  0  0
 24 25  1  1  0  0  0
 24 26  1  0  0  0  0
 26 27  1  6  0  0  0
 26 28  1  0  0  0  0
 28 29  1  0  0  0  0
 28 30  1  1  0  0  0
 30 31  1  0  0  0  0
 34 39  1  0  0  0  0
 35 36  2  0  0  0  0
 37 35  1  1  0  0  0
 37 38  1  0  0  0  0
 37 40  1  0  0  0  0
 38 39  1  0  0  0  0
M  END
>  <CHROM.1>
-125.36160168,77.85854154,-74.59903463,153.42583365,115.52780189,116.86024426
102.41965492,-17.06166966,-65.47189815,157.77533890,22.74420285,7.81825321
-0.38696733,2.37215520,1.43865488,2.54670921

>  <Name>
2g5q_lig

>  <RI>
0

>  <Rbt.Current_Directory>
/home/itssahil/PROJECTS/Mol_Feturizer/New_Systems/rnas/2g5q

>  <Rbt.Executable>
rbdock ($Id: //depot/dev/client3/rdock/2013.1/src/exe/rbdock.cxx#4 $)

>  <Rbt.Library>
libRbt.so (2013.1, Build901 2013/11/27)

>  <Rbt.Parameter_File>
/export/apps/rDock/src/rDock_2013.1_src/data/scripts/dock_solv.prm

>  <Rbt.Receptor>
prm/blind_docking_40.prm

>  <SCORE>
23.9821

>  <SCORE.INTER>
2.44763

>  <SCORE.INTER.CONST>
1

>  <SCORE.INTER.POLAR>
0

>  <SCORE.INTER.ROT>
10

>  <SCORE.INTER.SOLV>
20.217

>  <SCORE.INTER.VDW>
-15.3739

>  <SCORE.INTER.norm>
0.0611908

>  <SCORE.INTRA>
11.5402

>  <SCORE.INTRA.DIHEDRAL>
11.0987

>  <SCORE.INTRA.DIHEDRAL.0>
22.5778

>  <SCORE.INTRA.POLAR>
0

>  <SCORE.INTRA.POLAR.0>
0

>  <SCORE.INTRA.REPUL>
0

>  <SCORE.INTRA.REPUL.0>
0

>  <SCORE.INTRA.SOLV>
4.85287

>  <SCORE.INTRA.SOLV.lig_0>
-102.332

>  <SCORE.INTRA.VDW>
3.56442

>  <SCORE.INTRA.VDW.0>
-5.08747

>  <SCORE.INTRA.norm>
0.288505

>  <SCORE.RESTR>
9.99423

>  <SCORE.RESTR.CAVITY>
9.99423

>  <SCORE.RESTR.norm>
0.249856

>  <SCORE.SYSTEM>
0

>  <SCORE.SYSTEM.CONST>
0

>  <SCORE.SYSTEM.DIHEDRAL>
0

>  <SCORE.SYSTEM.SOLV>
0

>  <SCORE.SYSTEM.norm>
0

>  <SCORE.heavy>
40

>  <SCORE.norm>
0.599552

>  <RMSD>
34.159

$$$$
2g5q_lig
 OpenBabel11021811433D
libRbt.so/2013.1/901 2013/11/27
 40 42  0  0  0  0  0  0  0  0999 V2000
   23.5847    3.5565   -2.0946 C   0  0  2  0  0  0  0  0  0  0  0  0
   23.0575    4.5745   -2.9163 O   0  0  0  0  0  0  0  0  0  0  0  0
   23.7830    2.2717   -2.9518 C   0  0  1  0  0  0  0  0  0  0  0  0
   22.4228    1.6744   -3.4279 C   0  0  2  0  0  0  0  0  0  0  0  0
   21.5857    1.3369   -2.1668 C   0  0  2  0  0  0  0  0  0  0  0  0
   20.3307    0.7611   -2.5640 O   0  0  0  0  0  0  0  0  0  0  0  0
   21.3664    2.6715   -1.3453 C   0  0  2  0  0  0  0  0  0  0  0  0
   22.6826    3.2516   -0.9530 O   0  0  0  0  0  0  0  0  0  0  0  0
   20.5616    2.4530   -0.0685 C   0  0  0  0  0  0  0  0  0  0  0  0
   20.2980    3.7365    0.6559 N   0  0  0  0  0  0  0  0  0  0  0  0
   22.5619    8.8509   -2.1782 C   0  0  2  0  0  0  0  0  0  0  0  0
   22.0409   10.1118   -1.6642 N   0  0  0  0  0  0  0  0  0  0  0  0
   21.4375    8.0838   -2.9925 C   0  0  0  0  0  0  0  0  0  0  0  0
   21.9999    6.7203   -3.5573 C   0  0  2  0  0  0  0  0  0  0  0  0
   20.9395    6.0163   -4.3280 N   0  0  0  0  0  0  0  0  0  0  0  0
   22.5282    5.8320   -2.3615 C   0  0  2  0  0  0  0  0  0  0  0  0
   23.6413    6.6297   -1.5731 C   0  0  2  0  0  0  0  0  0  0  0  0
   24.1135    5.8260   -0.4872 O   0  0  0  0  0  0  0  0  0  0  0  0
   23.0551    7.9784   -1.0054 C   0  0  1  0  0  0  0  0  0  0  0  0
   24.0856    8.7168   -0.2903 O   0  0  0  0  0  0  0  0  0  0  0  0
   23.8287    9.7988    0.5708 C   0  0  2  0  0  0  0  0  0  0  0  0
   25.1595   10.1189    1.3322 C   0  0  2  0  0  0  0  0  0  0  0  0
   26.1517   10.4508    0.4147 O   0  0  0  0  0  0  0  0  0  0  0  0
   25.6069    8.9049    2.2314 C   0  0  1  0  0  0  0  0  0  0  0  0
   26.8787    9.2036    2.9687 N   0  0  0  0  0  0  0  0  0  0  0  0
   24.4368    8.5781    3.2422 C   0  0  2  0  0  0  0  0  0  0  0  0
   24.7886    7.4854    4.0932 O   0  0  0  0  0  0  0  0  0  0  0  0
   23.1403    8.2663    2.4209 C   0  0  2  0  0  0  0  0  0  0  0  0
   22.7757    9.4212    1.5304 O   0  0  0  0  0  0  0  0  0  0  0  0
   21.9712    7.9752    3.3165 C   0  0  0  0  0  0  0  0  0  0  0  0
   22.2966    6.9683    4.2886 O   0  0  0  0  0  0  0  0  0  0  0  0
   24.6418    2.6074   -4.0954 O   0  0  0  0  0  0  0  0  0  0  0  0
   22.6563    0.5362   -4.1679 O   0  0  0  0  0  0  0  0  0  0  0  0
   21.4994   14.0914    1.1630 N   0  0  0  0  0  0  0  0  0  0  0  0
   22.3028   11.3648   -2.2007 C   0  0  0  0  0  0  0  0  0  0  0  0
   23.0191   11.5541   -3.1776 O   0  0  0  0  0  0  0  0  0  0  0  0
   21.6036   12.4999   -1.4177 C   0  0  1  0  0  0  0  0  0  0  0  0
   22.6397   13.5532   -0.9758 C   0  0  0  0  0  0  0  0  0  0  0  0
   22.1196   14.6483   -0.0375 C   0  0  0  0  0  0  0  0  0  0  0  0
   20.5868   13.0954   -2.2547 O   0  0  0  0  0  0  0  0  0  0  0  0
  1  2  1  6  0  0  0
  1  3  1  0  0  0  0
  1  8  1  0  0  0  0
  3  4  1  0  0  0  0
  3 32  1  6  0  0  0
  4  5  1  0  0  0  0
  4 33  1  1  0  0  0
  5  6  1  6  0  0  0
  5  7  1  0  0  0  0
  7  8  1  0  0  0  0
  7  9  1  1  0  0  0
  9 10  1  0  0  0  0
 11 12  1  1  0  0  0
 11 13  1  0  0  0  0
 11 19  1  0  0  0  0
 12 35  1  0  0  0  0
 13 14  1  0  0  0  0
 14 15  1  1  0  0  0
 14 16  1  0  0  0  0
 16  2  1  6  0  0  0
 16 17  1  0  0  0  0
 17 18  1  1  0  0  0
 17 19  1  0  0  0  0
 19 20  1  6  0  0  0
 21 20  1  6  0  0  0
 21 22  1  0  0  0  0
 21 29  1  0  0  0  0
 22 23  1  6  0  0  0
 22 24  1  0  0  0  0
 24 25  1  1  0  0  0
 24 26  1  0  0  0  0
 26 27  1  6  0  0  0
 26 28  1  0  0  0  0
 28 29  1  0  0  0  0
 28 30  1  1  0  0  0
 30 31  1  0  0  0  0
 34 39  1  0  0  0  0
 35 36  2  0  0  0  0
 37 35  1  6  0  0  0
 37 38  1  0  0  0  0
 37 40  1  0  0  0  0
 38 39  1  0  0  0  0
M  END
>  <CHROM.1>
168.63420848,-176.79322256,-102.99852316,-178.92724447,74.96883340,169.36524696
-51.62705408,125.30790725,-172.56910618,55.47773393,22.86249229,7.27590113
-0.71971665,-1.83084360,-1.21633050,0.05877842

>  <Name>
2g5q_lig

>  <RI>
0

>  <Rbt.Current_Directory>
/home/itssahil/PROJECTS/Mol_Feturizer/New_Systems/rnas/2g5q

>  <Rbt.Executable>
rbdock ($Id: //depot/dev/client3/rdock/2013.1/src/exe/rbdock.cxx#4 $)

>  <Rbt.Library>
libRbt.so (2013.1, Build901 2013/11/27)

>  <Rbt.Parameter_File>
/export/apps/rDock/src/rDock_2013.1_src/data/scripts/dock_solv.prm

>  <Rbt.Receptor>
prm/blind_docking_40.prm

>  <SCORE>
6.13762

>  <SCORE.INTER>
1.80083

>  <SCORE.INTER.CONST>
1

>  <SCORE.INTER.POLAR>
-1.2875

>  <SCORE.INTER.ROT>
10

>  <SCORE.INTER.SOLV>
29.8009

>  <SCORE.INTER.VDW>
-14.7081

>  <SCORE.INTER.norm>
0.0450206

>  <SCORE.INTRA>
-7.33856

>  <SCORE.INTRA.DIHEDRAL>
-16.3906

>  <SCORE.INTRA.DIHEDRAL.0>
22.5778

>  <SCORE.INTRA.POLAR>
0

>  <SCORE.INTRA.POLAR.0>
0

>  <SCORE.INTRA.REPUL>
0

>  <SCORE.INTRA.REPUL.0>
0

>  <SCORE.INTRA.SOLV>
0.0760586

>  <SCORE.INTRA.SOLV.lig_0>
-102.332

>  <SCORE.INTRA.VDW>
0.81871

>  <SCORE.INTRA.VDW.0>
-5.08747

>  <SCORE.INTRA.norm>
-0.183464

>  <SCORE.RESTR>
11.6754

>  <SCORE.RESTR.CAVITY>
11.6754

>  <SCORE.RESTR.norm>
0.291884

>  <SCORE.SYSTEM>
0

>  <SCORE.SYSTEM.CONST>
0

>  <SCORE.SYSTEM.DIHEDRAL>
0

>  <SCORE.SYSTEM.SOLV>
0

>  <SCORE.SYSTEM.norm>
0

>  <SCORE.heavy>
40

>  <SCORE.norm>
0.15344

>  <RMSD>
34.193

$$$$
2g5q_lig
 OpenBabel11021811433D
libRbt.so/2013.1/901 2013/11/27
 40 42  0  0  0  0  0  0  0  0999 V2000
   22.4835    4.1815   -3.3341 C   0  0  2  0  0  0  0  0  0  0  0  0
   23.0303    4.7361   -2.1581 O   0  0  0  0  0  0  0  0  0  0  0  0
   21.3969    3.1384   -2.9392 C   0  0  1  0  0  0  0  0  0  0  0  0
   22.0136    1.9009   -2.2169 C   0  0  2  0  0  0  0  0  0  0  0  0
   23.0366    1.2490   -3.1830 C   0  0  2  0  0  0  0  0  0  0  0  0
   23.6116    0.0884   -2.5611 O   0  0  0  0  0  0  0  0  0  0  0  0
   24.1481    2.3218   -3.5261 C   0  0  2  0  0  0  0  0  0  0  0  0
   23.5246    3.5175   -4.1621 O   0  0  0  0  0  0  0  0  0  0  0  0
   25.2058    1.7892   -4.4869 C   0  0  0  0  0  0  0  0  0  0  0  0
   25.9639    0.6366   -3.9051 N   0  0  0  0  0  0  0  0  0  0  0  0
   23.2254    8.8828   -0.8003 C   0  0  2  0  0  0  0  0  0  0  0  0
   22.8223   10.1953   -0.3097 N   0  0  0  0  0  0  0  0  0  0  0  0
   22.5030    8.5658   -2.1763 C   0  0  0  0  0  0  0  0  0  0  0  0
   22.9425    7.1476   -2.7150 C   0  0  2  0  0  0  0  0  0  0  0  0
   22.2670    6.8673   -4.0108 N   0  0  0  0  0  0  0  0  0  0  0  0
   22.5994    6.0443   -1.6366 C   0  0  2  0  0  0  0  0  0  0  0  0
   23.3319    6.3960   -0.2814 C   0  0  2  0  0  0  0  0  0  0  0  0
   23.0148    5.3992    0.6953 O   0  0  0  0  0  0  0  0  0  0  0  0
   22.8677    7.8071    0.2461 C   0  0  1  0  0  0  0  0  0  0  0  0
   23.5530    8.1339    1.4878 O   0  0  0  0  0  0  0  0  0  0  0  0
   23.1924    7.6226    2.7475 C   0  0  2  0  0  0  0  0  0  0  0  0
   23.9716    8.4456    3.8287 C   0  0  2  0  0  0  0  0  0  0  0  0
   23.6236    9.7893    3.7300 O   0  0  0  0  0  0  0  0  0  0  0  0
   25.5281    8.2541    3.6772 C   0  0  1  0  0  0  0  0  0  0  0  0
   26.2833    9.0351    4.7116 N   0  0  0  0  0  0  0  0  0  0  0  0
   25.8520    6.7116    3.7927 C   0  0  2  0  0  0  0  0  0  0  0  0
   27.2560    6.4749    3.6699 O   0  0  0  0  0  0  0  0  0  0  0  0
   25.0467    5.9483    2.6875 C   0  0  2  0  0  0  0  0  0  0  0  0
   23.5711    6.2004    2.8250 O   0  0  0  0  0  0  0  0  0  0  0  0
   25.2791    4.4667    2.7532 C   0  0  0  0  0  0  0  0  0  0  0  0
   24.3680    3.7572    1.8981 O   0  0  0  0  0  0  0  0  0  0  0  0
   20.4034    3.8063   -2.0877 O   0  0  0  0  0  0  0  0  0  0  0  0
   21.0128    1.0077   -1.9033 O   0  0  0  0  0  0  0  0  0  0  0  0
   23.9602   14.1022   -1.9683 N   0  0  0  0  0  0  0  0  0  0  0  0
   23.6246   11.3277   -0.2999 C   0  0  0  0  0  0  0  0  0  0  0  0
   24.7826   11.3487   -0.7021 O   0  0  0  0  0  0  0  0  0  0  0  0
   22.9004   12.5589    0.2920 C   0  0  1  0  0  0  0  0  0  0  0  0
   21.9829   13.1944   -0.7722 C   0  0  0  0  0  0  0  0  0  0  0  0
   22.6391   13.4971   -2.1243 C   0  0  0  0  0  0  0  0  0  0  0  0
   22.1400   12.1488    1.4508 O   0  0  0  0  0  0  0  0  0  0  0  0
  1  2  1  1  0  0  0
  1  3  1  0  0  0  0
  1  8  1  0  0  0  0
  3  4  1  0  0  0  0
  3 32  1  1  0  0  0
  4  5  1  0  0  0  0
  4 33  1  6  0  0  0
  5  6  1  1  0  0  0
  5  7  1  0  0  0  0
  7  8  1  0  0  0  0
  7  9  1  6  0  0  0
  9 10  1  0  0  0  0
 11 12  1  1  0  0  0
 11 13  1  0  0  0  0
 11 19  1  0  0  0  0
 12 35  1  0  0  0  0
 13 14  1  0  0  0  0
 14 15  1  6  0  0  0
 14 16  1  0  0  0  0
 16  2  1  6  0  0  0
 16 17  1  0  0  0  0
 17 18  1  1  0  0  0
 17 19  1  0  0  0  0
 19 20  1  1  0  0  0
 21 20  1  6  0  0  0
 21 22  1  0  0  0  0
 21 29  1  0  0  0  0
 22 23  1  6  0  0  0
 22 24  1  0  0  0  0
 24 25  1  1  0  0  0
 24 26  1  0  0  0  0
 26 27  1  6  0  0  0
 26 28  1  0  0  0  0
 28 29  1  0  0  0  0
 28 30  1  1  0  0  0
 30 31  1  0  0  0  0
 34 39  1  0  0  0  0
 35 36  2  0  0  0  0
 37 35  1  6  0  0  0
 37 38  1  0  0  0  0
 37 40  1  0  0  0  0
 38 39  1  0  0  0  0
M  END
>  <CHROM.1>
-99.31630057,-62.42556009,-107.69816594,-61.99664885,161.37457413,-168.25779619
169.94796783,-80.49256553,-51.19640148,-43.65943414,23.52012554,6.67863329
-0.32490916,1.70837727,1.18861158,-2.85632117

>  <Name>
2g5q_lig

>  <RI>
0

>  <Rbt.Current_Directory>
/home/itssahil/PROJECTS/Mol_Feturizer/New_Systems/rnas/2g5q

>  <Rbt.Executable>
rbdock ($Id: //depot/dev/client3/rdock/2013.1/src/exe/rbdock.cxx#4 $)

>  <Rbt.Library>
libRbt.so (2013.1, Build901 2013/11/27)

>  <Rbt.Parameter_File>
/export/apps/rDock/src/rDock_2013.1_src/data/scripts/dock_solv.prm

>  <Rbt.Receptor>
prm/blind_docking_40.prm

>  <SCORE>
14.7907

>  <SCORE.INTER>
5.159

>  <SCORE.INTER.CONST>
1

>  <SCORE.INTER.POLAR>
-0.756756

>  <SCORE.INTER.ROT>
10

>  <SCORE.INTER.SOLV>
26.3364

>  <SCORE.INTER.VDW>
-13.0836

>  <SCORE.INTER.norm>
0.128975

>  <SCORE.INTRA>
-0.181176

>  <SCORE.INTRA.DIHEDRAL>
-11.1382

>  <SCORE.INTRA.DIHEDRAL.0>
22.5778

>  <SCORE.INTRA.POLAR>
0

>  <SCORE.INTRA.POLAR.0>
0

>  <SCORE.INTRA.REPUL>
0.00448334

>  <SCORE.INTRA.REPUL.0>
0

>  <SCORE.INTRA.SOLV>
5.00605

>  <SCORE.INTRA.SOLV.lig_0>
-102.332

>  <SCORE.INTRA.VDW>
2.86248

>  <SCORE.INTRA.VDW.0>
-5.08747

>  <SCORE.INTRA.norm>
-0.0045294

>  <SCORE.RESTR>
9.81292

>  <SCORE.RESTR.CAVITY>
9.81292

>  <SCORE.RESTR.norm>
0.245323

>  <SCORE.SYSTEM>
0

>  <SCORE.SYSTEM.CONST>
0

>  <SCORE.SYSTEM.DIHEDRAL>
0

>  <SCORE.SYSTEM.SOLV>
0

>  <SCORE.SYSTEM.norm>
0

>  <SCORE.heavy>
40

>  <SCORE.norm>
0.369769

>  <RMSD>
34.202

$$$$
2g5q_lig
 OpenBabel11021811433D
libRbt.so/2013.1/901 2013/11/27
 40 42  0  0  0  0  0  0  0  0999 V2000
   25.6325    5.4861    2.0163 C   0  0  2  0  0  0  0  0  0  0  0  0
   24.2367    5.5851    1.8390 O   0  0  0  0  0  0  0  0  0  0  0  0
   25.9196    4.5508    3.2276 C   0  0  1  0  0  0  0  0  0  0  0  0
   25.4347    5.1750    4.5725 C   0  0  2  0  0  0  0  0  0  0  0  0
   26.1780    6.5223    4.7652 C   0  0  2  0  0  0  0  0  0  0  0  0
   25.7745    7.1194    6.0082 O   0  0  0  0  0  0  0  0  0  0  0  0
   25.8275    7.4618    3.5410 C   0  0  2  0  0  0  0  0  0  0  0  0
   26.2488    6.8160    2.2649 O   0  0  0  0  0  0  0  0  0  0  0  0
   26.5205    8.8179    3.6204 C   0  0  0  0  0  0  0  0  0  0  0  0
   28.0002    8.7051    3.4215 N   0  0  0  0  0  0  0  0  0  0  0  0
   23.8778    9.0829   -0.7522 C   0  0  2  0  0  0  0  0  0  0  0  0
   23.3048   10.1073   -1.6170 N   0  0  0  0  0  0  0  0  0  0  0  0
   23.6484    7.6442   -1.3796 C   0  0  0  0  0  0  0  0  0  0  0  0
   24.2740    6.5317   -0.4492 C   0  0  2  0  0  0  0  0  0  0  0  0
   24.0621    5.1888   -1.0541 N   0  0  0  0  0  0  0  0  0  0  0  0
   23.6276    6.6232    0.9901 C   0  0  2  0  0  0  0  0  0  0  0  0
   23.8724    8.0688    1.5794 C   0  0  2  0  0  0  0  0  0  0  0  0
   23.2808    8.1512    2.8799 O   0  0  0  0  0  0  0  0  0  0  0  0
   23.2272    9.1617    0.6444 C   0  0  1  0  0  0  0  0  0  0  0  0
   23.4648   10.4928    1.1831 O   0  0  0  0  0  0  0  0  0  0  0  0
   22.5422   11.5517    1.1082 C   0  0  2  0  0  0  0  0  0  0  0  0
   21.5768   11.4209    2.3346 C   0  0  2  0  0  0  0  0  0  0  0  0
   22.3110   11.4964    3.5143 O   0  0  0  0  0  0  0  0  0  0  0  0
   20.7520   10.0799    2.2691 C   0  0  1  0  0  0  0  0  0  0  0  0
   19.8207    9.9475    3.4376 N   0  0  0  0  0  0  0  0  0  0  0  0
   19.9498   10.0566    0.9077 C   0  0  2  0  0  0  0  0  0  0  0  0
   19.1734    8.8623    0.7938 O   0  0  0  0  0  0  0  0  0  0  0  0
   20.9686   10.1887   -0.2743 C   0  0  2  0  0  0  0  0  0  0  0  0
   21.7794   11.4483   -0.1487 O   0  0  0  0  0  0  0  0  0  0  0  0
   20.2762   10.2056   -1.6062 C   0  0  0  0  0  0  0  0  0  0  0  0
   20.2282   11.5339   -2.1524 O   0  0  0  0  0  0  0  0  0  0  0  0
   25.2660    3.2589    2.9787 O   0  0  0  0  0  0  0  0  0  0  0  0
   25.7248    4.3142    5.6081 O   0  0  0  0  0  0  0  0  0  0  0  0
   21.8539   14.5838   -4.3266 N   0  0  0  0  0  0  0  0  0  0  0  0
   23.7802   11.4050   -1.7449 C   0  0  0  0  0  0  0  0  0  0  0  0
   24.7457   11.8432   -1.1293 O   0  0  0  0  0  0  0  0  0  0  0  0
   22.9449   12.2441   -2.7392 C   0  0  1  0  0  0  0  0  0  0  0  0
   23.7766   13.4365   -3.2534 C   0  0  0  0  0  0  0  0  0  0  0  0
   23.2345   14.1385   -4.5039 C   0  0  0  0  0  0  0  0  0  0  0  0
   22.5226   11.3992   -3.8333 O   0  0  0  0  0  0  0  0  0  0  0  0
  1  2  1  1  0  0  0
  1  3  1  0  0  0  0
  1  8  1  0  0  0  0
  3  4  1  0  0  0  0
  3 32  1  6  0  0  0
  4  5  1  0  0  0  0
  4 33  1  1  0  0  0
  5  6  1  1  0  0  0
  5  7  1  0  0  0  0
  7  8  1  0  0  0  0
  7  9  1  1  0  0  0
  9 10  1  0  0  0  0
 11 12  1  6  0  0  0
 11 13  1  0  0  0  0
 11 19  1  0  0  0  0
 12 35  1  0  0  0  0
 13 14  1  0  0  0  0
 14 15  1  6  0  0  0
 14 16  1  0  0  0  0
 16  2  1  1  0  0  0
 16 17  1  0  0  0  0
 17 18  1  1  0  0  0
 17 19  1  0  0  0  0
 19 20  1  1  0  0  0
 21 20  1  1  0  0  0
 21 22  1  0  0  0  0
 21 29  1  0  0  0  0
 22 23  1  1  0  0  0
 22 24  1  0  0  0  0
 24 25  1  1  0  0  0
 24 26  1  0  0  0  0
 26 27  1  6  0  0  0
 26 28  1  0  0  0  0
 28 29  1  0  0  0  0
 28 30  1  6  0  0  0
 30 31  1  0  0  0  0
 34 39  1  0  0  0  0
 35 36  2  0  0  0  0
 37 35  1  1  0  0  0
 37 38  1  0  0  0  0
 37 40  1  0  0  0  0
 38 39  1  0  0  0  0
M  END
>  <CHROM.1>
165.57925647,69.02168299,-149.68423098,54.96687887,96.65769027,85.95846033
103.94511826,-158.45045193,164.47174670,55.11353651,23.48650232,9.00992459
0.88511914,-1.08515754,0.63846010,-1.05614171

>  <Name>
2g5q_lig

>  <RI>
224

>  <Rbt.Current_Directory>
/home/itssahil/PROJECTS/Mol_Feturizer/New_Systems/rnas/2g5q

>  <Rbt.Executable>
rbdock ($Id: //depot/dev/client3/rdock/2013.1/src/exe/rbdock.cxx#4 $)

>  <Rbt.Library>
libRbt.so (2013.1, Build901 2013/11/27)

>  <Rbt.Parameter_File>
/export/apps/rDock/src/rDock_2013.1_src/data/scripts/dock_solv.prm

>  <Rbt.Receptor>
prm/blind_docking_100.prm

>  <SCORE>
55.0872

>  <SCORE.INTER>
28.721

>  <SCORE.INTER.CONST>
1

>  <SCORE.INTER.POLAR>
-0.127282

>  <SCORE.INTER.ROT>
10

>  <SCORE.INTER.SOLV>
25.6281

>  <SCORE.INTER.VDW>
0.762214

>  <SCORE.INTER.norm>
0.718024

>  <SCORE.INTRA>
5.44443

>  <SCORE.INTRA.DIHEDRAL>
-6.32142

>  <SCORE.INTRA.DIHEDRAL.0>
22.5778

>  <SCORE.INTRA.POLAR>
0

>  <SCORE.INTRA.POLAR.0>
0

>  <SCORE.INTRA.REPUL>
0

>  <SCORE.INTRA.REPUL.0>
0

>  <SCORE.INTRA.SOLV>
6.75062

>  <SCORE.INTRA.SOLV.lig_0>
-102.332

>  <SCORE.INTRA.VDW>
5.22983

>  <SCORE.INTRA.VDW.0>
-5.08747

>  <SCORE.INTRA.norm>
0.136111

>  <SCORE.RESTR>
20.9219

>  <SCORE.RESTR.CAVITY>
20.9219

>  <SCORE.RESTR.norm>
0.523046

>  <SCORE.SYSTEM>
0

>  <SCORE.SYSTEM.CONST>
0

>  <SCORE.SYSTEM.DIHEDRAL>
0

>  <SCORE.SYSTEM.SOLV>
0

>  <SCORE.SYSTEM.norm>
0

>  <SCORE.heavy>
40

>  <SCORE.norm>
1.37718

>  <RMSD>
34.229

$$$$
2g5q_lig
 OpenBabel11021811433D
libRbt.so/2013.1/901 2013/11/27
 40 42  0  0  0  0  0  0  0  0999 V2000
   21.8688    3.6731   -4.1614 C   0  0  2  0  0  0  0  0  0  0  0  0
   21.3964    4.0050   -2.8745 O   0  0  0  0  0  0  0  0  0  0  0  0
   21.1361    2.3886   -4.6493 C   0  0  1  0  0  0  0  0  0  0  0  0
   21.5212    1.1399   -3.7972 C   0  0  2  0  0  0  0  0  0  0  0  0
   23.0550    0.9420   -3.9123 C   0  0  2  0  0  0  0  0  0  0  0  0
   23.4473   -0.2158   -3.1574 O   0  0  0  0  0  0  0  0  0  0  0  0
   23.7658    2.2463   -3.3668 C   0  0  2  0  0  0  0  0  0  0  0  0
   23.3358    3.4323   -4.1613 O   0  0  0  0  0  0  0  0  0  0  0  0
   25.2867    2.1667   -3.4462 C   0  0  0  0  0  0  0  0  0  0  0  0
   25.8246    0.9674   -2.7293 N   0  0  0  0  0  0  0  0  0  0  0  0
   22.2080    7.2691   -0.0881 C   0  0  2  0  0  0  0  0  0  0  0  0
   22.9116    8.1630    0.8239 N   0  0  0  0  0  0  0  0  0  0  0  0
   22.2715    5.7776    0.4477 C   0  0  0  0  0  0  0  0  0  0  0  0
   21.5042    4.8067   -0.5337 C   0  0  2  0  0  0  0  0  0  0  0  0
   21.5617    3.4136   -0.0144 N   0  0  0  0  0  0  0  0  0  0  0  0
   22.1372    4.9090   -1.9784 C   0  0  2  0  0  0  0  0  0  0  0  0
   22.0597    6.4069   -2.4754 C   0  0  2  0  0  0  0  0  0  0  0  0
   22.6391    6.4982   -3.7808 O   0  0  0  0  0  0  0  0  0  0  0  0
   22.8442    7.3557   -1.4909 C   0  0  1  0  0  0  0  0  0  0  0  0
   22.7608    8.7362   -1.9444 O   0  0  0  0  0  0  0  0  0  0  0  0
   21.5642    9.4710   -2.0235 C   0  0  2  0  0  0  0  0  0  0  0  0
   21.8720   10.7854   -2.8177 C   0  0  2  0  0  0  0  0  0  0  0  0
   22.3309   10.4623   -4.0911 O   0  0  0  0  0  0  0  0  0  0  0  0
   22.9181   11.6811   -2.0523 C   0  0  1  0  0  0  0  0  0  0  0  0
   23.2163   12.9451   -2.8032 N   0  0  0  0  0  0  0  0  0  0  0  0
   22.3390   12.0048   -0.6180 C   0  0  2  0  0  0  0  0  0  0  0  0
   23.2443   12.8243    0.1243 O   0  0  0  0  0  0  0  0  0  0  0  0
   22.0554   10.6542    0.1223 C   0  0  2  0  0  0  0  0  0  0  0  0
   21.1007    9.7992   -0.6635 O   0  0  0  0  0  0  0  0  0  0  0  0
   21.4715   10.8796    1.4868 C   0  0  0  0  0  0  0  0  0  0  0  0
   22.4652   11.3606    2.4066 O   0  0  0  0  0  0  0  0  0  0  0  0
   19.6888    2.6357   -4.6005 O   0  0  0  0  0  0  0  0  0  0  0  0
   20.8569    0.0337   -4.2793 O   0  0  0  0  0  0  0  0  0  0  0  0
   26.9568    7.9931    4.0069 N   0  0  0  0  0  0  0  0  0  0  0  0
   23.9705    7.7991    1.6440 C   0  0  0  0  0  0  0  0  0  0  0  0
   24.4344    6.6655    1.6990 O   0  0  0  0  0  0  0  0  0  0  0  0
   24.4904    8.9803    2.4954 C   0  0  1  0  0  0  0  0  0  0  0  0
   24.5436    8.5765    3.9828 C   0  0  0  0  0  0  0  0  0  0  0  0
   25.6113    7.5415    4.3556 C   0  0  0  0  0  0  0  0  0  0  0  0
   25.7988    9.3674    2.0185 O   0  0  0  0  0  0  0  0  0  0  0  0
  1  2  1  1  0  0  0
  1  3  1  0  0  0  0
  1  8  1  0  0  0  0
  3  4  1  0  0  0  0
  3 32  1  1  0  0  0
  4  5  1  0  0  0  0
  4 33  1  6  0  0  0
  5  6  1  1  0  0  0
  5  7  1  0  0  0  0
  7  8  1  0  0  0  0
  7  9  1  6  0  0  0
  9 10  1  0  0  0  0
 11 12  1  1  0  0  0
 11 13  1  0  0  0  0
 11 19  1  0  0  0  0
 12 35  1  0  0  0  0
 13 14  1  0  0  0  0
 14 15  1  1  0  0  0
 14 16  1  0  0  0  0
 16  2  1  6  0  0  0
 16 17  1  0  0  0  0
 17 18  1  6  0  0  0
 17 19  1  0  0  0  0
 19 20  1  6  0  0  0
 21 20  1  1  0  0  0
 21 22  1  0  0  0  0
 21 29  1  0  0  0  0
 22 23  1  6  0  0  0
 22 24  1  0  0  0  0
 24 25  1  6  0  0  0
 24 26  1  0  0  0  0
 26 27  1  1  0  0  0
 26 28  1  0  0  0  0
 28 29  1  0  0  0  0
 28 30  1  1  0  0  0
 30 31  1  0  0  0  0
 34 39  1  0  0  0  0
 35 36  2  0  0  0  0
 37 35  1  6  0  0  0
 37 38  1  0  0  0  0
 37 40  1  0  0  0  0
 38 39  1  0  0  0  0
M  END
>  <CHROM.1>
161.91161330,-55.92092716,28.04680513,-167.65017300,-55.39704138,-168.83711621
-73.49237587,127.95592745,69.45441716,58.00115297,22.85960577,6.65934651
-1.18825780,1.76269393,1.05741667,-2.83967625

>  <Name>
2g5q_lig

>  <RI>
0

>  <Rbt.Current_Directory>
/home/itssahil/PROJECTS/Mol_Feturizer/New_Systems/rnas/2g5q

>  <Rbt.Executable>
rbdock ($Id: //depot/dev/client3/rdock/2013.1/src/exe/rbdock.cxx#4 $)

>  <Rbt.Library>
libRbt.so (2013.1, Build901 2013/11/27)

>  <Rbt.Parameter_File>
/export/apps/rDock/src/rDock_2013.1_src/data/scripts/dock_solv.prm

>  <Rbt.Receptor>
prm/blind_docking_40.prm

>  <SCORE>
5.64859

>  <SCORE.INTER>
-3.2557

>  <SCORE.INTER.CONST>
1

>  <SCORE.INTER.POLAR>
-1.00936

>  <SCORE.INTER.ROT>
10

>  <SCORE.INTER.SOLV>
23.964

>  <SCORE.INTER.VDW>
-17.0606

>  <SCORE.INTER.norm>
-0.0813925

>  <SCORE.INTRA>
-2.72591

>  <SCORE.INTRA.DIHEDRAL>
-15.6001

>  <SCORE.INTRA.DIHEDRAL.0>
22.5778

>  <SCORE.INTRA.POLAR>
0

>  <SCORE.INTRA.POLAR.0>
0

>  <SCORE.INTRA.REPUL>
0

>  <SCORE.INTRA.REPUL.0>
0

>  <SCORE.INTRA.SOLV>
4.93117

>  <SCORE.INTRA.SOLV.lig_0>
-102.332

>  <SCORE.INTRA.VDW>
2.60858

>  <SCORE.INTRA.VDW.0>
-5.08747

>  <SCORE.INTRA.norm>
-0.0681477

>  <SCORE.RESTR>
11.6302

>  <SCORE.RESTR.CAVITY>
11.6302

>  <SCORE.RESTR.norm>
0.290755

>  <SCORE.SYSTEM>
0

>  <SCORE.SYSTEM.CONST>
0

>  <SCORE.SYSTEM.DIHEDRAL>
0

>  <SCORE.SYSTEM.SOLV>
0

>  <SCORE.SYSTEM.norm>
0

>  <SCORE.heavy>
40

>  <SCORE.norm>
0.141215

>  <RMSD>
34.261

$$$$
2g5q_lig
 OpenBabel11021811433D
libRbt.so/2013.1/901 2013/11/27
 40 42  0  0  0  0  0  0  0  0999 V2000
   23.9688    5.9833    3.9362 C   0  0  2  0  0  0  0  0  0  0  0  0
   24.5040    7.2872    3.8832 O   0  0  0  0  0  0  0  0  0  0  0  0
   25.0935    4.9961    4.3669 C   0  0  1  0  0  0  0  0  0  0  0  0
   26.2098    4.8776    3.2838 C   0  0  2  0  0  0  0  0  0  0  0  0
   25.5483    4.3764    1.9738 C   0  0  2  0  0  0  0  0  0  0  0  0
   26.5509    4.2317    0.9549 O   0  0  0  0  0  0  0  0  0  0  0  0
   24.4442    5.4249    1.5428 C   0  0  2  0  0  0  0  0  0  0  0  0
   23.4221    5.5616    2.6196 O   0  0  0  0  0  0  0  0  0  0  0  0
   23.7150    5.0226    0.2653 C   0  0  0  0  0  0  0  0  0  0  0  0
   22.7152    3.9349    0.5080 N   0  0  0  0  0  0  0  0  0  0  0  0
   24.8418   10.4869    0.9294 C   0  0  2  0  0  0  0  0  0  0  0  0
   25.1239   11.1934   -0.3144 N   0  0  0  0  0  0  0  0  0  0  0  0
   26.1704    9.8408    1.5068 C   0  0  0  0  0  0  0  0  0  0  0  0
   25.8706    9.0804    2.8583 C   0  0  2  0  0  0  0  0  0  0  0  0
   27.1260    8.4888    3.3949 N   0  0  0  0  0  0  0  0  0  0  0  0
   24.7732    7.9711    2.6069 C   0  0  2  0  0  0  0  0  0  0  0  0
   23.4690    8.6509    2.0291 C   0  0  2  0  0  0  0  0  0  0  0  0
   22.4792    7.6439    1.7964 O   0  0  0  0  0  0  0  0  0  0  0  0
   23.7871    9.3904    0.6738 C   0  0  1  0  0  0  0  0  0  0  0  0
   22.5870   10.0260    0.1502 O   0  0  0  0  0  0  0  0  0  0  0  0
   21.3518    9.3724   -0.0086 C   0  0  2  0  0  0  0  0  0  0  0  0
   20.4990   10.2181   -1.0139 C   0  0  2  0  0  0  0  0  0  0  0  0
   21.1659   10.3032   -2.2323 O   0  0  0  0  0  0  0  0  0  0  0  0
   20.1954   11.6524   -0.4365 C   0  0  1  0  0  0  0  0  0  0  0  0
   19.3748   12.4688   -1.3906 N   0  0  0  0  0  0  0  0  0  0  0  0
   19.4457   11.4830    0.9443 C   0  0  2  0  0  0  0  0  0  0  0  0
   19.1359   12.7556    1.5157 O   0  0  0  0  0  0  0  0  0  0  0  0
   20.3484   10.6334    1.9014 C   0  0  2  0  0  0  0  0  0  0  0  0
   20.6677    9.2956    1.2945 O   0  0  0  0  0  0  0  0  0  0  0  0
   19.6876   10.4020    3.2294 C   0  0  0  0  0  0  0  0  0  0  0  0
   19.4842   11.6380    3.9334 O   0  0  0  0  0  0  0  0  0  0  0  0
   25.6466    5.4566    5.6476 O   0  0  0  0  0  0  0  0  0  0  0  0
   27.1685    3.9849    3.7097 O   0  0  0  0  0  0  0  0  0  0  0  0
   22.6474   14.5432   -3.1098 N   0  0  0  0  0  0  0  0  0  0  0  0
   24.3001   12.1447   -0.8997 C   0  0  0  0  0  0  0  0  0  0  0  0
   23.2227   12.4968   -0.4322 O   0  0  0  0  0  0  0  0  0  0  0  0
   24.8846   12.7002   -2.2188 C   0  0  1  0  0  0  0  0  0  0  0  0
   23.9133   12.4250   -3.3846 C   0  0  0  0  0  0  0  0  0  0  0  0
   22.5387   13.0958   -3.2804 C   0  0  0  0  0  0  0  0  0  0  0  0
   25.1241   14.1179   -2.0703 O   0  0  0  0  0  0  0  0  0  0  0  0
  1  2  1  6  0  0  0
  1  3  1  0  0  0  0
  1  8  1  0  0  0  0
  3  4  1  0  0  0  0
  3 32  1  1  0  0  0
  4  5  1  0  0  0  0
  4 33  1  1  0  0  0
  5  6  1  6  0  0  0
  5  7  1  0  0  0  0
  7  8  1  0  0  0  0
  7  9  1  6  0  0  0
  9 10  1  0  0  0  0
 11 12  1  6  0  0  0
 11 13  1  0  0  0  0
 11 19  1  0  0  0  0
 12 35  1  0  0  0  0
 13 14  1  0  0  0  0
 14 15  1  6  0  0  0
 14 16  1  0  0  0  0
 16  2  1  1  0  0  0
 16 17  1  0  0  0  0
 17 18  1  6  0  0  0
 17 19  1  0  0  0  0
 19 20  1  1  0  0  0
 21 20  1  1  0  0  0
 21 22  1  0  0  0  0
 21 29  1  0  0  0  0
 22 23  1  6  0  0  0
 22 24  1  0  0  0  0
 24 25  1  6  0  0  0
 24 26  1  0  0  0  0
 26 27  1  1  0  0  0
 26 28  1  0  0  0  0
 28 29  1  0  0  0  0
 28 30  1  1  0  0  0
 30 31  1  0  0  0  0
 34 39  1  0  0  0  0
 35 36  2  0  0  0  0
 37 35  1  1  0  0  0
 37 38  1  0  0  0  0
 37 40  1  0  0  0  0
 38 39  1  0  0  0  0
M  END
>  <CHROM.1>
106.72374643,76.13970037,-162.37238943,-156.77921262,-169.92964404,-161.23162059
-63.70882348,120.40996768,62.62469680,55.32254852,23.31663229,9.13246786
1.03724050,1.14049585,-0.33515104,2.46553570

>  <Name>
2g5q_lig

>  <RI>
224

>  <Rbt.Current_Directory>
/home/itssahil/PROJECTS/Mol_Feturizer/New_Systems/rnas/2g5q

>  <Rbt.Executable>
rbdock ($Id: //depot/dev/client3/rdock/2013.1/src/exe/rbdock.cxx#4 $)

>  <Rbt.Library>
libRbt.so (2013.1, Build901 2013/11/27)

>  <Rbt.Parameter_File>
/export/apps/rDock/src/rDock_2013.1_src/data/scripts/dock_solv.prm

>  <Rbt.Receptor>
prm/blind_docking_100.prm

>  <SCORE>
16.0206

>  <SCORE.INTER>
-2.24915

>  <SCORE.INTER.CONST>
1

>  <SCORE.INTER.POLAR>
-0.194021

>  <SCORE.INTER.ROT>
10

>  <SCORE.INTER.SOLV>
25.1666

>  <SCORE.INTER.VDW>
-19.5082

>  <SCORE.INTER.norm>
-0.0562288

>  <SCORE.INTRA>
1.70132

>  <SCORE.INTRA.DIHEDRAL>
-8.02663

>  <SCORE.INTRA.DIHEDRAL.0>
22.5778

>  <SCORE.INTRA.POLAR>
0

>  <SCORE.INTRA.POLAR.0>
0

>  <SCORE.INTRA.REPUL>
0

>  <SCORE.INTRA.REPUL.0>
0

>  <SCORE.INTRA.SOLV>
7.83095

>  <SCORE.INTRA.SOLV.lig_0>
-102.332

>  <SCORE.INTRA.VDW>
1.79916

>  <SCORE.INTRA.VDW.0>
-5.08747

>  <SCORE.INTRA.norm>
0.042533

>  <SCORE.RESTR>
16.5684

>  <SCORE.RESTR.CAVITY>
16.5684

>  <SCORE.RESTR.norm>
0.414211

>  <SCORE.SYSTEM>
0

>  <SCORE.SYSTEM.CONST>
0

>  <SCORE.SYSTEM.DIHEDRAL>
0

>  <SCORE.SYSTEM.SOLV>
0

>  <SCORE.SYSTEM.norm>
0

>  <SCORE.heavy>
40

>  <SCORE.norm>
0.400515

>  <RMSD>
34.271

$$$$
2g5q_lig
 OpenBabel11021811433D
libRbt.so/2013.1/901 2013/11/27
 40 42  0  0  0  0  0  0  0  0999 V2000
   23.2667    4.0772   -3.2865 C   0  0  2  0  0  0  0  0  0  0  0  0
   24.0124    4.1535   -2.0917 O   0  0  0  0  0  0  0  0  0  0  0  0
   21.7563    3.9532   -2.9286 C   0  0  1  0  0  0  0  0  0  0  0  0
   21.4349    2.5996   -2.2229 C   0  0  2  0  0  0  0  0  0  0  0  0
   21.8390    1.4544   -3.1873 C   0  0  2  0  0  0  0  0  0  0  0  0
   21.5362    0.1874   -2.5811 O   0  0  0  0  0  0  0  0  0  0  0  0
   23.3862    1.5854   -3.4924 C   0  0  2  0  0  0  0  0  0  0  0  0
   23.6737    2.9103   -4.1128 O   0  0  0  0  0  0  0  0  0  0  0  0
   23.8922    0.5106   -4.4486 C   0  0  0  0  0  0  0  0  0  0  0  0
   25.3826    0.5405   -4.5893 N   0  0  0  0  0  0  0  0  0  0  0  0
   22.3953    7.6041    0.0428 C   0  0  2  0  0  0  0  0  0  0  0  0
   22.2951    8.7523    0.9357 N   0  0  0  0  0  0  0  0  0  0  0  0
   22.7504    6.2968    0.8678 C   0  0  0  0  0  0  0  0  0  0  0  0
   22.8528    5.0489   -0.0949 C   0  0  2  0  0  0  0  0  0  0  0  0
   23.1751    3.8281    0.6923 N   0  0  0  0  0  0  0  0  0  0  0  0
   23.9465    5.3253   -1.2019 C   0  0  2  0  0  0  0  0  0  0  0  0
   23.5614    6.6347   -1.9981 C   0  0  2  0  0  0  0  0  0  0  0  0
   24.5563    6.8865   -2.9956 O   0  0  0  0  0  0  0  0  0  0  0  0
   23.4799    7.8697   -1.0218 C   0  0  1  0  0  0  0  0  0  0  0  0
   23.1130    9.0718   -1.7557 O   0  0  0  0  0  0  0  0  0  0  0  0
   21.8141    9.6101   -1.7917 C   0  0  2  0  0  0  0  0  0  0  0  0
   21.4898    9.9543   -3.2849 C   0  0  2  0  0  0  0  0  0  0  0  0
   21.5595    8.7970   -4.0544 O   0  0  0  0  0  0  0  0  0  0  0  0
   22.4667   11.0592   -3.8393 C   0  0  1  0  0  0  0  0  0  0  0  0
   22.1611   11.3992   -5.2681 N   0  0  0  0  0  0  0  0  0  0  0  0
   22.3422   12.3385   -2.9199 C   0  0  2  0  0  0  0  0  0  0  0  0
   23.2032   13.3824   -3.3794 O   0  0  0  0  0  0  0  0  0  0  0  0
   22.6795   11.9290   -1.4464 C   0  0  2  0  0  0  0  0  0  0  0  0
   21.7681   10.8326   -0.9698 O   0  0  0  0  0  0  0  0  0  0  0  0
   22.5521   13.0901   -0.5034 C   0  0  0  0  0  0  0  0  0  0  0  0
   23.4842   14.1334   -0.8314 O   0  0  0  0  0  0  0  0  0  0  0  0
   21.3881    5.0930   -2.0781 O   0  0  0  0  0  0  0  0  0  0  0  0
   20.0878    2.5379   -1.9421 O   0  0  0  0  0  0  0  0  0  0  0  0
   24.5241    8.9743    4.3238 N   0  0  0  0  0  0  0  0  0  0  0  0
   21.2006    9.0526    1.7345 C   0  0  0  0  0  0  0  0  0  0  0  0
   20.1769    8.3788    1.7730 O   0  0  0  0  0  0  0  0  0  0  0  0
   21.4086   10.3434    2.5597 C   0  0  1  0  0  0  0  0  0  0  0  0
   22.8300   10.3651    3.1575 C   0  0  0  0  0  0  0  0  0  0  0  0
   23.5375    9.0080    3.2461 C   0  0  0  0  0  0  0  0  0  0  0  0
   21.1894   11.4902    1.7076 O   0  0  0  0  0  0  0  0  0  0  0  0
  1  2  1  1  0  0  0
  1  3  1  0  0  0  0
  1  8  1  0  0  0  0
  3  4  1  0  0  0  0
  3 32  1  1  0  0  0
  4  5  1  0  0  0  0
  4 33  1  6  0  0  0
  5  6  1  1  0  0  0
  5  7  1  0  0  0  0
  7  8  1  0  0  0  0
  7  9  1  6  0  0  0
  9 10  1  0  0  0  0
 11 12  1  1  0  0  0
 11 13  1  0  0  0  0
 11 19  1  0  0  0  0
 12 35  1  0  0  0  0
 13 14  1  0  0  0  0
 14 15  1  1  0  0  0
 14 16  1  0  0  0  0
 16  2  1  6  0  0  0
 16 17  1  0  0  0  0
 17 18  1  6  0  0  0
 17 19  1  0  0  0  0
 19 20  1  6  0  0  0
 21 20  1  6  0  0  0
 21 22  1  0  0  0  0
 21 29  1  0  0  0  0
 22 23  1  6  0  0  0
 22 24  1  0  0  0  0
 24 25  1  6  0  0  0
 24 26  1  0  0  0  0
 26 27  1  6  0  0  0
 26 28  1  0  0  0  0
 28 29  1  0  0  0  0
 28 30  1  1  0  0  0
 30 31  1  0  0  0  0
 34 39  1  0  0  0  0
 35 36  2  0  0  0  0
 37 35  1  6  0  0  0
 37 38  1  0  0  0  0
 37 40  1  0  0  0  0
 38 39  1  0  0  0  0
M  END
>  <CHROM.1>
-68.79606643,-172.69595758,-79.15782741,93.61980449,-19.31624403,-133.77610983
-62.51019562,-43.34447707,-19.88964965,-153.14087805,22.59755219,7.29052687
-1.34810985,-0.87467534,1.50016814,-0.41994785

>  <Name>
2g5q_lig

>  <RI>
0

>  <Rbt.Current_Directory>
/home/itssahil/PROJECTS/Mol_Feturizer/New_Systems/rnas/2g5q

>  <Rbt.Executable>
rbdock ($Id: //depot/dev/client3/rdock/2013.1/src/exe/rbdock.cxx#4 $)

>  <Rbt.Library>
libRbt.so (2013.1, Build901 2013/11/27)

>  <Rbt.Parameter_File>
/export/apps/rDock/src/rDock_2013.1_src/data/scripts/dock_solv.prm

>  <Rbt.Receptor>
prm/blind_docking_40.prm

>  <SCORE>
27.1287

>  <SCORE.INTER>
7.17517

>  <SCORE.INTER.CONST>
1

>  <SCORE.INTER.POLAR>
-0.325152

>  <SCORE.INTER.ROT>
10

>  <SCORE.INTER.SOLV>
26.561

>  <SCORE.INTER.VDW>
-13.253

>  <SCORE.INTER.norm>
0.179379

>  <SCORE.INTRA>
10.1979

>  <SCORE.INTRA.DIHEDRAL>
1.67602

>  <SCORE.INTRA.DIHEDRAL.0>
22.5778

>  <SCORE.INTRA.POLAR>
0

>  <SCORE.INTRA.POLAR.0>
0

>  <SCORE.INTRA.REPUL>
0

>  <SCORE.INTRA.REPUL.0>
0

>  <SCORE.INTRA.SOLV>
3.4948

>  <SCORE.INTRA.SOLV.lig_0>
-102.332

>  <SCORE.INTRA.VDW>
7.61246

>  <SCORE.INTRA.VDW.0>
-5.08747

>  <SCORE.INTRA.norm>
0.254947

>  <SCORE.RESTR>
9.75566

>  <SCORE.RESTR.CAVITY>
9.75566

>  <SCORE.RESTR.norm>
0.243892

>  <SCORE.SYSTEM>
0

>  <SCORE.SYSTEM.CONST>
0

>  <SCORE.SYSTEM.DIHEDRAL>
0

>  <SCORE.SYSTEM.SOLV>
0

>  <SCORE.SYSTEM.norm>
0

>  <SCORE.heavy>
40

>  <SCORE.norm>
0.678218

>  <RMSD>
34.289

$$$$
2g5q_lig
 OpenBabel11021811433D
libRbt.so/2013.1/901 2013/11/27
 40 42  0  0  0  0  0  0  0  0999 V2000
   20.2346   13.1892    5.3422 C   0  0  2  0  0  0  0  0  0  0  0  0
   19.9264   12.9774    3.9822 O   0  0  0  0  0  0  0  0  0  0  0  0
   18.9203   13.5196    6.1093 C   0  0  1  0  0  0  0  0  0  0  0  0
   18.3157   14.8875    5.6653 C   0  0  2  0  0  0  0  0  0  0  0  0
   19.3737   15.9864    5.9444 C   0  0  2  0  0  0  0  0  0  0  0  0
   18.8443   17.2683    5.5691 O   0  0  0  0  0  0  0  0  0  0  0  0
   20.6768   15.6426    5.1150 C   0  0  2  0  0  0  0  0  0  0  0  0
   21.2002   14.3059    5.5177 O   0  0  0  0  0  0  0  0  0  0  0  0
   21.7957   16.6570    5.3263 C   0  0  0  0  0  0  0  0  0  0  0  0
   21.8757   17.1169    6.7490 N   0  0  0  0  0  0  0  0  0  0  0  0
   21.7809   12.7196    0.0361 C   0  0  2  0  0  0  0  0  0  0  0  0
   22.7757   12.7775   -1.0282 N   0  0  0  0  0  0  0  0  0  0  0  0
   21.6083   14.1479    0.7041 C   0  0  0  0  0  0  0  0  0  0  0  0
   20.5261   14.0912    1.8531 C   0  0  2  0  0  0  0  0  0  0  0  0
   20.3657   15.4387    2.4635 N   0  0  0  0  0  0  0  0  0  0  0  0
   20.9571   13.0187    2.9310 C   0  0  2  0  0  0  0  0  0  0  0  0
   21.1230   11.6129    2.2287 C   0  0  2  0  0  0  0  0  0  0  0  0
   21.5194   10.6448    3.2053 O   0  0  0  0  0  0  0  0  0  0  0  0
   22.2177   11.6880    1.0968 C   0  0  1  0  0  0  0  0  0  0  0  0
   22.3596   10.3952    0.4435 O   0  0  0  0  0  0  0  0  0  0  0  0
   23.5934    9.8192    0.0910 C   0  0  2  0  0  0  0  0  0  0  0  0
   23.2906    8.4446   -0.5961 C   0  0  2  0  0  0  0  0  0  0  0  0
   22.5086    8.6530   -1.7281 O   0  0  0  0  0  0  0  0  0  0  0  0
   22.5828    7.4528    0.4029 C   0  0  1  0  0  0  0  0  0  0  0  0
   22.2926    6.1312   -0.2448 N   0  0  0  0  0  0  0  0  0  0  0  0
   23.5180    7.2660    1.6629 C   0  0  2  0  0  0  0  0  0  0  0  0
   22.9301    6.3670    2.6054 O   0  0  0  0  0  0  0  0  0  0  0  0
   23.7801    8.6711    2.3028 C   0  0  2  0  0  0  0  0  0  0  0  0
   24.4007    9.6099    1.3061 O   0  0  0  0  0  0  0  0  0  0  0  0
   24.6904    8.5794    3.4930 C   0  0  0  0  0  0  0  0  0  0  0  0
   24.1648    7.6812    4.4839 O   0  0  0  0  0  0  0  0  0  0  0  0
   17.9677   12.4237    5.8866 O   0  0  0  0  0  0  0  0  0  0  0  0
   17.1661   15.1346    6.3827 O   0  0  0  0  0  0  0  0  0  0  0  0
   21.7759   11.5810   -4.1427 N   0  0  0  0  0  0  0  0  0  0  0  0
   24.1308   12.5211   -0.8728 C   0  0  0  0  0  0  0  0  0  0  0  0
   24.6514   12.2198    0.1956 O   0  0  0  0  0  0  0  0  0  0  0  0
   24.9160   12.6746   -2.1958 C   0  0  1  0  0  0  0  0  0  0  0  0
   23.9722   12.4674   -3.3976 C   0  0  0  0  0  0  0  0  0  0  0  0
   22.8950   11.3907   -3.2223 C   0  0  0  0  0  0  0  0  0  0  0  0
   25.5232   13.9857   -2.2363 O   0  0  0  0  0  0  0  0  0  0  0  0
  1  2  1  6  0  0  0
  1  3  1  0  0  0  0
  1  8  1  0  0  0  0
  3  4  1  0  0  0  0
  3 32  1  6  0  0  0
  4  5  1  0  0  0  0
  4 33  1  1  0  0  0
  5  6  1  6  0  0  0
  5  7  1  0  0  0  0
  7  8  1  0  0  0  0
  7  9  1  1  0  0  0
  9 10  1  0  0  0  0
 11 12  1  6  0  0  0
 11 13  1  0  0  0  0
 11 19  1  0  0  0  0
 12 35  1  0  0  0  0
 13 14  1  0  0  0  0
 14 15  1  1  0  0  0
 14 16  1  0  0  0  0
 16  2  1  1  0  0  0
 16 17  1  0  0  0  0
 17 18  1  1  0  0  0
 17 19  1  0  0  0  0
 19 20  1  6  0  0  0
 21 20  1  1  0  0  0
 21 22  1  0  0  0  0
 21 29  1  0  0  0  0
 22 23  1  6  0  0  0
 22 24  1  0  0  0  0
 24 25  1  6  0  0  0
 24 26  1  0  0  0  0
 26 27  1  1  0  0  0
 26 28  1  0  0  0  0
 28 29  1  0  0  0  0
 28 30  1  1  0  0  0
 30 31  1  0  0  0  0
 34 39  1  0  0  0  0
 35 36  2  0  0  0  0
 37 35  1  1  0  0  0
 37 38  1  0  0  0  0
 37 40  1  0  0  0  0
 38 39  1  0  0  0  0
M  END
>  <CHROM.1>
162.53088501,38.82338853,91.93697719,-123.85111607,102.79712283,-179.44742602
-56.72993267,-24.38859378,-37.21128469,158.93145313,21.92321573,12.01394652
2.01910912,2.91225622,1.11600272,-0.48367653

>  <Name>
2g5q_lig

>  <RI>
224

>  <Rbt.Current_Directory>
/home/itssahil/PROJECTS/Mol_Feturizer/New_Systems/rnas/2g5q

>  <Rbt.Executable>
rbdock ($Id: //depot/dev/client3/rdock/2013.1/src/exe/rbdock.cxx#4 $)

>  <Rbt.Library>
libRbt.so (2013.1, Build901 2013/11/27)

>  <Rbt.Parameter_File>
/export/apps/rDock/src/rDock_2013.1_src/data/scripts/dock_solv.prm

>  <Rbt.Receptor>
prm/blind_docking_60.prm

>  <SCORE>
39.6696

>  <SCORE.INTER>
2.51556

>  <SCORE.INTER.CONST>
1

>  <SCORE.INTER.POLAR>
-0.826901

>  <SCORE.INTER.ROT>
10

>  <SCORE.INTER.SOLV>
24.6423

>  <SCORE.INTER.VDW>
-14.0474

>  <SCORE.INTER.norm>
0.062889

>  <SCORE.INTRA>
8.60741

>  <SCORE.INTRA.DIHEDRAL>
-1.02005

>  <SCORE.INTRA.DIHEDRAL.0>
22.5778

>  <SCORE.INTRA.POLAR>
0

>  <SCORE.INTRA.POLAR.0>
0

>  <SCORE.INTRA.REPUL>
0

>  <SCORE.INTRA.REPUL.0>
0

>  <SCORE.INTRA.SOLV>
7.69326

>  <SCORE.INTRA.SOLV.lig_0>
-102.332

>  <SCORE.INTRA.VDW>
5.27081

>  <SCORE.INTRA.VDW.0>
-5.08747

>  <SCORE.INTRA.norm>
0.215185

>  <SCORE.RESTR>
28.5466

>  <SCORE.RESTR.CAVITY>
28.5466

>  <SCORE.RESTR.norm>
0.713666

>  <SCORE.SYSTEM>
0

>  <SCORE.SYSTEM.CONST>
0

>  <SCORE.SYSTEM.DIHEDRAL>
0

>  <SCORE.SYSTEM.SOLV>
0

>  <SCORE.SYSTEM.norm>
0

>  <SCORE.heavy>
40

>  <SCORE.norm>
0.99174

>  <RMSD>
34.292

$$$$
2g5q_lig
 OpenBabel11021811433D
libRbt.so/2013.1/901 2013/11/27
 40 42  0  0  0  0  0  0  0  0999 V2000
   23.6476    3.6305   -2.3178 C   0  0  2  0  0  0  0  0  0  0  0  0
   23.0445    4.6427   -3.0932 O   0  0  0  0  0  0  0  0  0  0  0  0
   23.6071    2.2947   -3.1170 C   0  0  1  0  0  0  0  0  0  0  0  0
   22.1487    1.7744   -3.3071 C   0  0  2  0  0  0  0  0  0  0  0  0
   21.5346    1.5597   -1.8993 C   0  0  2  0  0  0  0  0  0  0  0  0
   20.1951    1.0572   -2.0318 O   0  0  0  0  0  0  0  0  0  0  0  0
   21.5510    2.9449   -1.1344 C   0  0  2  0  0  0  0  0  0  0  0  0
   22.9500    3.4471   -1.0179 O   0  0  0  0  0  0  0  0  0  0  0  0
   20.9788    2.8472    0.2757 C   0  0  0  0  0  0  0  0  0  0  0  0
   19.4902    2.6869    0.2680 N   0  0  0  0  0  0  0  0  0  0  0  0
   22.3598    8.8830   -2.3004 C   0  0  2  0  0  0  0  0  0  0  0  0
   21.8124   10.1114   -1.7371 N   0  0  0  0  0  0  0  0  0  0  0  0
   21.2141    8.0468   -3.0103 C   0  0  0  0  0  0  0  0  0  0  0  0
   21.8042    6.7185   -3.6283 C   0  0  2  0  0  0  0  0  0  0  0  0
   20.7223    5.9493   -4.3004 N   0  0  0  0  0  0  0  0  0  0  0  0
   22.4929    5.8672   -2.4885 C   0  0  2  0  0  0  0  0  0  0  0  0
   23.6231    6.7332   -1.8032 C   0  0  2  0  0  0  0  0  0  0  0  0
   24.2409    5.9626   -0.7676 O   0  0  0  0  0  0  0  0  0  0  0  0
   23.0106    8.0453   -1.1802 C   0  0  1  0  0  0  0  0  0  0  0  0
   24.0555    8.8469   -0.5605 O   0  0  0  0  0  0  0  0  0  0  0  0
   23.8140    9.9809    0.2357 C   0  0  2  0  0  0  0  0  0  0  0  0
   25.0969   10.2303    1.0988 C   0  0  2  0  0  0  0  0  0  0  0  0
   26.1865   10.4461    0.2606 O   0  0  0  0  0  0  0  0  0  0  0  0
   25.3683    9.0248    2.0765 C   0  0  1  0  0  0  0  0  0  0  0  0
   26.5930    9.2563    2.9112 N   0  0  0  0  0  0  0  0  0  0  0  0
   24.0946    8.8316    2.9918 C   0  0  2  0  0  0  0  0  0  0  0  0
   24.2847    7.7522    3.9088 O   0  0  0  0  0  0  0  0  0  0  0  0
   22.8515    8.5853    2.0718 C   0  0  2  0  0  0  0  0  0  0  0  0
   22.6569    9.7260    1.1121 O   0  0  0  0  0  0  0  0  0  0  0  0
   21.5913    8.4228    2.8712 C   0  0  0  0  0  0  0  0  0  0  0  0
   20.4383    8.3432    2.0173 O   0  0  0  0  0  0  0  0  0  0  0  0
   24.2638    2.5117   -4.4131 O   0  0  0  0  0  0  0  0  0  0  0  0
   22.1732    0.5878   -4.0063 O   0  0  0  0  0  0  0  0  0  0  0  0
   24.4752   13.6474   -1.7236 N   0  0  0  0  0  0  0  0  0  0  0  0
   22.3321   11.3833   -1.9328 C   0  0  0  0  0  0  0  0  0  0  0  0
   23.3298   11.6181   -2.6058 O   0  0  0  0  0  0  0  0  0  0  0  0
   21.5220   12.4722   -1.1922 C   0  0  1  0  0  0  0  0  0  0  0  0
   22.4601   13.3208   -0.3103 C   0  0  0  0  0  0  0  0  0  0  0  0
   23.3593   14.3140   -1.0555 C   0  0  0  0  0  0  0  0  0  0  0  0
   20.8402   13.2974   -2.1636 O   0  0  0  0  0  0  0  0  0  0  0  0
  1  2  1  6  0  0  0
  1  3  1  0  0  0  0
  1  8  1  0  0  0  0
  3  4  1  0  0  0  0
  3 32  1  6  0  0  0
  4  5  1  0  0  0  0
  4 33  1  1  0  0  0
  5  6  1  6  0  0  0
  5  7  1  0  0  0  0
  7  8  1  0  0  0  0
  7  9  1  1  0  0  0
  9 10  1  0  0  0  0
 11 12  1  1  0  0  0
 11 13  1  0  0  0  0
 11 19  1  0  0  0  0
 12 35  1  0  0  0  0
 13 14  1  0  0  0  0
 14 15  1  1  0  0  0
 14 16  1  0  0  0  0
 16  2  1  6  0  0  0
 16 17  1  0  0  0  0
 17 18  1  1  0  0  0
 17 19  1  0  0  0  0
 19 20  1  6  0  0  0
 21 20  1  6  0  0  0
 21 22  1  0  0  0  0
 21 29  1  0  0  0  0
 22 23  1  6  0  0  0
 22 24  1  0  0  0  0
 24 25  1  1  0  0  0
 24 26  1  0  0  0  0
 26 27  1  1  0  0  0
 26 28  1  0  0  0  0
 28 29  1  0  0  0  0
 28 30  1  1  0  0  0
 30 31  1  0  0  0  0
 34 39  1  0  0  0  0
 35 36  2  0  0  0  0
 37 35  1  6  0  0  0
 37 38  1  0  0  0  0
 37 40  1  0  0  0  0
 38 39  1  0  0  0  0
M  END
>  <CHROM.1>
157.86275324,-72.87245926,-129.83948934,-175.75385276,69.51183575,160.07541951
173.70335802,126.84364971,74.00308764,-75.36036346,22.80822728,7.37237491
-0.92408708,-2.05357057,-1.25421011,-0.20767892

>  <Name>
2g5q_lig

>  <RI>
0

>  <Rbt.Current_Directory>
/home/itssahil/PROJECTS/Mol_Feturizer/New_Systems/rnas/2g5q

>  <Rbt.Executable>
rbdock ($Id: //depot/dev/client3/rdock/2013.1/src/exe/rbdock.cxx#4 $)

>  <Rbt.Library>
libRbt.so (2013.1, Build901 2013/11/27)

>  <Rbt.Parameter_File>
/export/apps/rDock/src/rDock_2013.1_src/data/scripts/dock_solv.prm

>  <Rbt.Receptor>
prm/blind_docking_40.prm

>  <SCORE>
9.36091

>  <SCORE.INTER>
3.25403

>  <SCORE.INTER.CONST>
1

>  <SCORE.INTER.POLAR>
-0.223009

>  <SCORE.INTER.ROT>
10

>  <SCORE.INTER.SOLV>
25.227

>  <SCORE.INTER.VDW>
-15.7629

>  <SCORE.INTER.norm>
0.0813508

>  <SCORE.INTRA>
-3.67927

>  <SCORE.INTRA.DIHEDRAL>
-12.3648

>  <SCORE.INTRA.DIHEDRAL.0>
22.5778

>  <SCORE.INTRA.POLAR>
0

>  <SCORE.INTRA.POLAR.0>
0

>  <SCORE.INTRA.REPUL>
0

>  <SCORE.INTRA.REPUL.0>
0

>  <SCORE.INTRA.SOLV>
4.14202

>  <SCORE.INTRA.SOLV.lig_0>
-102.332

>  <SCORE.INTRA.VDW>
0.432094

>  <SCORE.INTRA.VDW.0>
-5.08747

>  <SCORE.INTRA.norm>
-0.0919818

>  <SCORE.RESTR>
9.78615

>  <SCORE.RESTR.CAVITY>
9.78615

>  <SCORE.RESTR.norm>
0.244654

>  <SCORE.SYSTEM>
0

>  <SCORE.SYSTEM.CONST>
0

>  <SCORE.SYSTEM.DIHEDRAL>
0

>  <SCORE.SYSTEM.SOLV>
0

>  <SCORE.SYSTEM.norm>
0

>  <SCORE.heavy>
40

>  <SCORE.norm>
0.234023

>  <RMSD>
34.309

$$$$
2g5q_lig
 OpenBabel11021811433D
libRbt.so/2013.1/901 2013/11/27
 40 42  0  0  0  0  0  0  0  0999 V2000
   23.6174    3.5933   -2.1438 C   0  0  2  0  0  0  0  0  0  0  0  0
   23.0780    4.6176   -2.9497 O   0  0  0  0  0  0  0  0  0  0  0  0
   23.8082    2.3169   -3.0152 C   0  0  1  0  0  0  0  0  0  0  0  0
   22.4438    1.7208   -3.4806 C   0  0  2  0  0  0  0  0  0  0  0  0
   21.6226    1.3697   -2.2127 C   0  0  2  0  0  0  0  0  0  0  0  0
   20.3642    0.7947   -2.6002 O   0  0  0  0  0  0  0  0  0  0  0  0
   21.4102    2.6961   -1.3762 C   0  0  2  0  0  0  0  0  0  0  0  0
   22.7297    3.2757   -0.9944 O   0  0  0  0  0  0  0  0  0  0  0  0
   20.6212    2.4639   -0.0920 C   0  0  0  0  0  0  0  0  0  0  0  0
   20.4384    3.7268    0.6911 N   0  0  0  0  0  0  0  0  0  0  0  0
   22.5170    8.8857   -2.2110 C   0  0  2  0  0  0  0  0  0  0  0  0
   21.9916   10.1373   -1.6789 N   0  0  0  0  0  0  0  0  0  0  0  0
   21.3729    8.0871   -2.9654 C   0  0  0  0  0  0  0  0  0  0  0  0
   21.9396    6.7336   -3.5497 C   0  0  2  0  0  0  0  0  0  0  0  0
   20.8601    5.9998   -4.2640 N   0  0  0  0  0  0  0  0  0  0  0  0
   22.5465    5.8658   -2.3764 C   0  0  2  0  0  0  0  0  0  0  0  0
   23.6772    6.6946   -1.6475 C   0  0  2  0  0  0  0  0  0  0  0  0
   24.2208    5.9093   -0.5816 O   0  0  0  0  0  0  0  0  0  0  0  0
   23.0873    8.0327   -1.0590 C   0  0  1  0  0  0  0  0  0  0  0  0
   24.1334    8.7998   -0.3989 O   0  0  0  0  0  0  0  0  0  0  0  0
   23.8980    9.9357    0.3964 C   0  0  2  0  0  0  0  0  0  0  0  0
   25.1654   10.1537    1.2904 C   0  0  2  0  0  0  0  0  0  0  0  0
   26.2788   10.3490    0.4788 O   0  0  0  0  0  0  0  0  0  0  0  0
   25.3876    8.9387    2.2688 C   0  0  1  0  0  0  0  0  0  0  0  0
   26.5972    9.1403    3.1328 N   0  0  0  0  0  0  0  0  0  0  0  0
   24.0890    8.7698    3.1533 C   0  0  2  0  0  0  0  0  0  0  0  0
   24.2341    7.6829    4.0696 O   0  0  0  0  0  0  0  0  0  0  0  0
   22.8626    8.5543    2.2034 C   0  0  2  0  0  0  0  0  0  0  0  0
   22.7154    9.7026    1.2445 O   0  0  0  0  0  0  0  0  0  0  0  0
   21.5808    8.4161    2.9725 C   0  0  0  0  0  0  0  0  0  0  0  0
   20.4528    8.2997    2.0900 O   0  0  0  0  0  0  0  0  0  0  0  0
   24.6525    2.6652   -4.1659 O   0  0  0  0  0  0  0  0  0  0  0  0
   22.6709    0.5901   -4.2338 O   0  0  0  0  0  0  0  0  0  0  0  0
   23.8029   14.8102   -1.0110 N   0  0  0  0  0  0  0  0  0  0  0  0
   22.6758   11.3444   -1.6483 C   0  0  0  0  0  0  0  0  0  0  0  0
   23.8192   11.4930   -2.0651 O   0  0  0  0  0  0  0  0  0  0  0  0
   21.8408   12.4801   -1.0129 C   0  0  1  0  0  0  0  0  0  0  0  0
   21.7967   13.6967   -1.9595 C   0  0  0  0  0  0  0  0  0  0  0  0
   23.1435   14.3733   -2.2399 C   0  0  0  0  0  0  0  0  0  0  0  0
   20.5086   11.9911   -0.7382 O   0  0  0  0  0  0  0  0  0  0  0  0
  1  2  1  6  0  0  0
  1  3  1  0  0  0  0
  1  8  1  0  0  0  0
  3  4  1  0  0  0  0
  3 32  1  6  0  0  0
  4  5  1  0  0  0  0
  4 33  1  1  0  0  0
  5  6  1  6  0  0  0
  5  7  1  0  0  0  0
  7  8  1  0  0  0  0
  7  9  1  1  0  0  0
  9 10  1  0  0  0  0
 11 12  1  1  0  0  0
 11 13  1  0  0  0  0
 11 19  1  0  0  0  0
 12 35  1  0  0  0  0
 13 14  1  0  0  0  0
 14 15  1  1  0  0  0
 14 16  1  0  0  0  0
 16  2  1  6  0  0  0
 16 17  1  0  0  0  0
 17 18  1  1  0  0  0
 17 19  1  0  0  0  0
 19 20  1  6  0  0  0
 21 20  1  6  0  0  0
 21 22  1  0  0  0  0
 21 29  1  0  0  0  0
 22 23  1  6  0  0  0
 22 24  1  0  0  0  0
 24 25  1  1  0  0  0
 24 26  1  0  0  0  0
 26 27  1  1  0  0  0
 26 28  1  0  0  0  0
 28 29  1  0  0  0  0
 28 30  1  1  0  0  0
 30 31  1  0  0  0  0
 34 39  1  0  0  0  0
 35 36  2  0  0  0  0
 37 35  1  6  0  0  0
 37 38  1  0  0  0  0
 37 40  1  0  0  0  0
 38 39  1  0  0  0  0
M  END
>  <CHROM.1>
168.32305004,179.58162984,-142.06909207,-176.18778379,70.52810297,160.81693848
176.51431808,-127.42590312,-63.71229335,-56.86977919,22.86884239,7.34962160
-0.86120293,-1.97072676,-1.26566018,-0.11155432

>  <Name>
2g5q_lig

>  <RI>
0

>  <Rbt.Current_Directory>
/home/itssahil/PROJECTS/Mol_Feturizer/New_Systems/rnas/2g5q

>  <Rbt.Executable>
rbdock ($Id: //depot/dev/client3/rdock/2013.1/src/exe/rbdock.cxx#4 $)

>  <Rbt.Library>
libRbt.so (2013.1, Build901 2013/11/27)

>  <Rbt.Parameter_File>
/export/apps/rDock/src/rDock_2013.1_src/data/scripts/dock_solv.prm

>  <Rbt.Receptor>
prm/blind_docking_40.prm

>  <SCORE>
9.77519

>  <SCORE.INTER>
5.6707

>  <SCORE.INTER.CONST>
1

>  <SCORE.INTER.POLAR>
-1.43977

>  <SCORE.INTER.ROT>
10

>  <SCORE.INTER.SOLV>
27.7669

>  <SCORE.INTER.VDW>
-10.9426

>  <SCORE.INTER.norm>
0.141767

>  <SCORE.INTRA>
-5.81607

>  <SCORE.INTRA.DIHEDRAL>
-16.2752

>  <SCORE.INTRA.DIHEDRAL.0>
22.5778

>  <SCORE.INTRA.POLAR>
0

>  <SCORE.INTRA.POLAR.0>
0

>  <SCORE.INTRA.REPUL>
0

>  <SCORE.INTRA.REPUL.0>
0

>  <SCORE.INTRA.SOLV>
1.91889

>  <SCORE.INTRA.SOLV.lig_0>
-102.332

>  <SCORE.INTRA.VDW>
1.36206

>  <SCORE.INTRA.VDW.0>
-5.08747

>  <SCORE.INTRA.norm>
-0.145402

>  <SCORE.RESTR>
9.92056

>  <SCORE.RESTR.CAVITY>
9.92056

>  <SCORE.RESTR.norm>
0.248014

>  <SCORE.SYSTEM>
0

>  <SCORE.SYSTEM.CONST>
0

>  <SCORE.SYSTEM.DIHEDRAL>
0

>  <SCORE.SYSTEM.SOLV>
0

>  <SCORE.SYSTEM.norm>
0

>  <SCORE.heavy>
40

>  <SCORE.norm>
0.24438

>  <RMSD>
34.313

$$$$
2g5q_lig
 OpenBabel11021811433D
libRbt.so/2013.1/901 2013/11/27
 40 42  0  0  0  0  0  0  0  0999 V2000
   23.3185   11.9447   -1.2578 C   0  0  2  0  0  0  0  0  0  0  0  0
   22.2643   11.1376   -0.7817 O   0  0  0  0  0  0  0  0  0  0  0  0
   22.9104   13.4404   -1.1130 C   0  0  1  0  0  0  0  0  0  0  0  0
   21.7246   13.8138   -2.0554 C   0  0  2  0  0  0  0  0  0  0  0  0
   22.1712   13.5329   -3.5136 C   0  0  2  0  0  0  0  0  0  0  0  0
   21.1111   13.8869   -4.4166 O   0  0  0  0  0  0  0  0  0  0  0  0
   22.5341   11.9974   -3.6343 C   0  0  2  0  0  0  0  0  0  0  0  0
   23.6296   11.6555   -2.6824 O   0  0  0  0  0  0  0  0  0  0  0  0
   23.0028   11.6099   -5.0328 C   0  0  0  0  0  0  0  0  0  0  0  0
   24.1852   12.4163   -5.4725 N   0  0  0  0  0  0  0  0  0  0  0  0
   21.4754    6.8732   -0.2620 C   0  0  2  0  0  0  0  0  0  0  0  0
   21.3632    5.4462   -0.5391 N   0  0  0  0  0  0  0  0  0  0  0  0
   20.5630    7.6996   -1.2623 C   0  0  0  0  0  0  0  0  0  0  0  0
   20.6759    9.2459   -0.9610 C   0  0  2  0  0  0  0  0  0  0  0  0
   19.8074   10.0084   -1.8981 N   0  0  0  0  0  0  0  0  0  0  0  0
   22.1860    9.6973   -1.0793 C   0  0  2  0  0  0  0  0  0  0  0  0
   23.0623    8.8507   -0.0732 C   0  0  2  0  0  0  0  0  0  0  0  0
   24.4299    9.2567   -0.1866 O   0  0  0  0  0  0  0  0  0  0  0  0
   22.9475    7.3131   -0.4012 C   0  0  1  0  0  0  0  0  0  0  0  0
   23.7458    6.5350    0.5345 O   0  0  0  0  0  0  0  0  0  0  0  0
   23.2507    5.9906    1.7332 C   0  0  2  0  0  0  0  0  0  0  0  0
   23.0258    7.1774    2.7302 C   0  0  2  0  0  0  0  0  0  0  0  0
   22.1102    8.0736    2.1870 O   0  0  0  0  0  0  0  0  0  0  0  0
   24.3843    7.8982    3.0728 C   0  0  1  0  0  0  0  0  0  0  0  0
   24.1799    9.0341    4.0311 N   0  0  0  0  0  0  0  0  0  0  0  0
   25.3760    6.8266    3.6775 C   0  0  2  0  0  0  0  0  0  0  0  0
   26.6286    7.4250    4.0163 O   0  0  0  0  0  0  0  0  0  0  0  0
   25.5594    5.6721    2.6353 C   0  0  2  0  0  0  0  0  0  0  0  0
   24.2380    5.0463    2.2862 O   0  0  0  0  0  0  0  0  0  0  0  0
   26.4682    4.5950    3.1526 C   0  0  0  0  0  0  0  0  0  0  0  0
   26.5122    3.4738    2.2548 O   0  0  0  0  0  0  0  0  0  0  0  0
   22.5672   13.6916    0.2931 O   0  0  0  0  0  0  0  0  0  0  0  0
   21.4151   15.1466   -1.8963 O   0  0  0  0  0  0  0  0  0  0  0  0
   23.9845    2.3798   -4.5810 N   0  0  0  0  0  0  0  0  0  0  0  0
   22.0573    4.7657   -1.5298 C   0  0  0  0  0  0  0  0  0  0  0  0
   22.8489    5.2991   -2.2993 O   0  0  0  0  0  0  0  0  0  0  0  0
   21.7079    3.2600   -1.5670 C   0  0  1  0  0  0  0  0  0  0  0  0
   22.7253    2.5031   -2.4446 C   0  0  0  0  0  0  0  0  0  0  0  0
   22.8456    2.9863   -3.8946 C   0  0  0  0  0  0  0  0  0  0  0  0
   21.7037    2.7417   -0.2177 O   0  0  0  0  0  0  0  0  0  0  0  0
  1  2  1  6  0  0  0
  1  3  1  0  0  0  0
  1  8  1  0  0  0  0
  3  4  1  0  0  0  0
  3 32  1  1  0  0  0
  4  5  1  0  0  0  0
  4 33  1  6  0  0  0
  5  6  1  6  0  0  0
  5  7  1  0  0  0  0
  7  8  1  0  0  0  0
  7  9  1  6  0  0  0
  9 10  1  0  0  0  0
 11 12  1  6  0  0  0
 11 13  1  0  0  0  0
 11 19  1  0  0  0  0
 12 35  1  0  0  0  0
 13 14  1  0  0  0  0
 14 15  1  6  0  0  0
 14 16  1  0  0  0  0
 16  2  1  1  0  0  0
 16 17  1  0  0  0  0
 17 18  1  6  0  0  0
 17 19  1  0  0  0  0
 19 20  1  1  0  0  0
 21 20  1  6  0  0  0
 21 22  1  0  0  0  0
 21 29  1  0  0  0  0
 22 23  1  6  0  0  0
 22 24  1  0  0  0  0
 24 25  1  1  0  0  0
 24 26  1  0  0  0  0
 26 27  1  6  0  0  0
 26 28  1  0  0  0  0
 28 29  1  0  0  0  0
 28 30  1  1  0  0  0
 30 31  1  0  0  0  0
 34 39  1  0  0  0  0
 35 36  2  0  0  0  0
 37 35  1  1  0  0  0
 37 38  1  0  0  0  0
 37 40  1  0  0  0  0
 38 39  1  0  0  0  0
M  END
>  <CHROM.1>
164.52579079,57.10005471,81.99879172,-156.15282999,-27.19159459,-72.06032373
173.55154195,-166.97470640,-57.76843484,169.96999895,23.03818134,8.27179263
-0.54766364,-2.10044091,1.18248434,-3.02915034

>  <Name>
2g5q_lig

>  <RI>
0

>  <Rbt.Current_Directory>
/home/itssahil/PROJECTS/Mol_Feturizer/New_Systems/rnas/2g5q

>  <Rbt.Executable>
rbdock ($Id: //depot/dev/client3/rdock/2013.1/src/exe/rbdock.cxx#4 $)

>  <Rbt.Library>
libRbt.so (2013.1, Build901 2013/11/27)

>  <Rbt.Parameter_File>
/export/apps/rDock/src/rDock_2013.1_src/data/scripts/dock_solv.prm

>  <Rbt.Receptor>
prm/blind_docking_40.prm

>  <SCORE>
11.3504

>  <SCORE.INTER>
1.20137

>  <SCORE.INTER.CONST>
1

>  <SCORE.INTER.POLAR>
0

>  <SCORE.INTER.ROT>
10

>  <SCORE.INTER.SOLV>
24.804

>  <SCORE.INTER.VDW>
-17.7337

>  <SCORE.INTER.norm>
0.0300342

>  <SCORE.INTRA>
-0.582353

>  <SCORE.INTRA.DIHEDRAL>
-12.2476

>  <SCORE.INTRA.DIHEDRAL.0>
22.5778

>  <SCORE.INTRA.POLAR>
0

>  <SCORE.INTRA.POLAR.0>
0

>  <SCORE.INTRA.REPUL>
0

>  <SCORE.INTRA.REPUL.0>
0

>  <SCORE.INTRA.SOLV>
3.0736

>  <SCORE.INTRA.SOLV.lig_0>
-102.332

>  <SCORE.INTRA.VDW>
4.00464

>  <SCORE.INTRA.VDW.0>
-5.08747

>  <SCORE.INTRA.norm>
-0.0145588

>  <SCORE.RESTR>
10.7314

>  <SCORE.RESTR.CAVITY>
10.7314

>  <SCORE.RESTR.norm>
0.268286

>  <SCORE.SYSTEM>
0

>  <SCORE.SYSTEM.CONST>
0

>  <SCORE.SYSTEM.DIHEDRAL>
0

>  <SCORE.SYSTEM.SOLV>
0

>  <SCORE.SYSTEM.norm>
0

>  <SCORE.heavy>
40

>  <SCORE.norm>
0.283761

>  <RMSD>
34.318

$$$$
2g5q_lig
 OpenBabel11021811433D
libRbt.so/2013.1/901 2013/11/27
 40 42  0  0  0  0  0  0  0  0999 V2000
   21.8209    4.2748   -3.0432 C   0  0  2  0  0  0  0  0  0  0  0  0
   22.5735    4.8595   -2.0034 O   0  0  0  0  0  0  0  0  0  0  0  0
   21.0003    3.0860   -2.4618 C   0  0  1  0  0  0  0  0  0  0  0  0
   21.9215    1.9184   -1.9909 C   0  0  2  0  0  0  0  0  0  0  0  0
   22.7413    1.4374   -3.2163 C   0  0  2  0  0  0  0  0  0  0  0  0
   23.5881    0.3437   -2.8277 O   0  0  0  0  0  0  0  0  0  0  0  0
   23.5951    2.6574   -3.7518 C   0  0  2  0  0  0  0  0  0  0  0  0
   22.6939    3.7799   -4.1400 O   0  0  0  0  0  0  0  0  0  0  0  0
   24.4352    2.2989   -4.9730 C   0  0  0  0  0  0  0  0  0  0  0  0
   25.5677    1.3830   -4.6265 N   0  0  0  0  0  0  0  0  0  0  0  0
   23.2592    9.1501   -1.5589 C   0  0  2  0  0  0  0  0  0  0  0  0
   23.0741   10.5459   -1.1801 N   0  0  0  0  0  0  0  0  0  0  0  0
   22.0510    8.6622   -2.4633 C   0  0  0  0  0  0  0  0  0  0  0  0
   22.2512    7.1525   -2.8819 C   0  0  2  0  0  0  0  0  0  0  0  0
   21.1176    6.7107   -3.7386 N   0  0  0  0  0  0  0  0  0  0  0  0
   22.3754    6.2577   -1.5851 C   0  0  2  0  0  0  0  0  0  0  0  0
   23.5843    6.7758   -0.7093 C   0  0  2  0  0  0  0  0  0  0  0  0
   23.6909    5.9682    0.4673 O   0  0  0  0  0  0  0  0  0  0  0  0
   23.3570    8.2783   -0.2899 C   0  0  1  0  0  0  0  0  0  0  0  0
   24.4776    8.7567    0.5061 O   0  0  0  0  0  0  0  0  0  0  0  0
   24.3550    9.6454    1.5893 C   0  0  2  0  0  0  0  0  0  0  0  0
   25.0117    8.9603    2.8353 C   0  0  2  0  0  0  0  0  0  0  0  0
   26.3521    8.6981    2.5691 O   0  0  0  0  0  0  0  0  0  0  0  0
   24.2466    7.6401    3.2281 C   0  0  1  0  0  0  0  0  0  0  0  0
   24.8655    6.9787    4.4238 N   0  0  0  0  0  0  0  0  0  0  0  0
   22.7357    8.0074    3.5103 C   0  0  2  0  0  0  0  0  0  0  0  0
   21.9893    6.8462    3.8802 O   0  0  0  0  0  0  0  0  0  0  0  0
   22.1390    8.6843    2.2304 C   0  0  2  0  0  0  0  0  0  0  0  0
   22.9279    9.9059    1.8494 O   0  0  0  0  0  0  0  0  0  0  0  0
   20.7084    9.0921    2.4323 C   0  0  0  0  0  0  0  0  0  0  0  0
   20.1245    9.5701    1.2094 O   0  0  0  0  0  0  0  0  0  0  0  0
   20.1784    3.5903   -1.3535 O   0  0  0  0  0  0  0  0  0  0  0  0
   21.1453    0.8919   -1.4997 O   0  0  0  0  0  0  0  0  0  0  0  0
   21.6875   15.1796   -0.8067 N   0  0  0  0  0  0  0  0  0  0  0  0
   24.0830   11.4036   -0.7648 C   0  0  0  0  0  0  0  0  0  0  0  0
   25.2599   11.0755   -0.6615 O   0  0  0  0  0  0  0  0  0  0  0  0
   23.5547   12.8175   -0.4295 C   0  0  1  0  0  0  0  0  0  0  0  0
   23.4167   13.6500   -1.7202 C   0  0  0  0  0  0  0  0  0  0  0  0
   22.9530   15.0992   -1.5332 C   0  0  0  0  0  0  0  0  0  0  0  0
   22.2829   12.6992    0.2471 O   0  0  0  0  0  0  0  0  0  0  0  0
  1  2  1  1  0  0  0
  1  3  1  0  0  0  0
  1  8  1  0  0  0  0
  3  4  1  0  0  0  0
  3 32  1  1  0  0  0
  4  5  1  0  0  0  0
  4 33  1  6  0  0  0
  5  6  1  1  0  0  0
  5  7  1  0  0  0  0
  7  8  1  0  0  0  0
  7  9  1  6  0  0  0
  9 10  1  0  0  0  0
 11 12  1  1  0  0  0
 11 13  1  0  0  0  0
 11 19  1  0  0  0  0
 12 35  1  0  0  0  0
 13 14  1  0  0  0  0
 14 15  1  1  0  0  0
 14 16  1  0  0  0  0
 16  2  1  6  0  0  0
 16 17  1  0  0  0  0
 17 18  1  1  0  0  0
 17 19  1  0  0  0  0
 19 20  1  1  0  0  0
 21 20  1  6  0  0  0
 21 22  1  0  0  0  0
 21 29  1  0  0  0  0
 22 23  1  6  0  0  0
 22 24  1  0  0  0  0
 24 25  1  1  0  0  0
 24 26  1  0  0  0  0
 26 27  1  6  0  0  0
 26 28  1  0  0  0  0
 28 29  1  0  0  0  0
 28 30  1  1  0  0  0
 30 31  1  0  0  0  0
 34 39  1  0  0  0  0
 35 36  2  0  0  0  0
 37 35  1  6  0  0  0
 37 38  1  0  0  0  0
 37 40  1  0  0  0  0
 38 39  1  0  0  0  0
M  END
>  <CHROM.1>
-118.00278934,-70.38272440,-158.89745883,-43.90340804,96.94680050,124.39027180
-173.35534385,-82.54443725,-177.67518432,-55.57725184,22.97032285,7.34308702
-0.61066578,1.97562082,1.45354304,3.10362611

>  <Name>
2g5q_lig

>  <RI>
0

>  <Rbt.Current_Directory>
/home/itssahil/PROJECTS/Mol_Feturizer/New_Systems/rnas/2g5q

>  <Rbt.Executable>
rbdock ($Id: //depot/dev/client3/rdock/2013.1/src/exe/rbdock.cxx#4 $)

>  <Rbt.Library>
libRbt.so (2013.1, Build901 2013/11/27)

>  <Rbt.Parameter_File>
/export/apps/rDock/src/rDock_2013.1_src/data/scripts/dock_solv.prm

>  <Rbt.Receptor>
prm/blind_docking_40.prm

>  <SCORE>
15.355

>  <SCORE.INTER>
1.74105

>  <SCORE.INTER.CONST>
1

>  <SCORE.INTER.POLAR>
-0.821934

>  <SCORE.INTER.ROT>
10

>  <SCORE.INTER.SOLV>
19.658

>  <SCORE.INTER.VDW>
-12.9189

>  <SCORE.INTER.norm>
0.0435263

>  <SCORE.INTRA>
4.38324

>  <SCORE.INTRA.DIHEDRAL>
0.0572965

>  <SCORE.INTRA.DIHEDRAL.0>
22.5778

>  <SCORE.INTRA.POLAR>
0

>  <SCORE.INTRA.POLAR.0>
0

>  <SCORE.INTRA.REPUL>
0

>  <SCORE.INTRA.REPUL.0>
0

>  <SCORE.INTRA.SOLV>
5.41712

>  <SCORE.INTRA.SOLV.lig_0>
-102.332

>  <SCORE.INTRA.VDW>
1.64603

>  <SCORE.INTRA.VDW.0>
-5.08747

>  <SCORE.INTRA.norm>
0.109581

>  <SCORE.RESTR>
9.23074

>  <SCORE.RESTR.CAVITY>
9.23074

>  <SCORE.RESTR.norm>
0.230768

>  <SCORE.SYSTEM>
0

>  <SCORE.SYSTEM.CONST>
0

>  <SCORE.SYSTEM.DIHEDRAL>
0

>  <SCORE.SYSTEM.SOLV>
0

>  <SCORE.SYSTEM.norm>
0

>  <SCORE.heavy>
40

>  <SCORE.norm>
0.383876

>  <RMSD>
34.332

$$$$
2g5q_lig
 OpenBabel11021811433D
libRbt.so/2013.1/901 2013/11/27
 40 42  0  0  0  0  0  0  0  0999 V2000
   23.6930   11.8971   -2.0940 C   0  0  2  0  0  0  0  0  0  0  0  0
   22.7908   11.0252   -1.4495 O   0  0  0  0  0  0  0  0  0  0  0  0
   23.2910   13.3658   -1.7685 C   0  0  1  0  0  0  0  0  0  0  0  0
   21.9167   13.7466   -2.4009 C   0  0  2  0  0  0  0  0  0  0  0  0
   22.0348   13.5654   -3.9365 C   0  0  2  0  0  0  0  0  0  0  0  0
   20.7923   13.9295   -4.5595 O   0  0  0  0  0  0  0  0  0  0  0  0
   22.3991   12.0540   -4.2311 C   0  0  2  0  0  0  0  0  0  0  0  0
   23.6866   11.7006   -3.5676 O   0  0  0  0  0  0  0  0  0  0  0  0
   22.5546   11.7639   -5.7202 C   0  0  0  0  0  0  0  0  0  0  0  0
   23.8723   12.2379   -6.2502 N   0  0  0  0  0  0  0  0  0  0  0  0
   21.9734    6.7725   -0.8805 C   0  0  2  0  0  0  0  0  0  0  0  0
   21.9704    5.3284   -1.0809 N   0  0  0  0  0  0  0  0  0  0  0  0
   21.3569    7.5033   -2.1461 C   0  0  0  0  0  0  0  0  0  0  0  0
   21.3516    9.0679   -1.9301 C   0  0  2  0  0  0  0  0  0  0  0  0
   20.7610    9.7404   -3.1188 N   0  0  0  0  0  0  0  0  0  0  0  0
   22.8263    9.5679   -1.6594 C   0  0  2  0  0  0  0  0  0  0  0  0
   23.4070    8.8159   -0.3968 C   0  0  2  0  0  0  0  0  0  0  0  0
   24.7444    9.2655   -0.1575 O   0  0  0  0  0  0  0  0  0  0  0  0
   23.4176    7.2584   -0.6394 C   0  0  1  0  0  0  0  0  0  0  0  0
   23.9414    6.5676    0.5297 O   0  0  0  0  0  0  0  0  0  0  0  0
   23.1562    6.1540    1.6208 C   0  0  2  0  0  0  0  0  0  0  0  0
   22.8728    7.4181    2.5011 C   0  0  2  0  0  0  0  0  0  0  0  0
   22.1943    8.3688    1.7446 O   0  0  0  0  0  0  0  0  0  0  0  0
   24.2081    8.0137    3.0883 C   0  0  1  0  0  0  0  0  0  0  0  0
   23.9467    9.2226    3.9371 N   0  0  0  0  0  0  0  0  0  0  0  0
   24.9282    6.8848    3.9277 C   0  0  2  0  0  0  0  0  0  0  0  0
   26.1472    7.3698    4.4941 O   0  0  0  0  0  0  0  0  0  0  0  0
   25.1840    5.6544    2.9933 C   0  0  2  0  0  0  0  0  0  0  0  0
   23.8969    5.1488    2.4036 O   0  0  0  0  0  0  0  0  0  0  0  0
   25.8404    4.5232    3.7302 C   0  0  0  0  0  0  0  0  0  0  0  0
   26.0262    3.3824    2.8765 O   0  0  0  0  0  0  0  0  0  0  0  0
   23.2628   13.5242   -0.3083 O   0  0  0  0  0  0  0  0  0  0  0  0
   21.6179   15.0557   -2.0934 O   0  0  0  0  0  0  0  0  0  0  0  0
   23.7329    1.4795   -3.7523 N   0  0  0  0  0  0  0  0  0  0  0  0
   20.8523    4.5105   -0.9967 C   0  0  0  0  0  0  0  0  0  0  0  0
   19.7261    4.9170   -0.7328 O   0  0  0  0  0  0  0  0  0  0  0  0
   21.1878    3.0237   -1.2562 C   0  0  1  0  0  0  0  0  0  0  0  0
   22.3227    2.9114   -2.2943 C   0  0  0  0  0  0  0  0  0  0  0  0
   22.5936    1.5035   -2.8372 C   0  0  0  0  0  0  0  0  0  0  0  0
   21.5658    2.3992   -0.0086 O   0  0  0  0  0  0  0  0  0  0  0  0
  1  2  1  1  0  0  0
  1  3  1  0  0  0  0
  1  8  1  0  0  0  0
  3  4  1  0  0  0  0
  3 32  1  1  0  0  0
  4  5  1  0  0  0  0
  4 33  1  6  0  0  0
  5  6  1  6  0  0  0
  5  7  1  0  0  0  0
  7  8  1  0  0  0  0
  7  9  1  6  0  0  0
  9 10  1  0  0  0  0
 11 12  1  6  0  0  0
 11 13  1  0  0  0  0
 11 19  1  0  0  0  0
 12 35  1  0  0  0  0
 13 14  1  0  0  0  0
 14 15  1  6  0  0  0
 14 16  1  0  0  0  0
 16  2  1  1  0  0  0
 16 17  1  0  0  0  0
 17 18  1  6  0  0  0
 17 19  1  0  0  0  0
 19 20  1  1  0  0  0
 21 20  1  6  0  0  0
 21 22  1  0  0  0  0
 21 29  1  0  0  0  0
 22 23  1  6  0  0  0
 22 24  1  0  0  0  0
 24 25  1  1  0  0  0
 24 26  1  0  0  0  0
 26 27  1  6  0  0  0
 26 28  1  0  0  0  0
 28 29  1  0  0  0  0
 28 30  1  1  0  0  0
 30 31  1  0  0  0  0
 34 39  1  0  0  0  0
 35 36  2  0  0  0  0
 37 35  1  1  0  0  0
 37 38  1  0  0  0  0
 37 40  1  0  0  0  0
 38 39  1  0  0  0  0
M  END
>  <CHROM.1>
174.29583517,77.91164838,-75.42871048,-132.83725526,-31.51387472,-77.92504350
177.89275495,-33.79643795,-169.54435209,-176.63229955,22.96447707,8.17924370
-0.68771536,-1.87646639,1.15774155,2.95450639

>  <Name>
2g5q_lig

>  <RI>
0

>  <Rbt.Current_Directory>
/home/itssahil/PROJECTS/Mol_Feturizer/New_Systems/rnas/2g5q

>  <Rbt.Executable>
rbdock ($Id: //depot/dev/client3/rdock/2013.1/src/exe/rbdock.cxx#4 $)

>  <Rbt.Library>
libRbt.so (2013.1, Build901 2013/11/27)

>  <Rbt.Parameter_File>
/export/apps/rDock/src/rDock_2013.1_src/data/scripts/dock_solv.prm

>  <Rbt.Receptor>
prm/blind_docking_40.prm

>  <SCORE>
13.1936

>  <SCORE.INTER>
0.348121

>  <SCORE.INTER.CONST>
1

>  <SCORE.INTER.POLAR>
0

>  <SCORE.INTER.ROT>
10

>  <SCORE.INTER.SOLV>
19.9236

>  <SCORE.INTER.VDW>
-16.6758

>  <SCORE.INTER.norm>
0.00870303

>  <SCORE.INTRA>
0.648554

>  <SCORE.INTRA.DIHEDRAL>
-8.01364

>  <SCORE.INTRA.DIHEDRAL.0>
22.5778

>  <SCORE.INTRA.POLAR>
0

>  <SCORE.INTRA.POLAR.0>
0

>  <SCORE.INTRA.REPUL>
0

>  <SCORE.INTRA.REPUL.0>
0

>  <SCORE.INTRA.SOLV>
3.08043

>  <SCORE.INTRA.SOLV.lig_0>
-102.332

>  <SCORE.INTRA.VDW>
3.11516

>  <SCORE.INTRA.VDW.0>
-5.08747

>  <SCORE.INTRA.norm>
0.0162139

>  <SCORE.RESTR>
12.1969

>  <SCORE.RESTR.CAVITY>
12.1969

>  <SCORE.RESTR.norm>
0.304923

>  <SCORE.SYSTEM>
0

>  <SCORE.SYSTEM.CONST>
0

>  <SCORE.SYSTEM.DIHEDRAL>
0

>  <SCORE.SYSTEM.SOLV>
0

>  <SCORE.SYSTEM.norm>
0

>  <SCORE.heavy>
40

>  <SCORE.norm>
0.32984

>  <RMSD>
34.337

$$$$
2g5q_lig
 OpenBabel11021811433D
libRbt.so/2013.1/901 2013/11/27
 40 42  0  0  0  0  0  0  0  0999 V2000
   21.9268    4.2938   -3.2561 C   0  0  2  0  0  0  0  0  0  0  0  0
   22.7539    4.9385   -2.3128 O   0  0  0  0  0  0  0  0  0  0  0  0
   21.1729    3.1289   -2.5495 C   0  0  1  0  0  0  0  0  0  0  0  0
   22.1453    1.9959   -2.0975 C   0  0  2  0  0  0  0  0  0  0  0  0
   22.8687    1.4601   -3.3603 C   0  0  2  0  0  0  0  0  0  0  0  0
   23.7593    0.3959   -2.9878 O   0  0  0  0  0  0  0  0  0  0  0  0
   23.6591    2.6588   -4.0254 C   0  0  2  0  0  0  0  0  0  0  0  0
   22.7139    3.7512   -4.3945 O   0  0  0  0  0  0  0  0  0  0  0  0
   24.4014    2.2457   -5.2919 C   0  0  0  0  0  0  0  0  0  0  0  0
   25.5180    1.2912   -5.0026 N   0  0  0  0  0  0  0  0  0  0  0  0
   23.0663    9.2367   -1.6020 C   0  0  2  0  0  0  0  0  0  0  0  0
   22.7717   10.5817   -1.1224 N   0  0  0  0  0  0  0  0  0  0  0  0
   21.8698    8.6976   -2.4929 C   0  0  0  0  0  0  0  0  0  0  0  0
   22.1879    7.2433   -3.0205 C   0  0  2  0  0  0  0  0  0  0  0  0
   21.0636    6.7540   -3.8634 N   0  0  0  0  0  0  0  0  0  0  0  0
   22.4479    6.2822   -1.7931 C   0  0  2  0  0  0  0  0  0  0  0  0
   23.6410    6.8532   -0.9287 C   0  0  2  0  0  0  0  0  0  0  0  0
   23.8703    5.9848    0.1854 O   0  0  0  0  0  0  0  0  0  0  0  0
   23.2966    8.2977   -0.3998 C   0  0  1  0  0  0  0  0  0  0  0  0
   24.4021    8.8261    0.3856 O   0  0  0  0  0  0  0  0  0  0  0  0
   24.2505    9.7135    1.4662 C   0  0  2  0  0  0  0  0  0  0  0  0
   24.9203    9.0495    2.7166 C   0  0  2  0  0  0  0  0  0  0  0  0
   26.2686    8.8235    2.4567 O   0  0  0  0  0  0  0  0  0  0  0  0
   24.1899    7.7097    3.1091 C   0  0  1  0  0  0  0  0  0  0  0  0
   24.8215    7.0681    4.3090 N   0  0  0  0  0  0  0  0  0  0  0  0
   22.6683    8.0360    3.3840 C   0  0  2  0  0  0  0  0  0  0  0  0
   21.9524    6.8557    3.7534 O   0  0  0  0  0  0  0  0  0  0  0  0
   22.0589    8.6935    2.1000 C   0  0  2  0  0  0  0  0  0  0  0  0
   22.8157    9.9355    1.7195 O   0  0  0  0  0  0  0  0  0  0  0  0
   20.6168    9.0624    2.2948 C   0  0  0  0  0  0  0  0  0  0  0  0
   20.4877   10.3258    2.9671 O   0  0  0  0  0  0  0  0  0  0  0  0
   20.4374    3.6820   -1.4044 O   0  0  0  0  0  0  0  0  0  0  0  0
   21.4259    0.9889   -1.4927 O   0  0  0  0  0  0  0  0  0  0  0  0
   21.8892   12.4804   -3.0462 N   0  0  0  0  0  0  0  0  0  0  0  0
   23.7197   11.5277   -0.7584 C   0  0  0  0  0  0  0  0  0  0  0  0
   24.9296   11.3316   -0.7930 O   0  0  0  0  0  0  0  0  0  0  0  0
   23.0795   12.8536   -0.2866 C   0  0  1  0  0  0  0  0  0  0  0  0
   23.1244   13.8956   -1.4225 C   0  0  0  0  0  0  0  0  0  0  0  0
   23.0594   13.3330   -2.8472 C   0  0  0  0  0  0  0  0  0  0  0  0
   21.7182   12.6004    0.1282 O   0  0  0  0  0  0  0  0  0  0  0  0
  1  2  1  1  0  0  0
  1  3  1  0  0  0  0
  1  8  1  0  0  0  0
  3  4  1  0  0  0  0
  3 32  1  1  0  0  0
  4  5  1  0  0  0  0
  4 33  1  6  0  0  0
  5  6  1  1  0  0  0
  5  7  1  0  0  0  0
  7  8  1  0  0  0  0
  7  9  1  6  0  0  0
  9 10  1  0  0  0  0
 11 12  1  1  0  0  0
 11 13  1  0  0  0  0
 11 19  1  0  0  0  0
 12 35  1  0  0  0  0
 13 14  1  0  0  0  0
 14 15  1  1  0  0  0
 14 16  1  0  0  0  0
 16  2  1  6  0  0  0
 16 17  1  0  0  0  0
 17 18  1  1  0  0  0
 17 19  1  0  0  0  0
 19 20  1  6  0  0  0
 21 20  1  6  0  0  0
 21 22  1  0  0  0  0
 21 29  1  0  0  0  0
 22 23  1  6  0  0  0
 22 24  1  0  0  0  0
 24 25  1  1  0  0  0
 24 26  1  0  0  0  0
 26 27  1  6  0  0  0
 26 28  1  0  0  0  0
 28 29  1  0  0  0  0
 28 30  1  1  0  0  0
 30 31  1  0  0  0  0
 34 39  1  0  0  0  0
 35 36  2  0  0  0  0
 37 35  1  6  0  0  0
 37 38  1  0  0  0  0
 37 40  1  0  0  0  0
 38 39  1  0  0  0  0
M  END
>  <CHROM.1>
-108.20589756,-66.79192882,-155.03050906,-51.08720260,91.65689290,123.30138323
82.42588501,-100.37816124,30.35347707,54.87736330,22.94299349,7.30080388
-0.76365406,1.80417616,1.49782581,-2.94873607

>  <Name>
2g5q_lig

>  <RI>
0

>  <Rbt.Current_Directory>
/home/itssahil/PROJECTS/Mol_Feturizer/New_Systems/rnas/2g5q

>  <Rbt.Executable>
rbdock ($Id: //depot/dev/client3/rdock/2013.1/src/exe/rbdock.cxx#4 $)

>  <Rbt.Library>
libRbt.so (2013.1, Build901 2013/11/27)

>  <Rbt.Parameter_File>
/export/apps/rDock/src/rDock_2013.1_src/data/scripts/dock_solv.prm

>  <Rbt.Receptor>
prm/blind_docking_40.prm

>  <SCORE>
14.6721

>  <SCORE.INTER>
-1.10462

>  <SCORE.INTER.CONST>
1

>  <SCORE.INTER.POLAR>
-0.894739

>  <SCORE.INTER.ROT>
10

>  <SCORE.INTER.SOLV>
18.2471

>  <SCORE.INTER.VDW>
-14.103

>  <SCORE.INTER.norm>
-0.0276155

>  <SCORE.INTRA>
7.5417

>  <SCORE.INTRA.DIHEDRAL>
2.28548

>  <SCORE.INTRA.DIHEDRAL.0>
22.5778

>  <SCORE.INTRA.POLAR>
0

>  <SCORE.INTRA.POLAR.0>
0

>  <SCORE.INTRA.REPUL>
0

>  <SCORE.INTRA.REPUL.0>
0

>  <SCORE.INTRA.SOLV>
8.76765

>  <SCORE.INTRA.SOLV.lig_0>
-102.332

>  <SCORE.INTRA.VDW>
2.01514

>  <SCORE.INTRA.VDW.0>
-5.08747

>  <SCORE.INTRA.norm>
0.188543

>  <SCORE.RESTR>
8.23497

>  <SCORE.RESTR.CAVITY>
8.23497

>  <SCORE.RESTR.norm>
0.205874

>  <SCORE.SYSTEM>
0

>  <SCORE.SYSTEM.CONST>
0

>  <SCORE.SYSTEM.DIHEDRAL>
0

>  <SCORE.SYSTEM.SOLV>
0

>  <SCORE.SYSTEM.norm>
0

>  <SCORE.heavy>
40

>  <SCORE.norm>
0.366801

>  <RMSD>
34.345

$$$$
2g5q_lig
 OpenBabel11021811433D
libRbt.so/2013.1/901 2013/11/27
 40 42  0  0  0  0  0  0  0  0999 V2000
   21.8483    4.3213   -3.2221 C   0  0  2  0  0  0  0  0  0  0  0  0
   22.6943    4.9616   -2.2927 O   0  0  0  0  0  0  0  0  0  0  0  0
   21.0936    3.1658   -2.5010 C   0  0  1  0  0  0  0  0  0  0  0  0
   22.0619    2.0255   -2.0586 C   0  0  2  0  0  0  0  0  0  0  0  0
   22.7627    1.4787   -3.3294 C   0  0  2  0  0  0  0  0  0  0  0  0
   23.6486    0.4077   -2.9655 O   0  0  0  0  0  0  0  0  0  0  0  0
   23.5547    2.6678   -4.0096 C   0  0  2  0  0  0  0  0  0  0  0  0
   22.6145    3.7675   -4.3695 O   0  0  0  0  0  0  0  0  0  0  0  0
   24.2754    2.2436   -5.2849 C   0  0  0  0  0  0  0  0  0  0  0  0
   25.3967    1.2913   -5.0062 N   0  0  0  0  0  0  0  0  0  0  0  0
   23.0740    9.2580   -1.6041 C   0  0  2  0  0  0  0  0  0  0  0  0
   22.8019   10.6094   -1.1295 N   0  0  0  0  0  0  0  0  0  0  0  0
   21.8652    8.7325   -2.4864 C   0  0  0  0  0  0  0  0  0  0  0  0
   22.1590    7.2712   -3.0087 C   0  0  2  0  0  0  0  0  0  0  0  0
   21.0233    6.7946   -3.8435 N   0  0  0  0  0  0  0  0  0  0  0  0
   22.4109    6.3121   -1.7780 C   0  0  2  0  0  0  0  0  0  0  0  0
   23.6168    6.8694   -0.9223 C   0  0  2  0  0  0  0  0  0  0  0  0
   23.8388    6.0029    0.1948 O   0  0  0  0  0  0  0  0  0  0  0  0
   23.2965    8.3213   -0.3986 C   0  0  1  0  0  0  0  0  0  0  0  0
   24.4137    8.8369    0.3788 O   0  0  0  0  0  0  0  0  0  0  0  0
   24.2807    9.7318    1.4557 C   0  0  2  0  0  0  0  0  0  0  0  0
   24.9588    9.0697    2.7027 C   0  0  2  0  0  0  0  0  0  0  0  0
   26.3024    8.8315    2.4296 O   0  0  0  0  0  0  0  0  0  0  0  0
   24.2222    7.7380    3.1109 C   0  0  1  0  0  0  0  0  0  0  0  0
   24.8617    7.0984    4.3077 N   0  0  0  0  0  0  0  0  0  0  0  0
   22.7063    8.0780    3.4003 C   0  0  2  0  0  0  0  0  0  0  0  0
   21.9851    6.9055    3.7843 O   0  0  0  0  0  0  0  0  0  0  0  0
   22.0882    8.7328    2.1190 C   0  0  2  0  0  0  0  0  0  0  0  0
   22.8506    9.9665    1.7232 O   0  0  0  0  0  0  0  0  0  0  0  0
   20.6512    9.1142    2.3272 C   0  0  0  0  0  0  0  0  0  0  0  0
   20.0501    9.5706    1.1044 O   0  0  0  0  0  0  0  0  0  0  0  0
   20.3793    3.7295   -1.3477 O   0  0  0  0  0  0  0  0  0  0  0  0
   21.3418    1.0272   -1.4403 O   0  0  0  0  0  0  0  0  0  0  0  0
   23.1481   12.6998   -3.4218 N   0  0  0  0  0  0  0  0  0  0  0  0
   23.7655   11.5410   -0.7694 C   0  0  0  0  0  0  0  0  0  0  0  0
   24.9719   11.3249   -0.8037 O   0  0  0  0  0  0  0  0  0  0  0  0
   23.1474   12.8791   -0.3024 C   0  0  1  0  0  0  0  0  0  0  0  0
   23.4605   13.9909   -1.3241 C   0  0  0  0  0  0  0  0  0  0  0  0
   22.7352   13.8834   -2.6705 C   0  0  0  0  0  0  0  0  0  0  0  0
   21.7206   12.7111   -0.1431 O   0  0  0  0  0  0  0  0  0  0  0  0
  1  2  1  1  0  0  0
  1  3  1  0  0  0  0
  1  8  1  0  0  0  0
  3  4  1  0  0  0  0
  3 32  1  1  0  0  0
  4  5  1  0  0  0  0
  4 33  1  6  0  0  0
  5  6  1  1  0  0  0
  5  7  1  0  0  0  0
  7  8  1  0  0  0  0
  7  9  1  6  0  0  0
  9 10  1  0  0  0  0
 11 12  1  1  0  0  0
 11 13  1  0  0  0  0
 11 19  1  0  0  0  0
 12 35  1  0  0  0  0
 13 14  1  0  0  0  0
 14 15  1  1  0  0  0
 14 16  1  0  0  0  0
 16  2  1  6  0  0  0
 16 17  1  0  0  0  0
 17 18  1  1  0  0  0
 17 19  1  0  0  0  0
 19 20  1  6  0  0  0
 21 20  1  6  0  0  0
 21 22  1  0  0  0  0
 21 29  1  0  0  0  0
 22 23  1  6  0  0  0
 22 24  1  0  0  0  0
 24 25  1  1  0  0  0
 24 26  1  0  0  0  0
 26 27  1  6  0  0  0
 26 28  1  0  0  0  0
 28 29  1  0  0  0  0
 28 30  1  1  0  0  0
 30 31  1  0  0  0  0
 34 39  1  0  0  0  0
 35 36  2  0  0  0  0
 37 35  1  6  0  0  0
 37 38  1  0  0  0  0
 37 40  1  0  0  0  0
 38 39  1  0  0  0  0
M  END
>  <CHROM.1>
-108.47093876,-67.41061048,-155.31672105,-51.51170782,91.64518540,123.82954828
-173.33771529,-111.77825269,70.23811334,-65.28406084,22.94347036,7.32527972
-0.81561255,2.10333606,1.48320247,3.00119222

>  <Name>
2g5q_lig

>  <RI>
0

>  <Rbt.Current_Directory>
/home/itssahil/PROJECTS/Mol_Feturizer/New_Systems/rnas/2g5q

>  <Rbt.Executable>
rbdock ($Id: //depot/dev/client3/rdock/2013.1/src/exe/rbdock.cxx#4 $)

>  <Rbt.Library>
libRbt.so (2013.1, Build901 2013/11/27)

>  <Rbt.Parameter_File>
/export/apps/rDock/src/rDock_2013.1_src/data/scripts/dock_solv.prm

>  <Rbt.Receptor>
prm/blind_docking_40.prm

>  <SCORE>
11.7772

>  <SCORE.INTER>
-1.30054

>  <SCORE.INTER.CONST>
1

>  <SCORE.INTER.POLAR>
-0.884695

>  <SCORE.INTER.ROT>
10

>  <SCORE.INTER.SOLV>
18.545

>  <SCORE.INTER.VDW>
-14.3664

>  <SCORE.INTER.norm>
-0.0325135

>  <SCORE.INTRA>
4.76648

>  <SCORE.INTRA.DIHEDRAL>
-0.992658

>  <SCORE.INTRA.DIHEDRAL.0>
22.5778

>  <SCORE.INTRA.POLAR>
0

>  <SCORE.INTRA.POLAR.0>
0

>  <SCORE.INTRA.REPUL>
0

>  <SCORE.INTRA.REPUL.0>
0

>  <SCORE.INTRA.SOLV>
8.19969

>  <SCORE.INTRA.SOLV.lig_0>
-102.332

>  <SCORE.INTRA.VDW>
1.16297

>  <SCORE.INTRA.VDW.0>
-5.08747

>  <SCORE.INTRA.norm>
0.119162

>  <SCORE.RESTR>
8.31128

>  <SCORE.RESTR.CAVITY>
8.31128

>  <SCORE.RESTR.norm>
0.207782

>  <SCORE.SYSTEM>
0

>  <SCORE.SYSTEM.CONST>
0

>  <SCORE.SYSTEM.DIHEDRAL>
0

>  <SCORE.SYSTEM.SOLV>
0

>  <SCORE.SYSTEM.norm>
0

>  <SCORE.heavy>
40

>  <SCORE.norm>
0.294431

>  <RMSD>
34.389

$$$$
2g5q_lig
 OpenBabel11021811433D
libRbt.so/2013.1/901 2013/11/27
 40 42  0  0  0  0  0  0  0  0999 V2000
   22.8603    4.4150   -1.1247 C   0  0  2  0  0  0  0  0  0  0  0  0
   22.1741    5.3575   -1.9188 O   0  0  0  0  0  0  0  0  0  0  0  0
   24.1073    3.9107   -1.9092 C   0  0  1  0  0  0  0  0  0  0  0  0
   23.7063    3.0862   -3.1714 C   0  0  2  0  0  0  0  0  0  0  0  0
   22.8619    1.8747   -2.6978 C   0  0  2  0  0  0  0  0  0  0  0  0
   22.4914    1.0752   -3.8326 O   0  0  0  0  0  0  0  0  0  0  0  0
   21.5830    2.4250   -1.9458 C   0  0  2  0  0  0  0  0  0  0  0  0
   21.9952    3.2565   -0.7790 O   0  0  0  0  0  0  0  0  0  0  0  0
   20.6821    1.3118   -1.4215 C   0  0  0  0  0  0  0  0  0  0  0  0
   19.7352    1.8033   -0.3710 N   0  0  0  0  0  0  0  0  0  0  0  0
   22.9834    9.6411   -1.6499 C   0  0  2  0  0  0  0  0  0  0  0  0
   22.8621   11.0492   -1.2916 N   0  0  0  0  0  0  0  0  0  0  0  0
   21.6868    9.1588   -2.4259 C   0  0  0  0  0  0  0  0  0  0  0  0
   21.8171    7.6356   -2.8223 C   0  0  2  0  0  0  0  0  0  0  0  0
   20.6002    7.1988   -3.5588 N   0  0  0  0  0  0  0  0  0  0  0  0
   22.0436    6.7692   -1.5199 C   0  0  2  0  0  0  0  0  0  0  0  0
   23.3387    7.2810   -0.7733 C   0  0  2  0  0  0  0  0  0  0  0  0
   23.5381    6.4994    0.4087 O   0  0  0  0  0  0  0  0  0  0  0  0
   23.1814    8.7977   -0.3734 C   0  0  1  0  0  0  0  0  0  0  0  0
   24.3804    9.2698    0.3031 O   0  0  0  0  0  0  0  0  0  0  0  0
   24.3747    9.9847    1.5143 C   0  0  2  0  0  0  0  0  0  0  0  0
   25.1149    9.1079    2.5804 C   0  0  2  0  0  0  0  0  0  0  0  0
   26.4202    8.8696    2.1610 O   0  0  0  0  0  0  0  0  0  0  0  0
   24.3491    7.7547    2.8354 C   0  0  1  0  0  0  0  0  0  0  0  0
   25.0481    6.9096    3.8588 N   0  0  0  0  0  0  0  0  0  0  0  0
   22.8783    8.0970    3.3012 C   0  0  2  0  0  0  0  0  0  0  0  0
   22.1337    6.9042    3.5560 O   0  0  0  0  0  0  0  0  0  0  0  0
   22.1948    8.9700    2.1953 C   0  0  2  0  0  0  0  0  0  0  0  0
   22.9826   10.2236    1.9350 O   0  0  0  0  0  0  0  0  0  0  0  0
   20.7984    9.3633    2.5811 C   0  0  0  0  0  0  0  0  0  0  0  0
   19.8259    8.4952    1.9766 O   0  0  0  0  0  0  0  0  0  0  0  0
   24.9241    5.0752   -2.2764 O   0  0  0  0  0  0  0  0  0  0  0  0
   24.8440    2.6553   -3.8175 O   0  0  0  0  0  0  0  0  0  0  0  0
   25.3799   14.9729   -2.3706 N   0  0  0  0  0  0  0  0  0  0  0  0
   23.9198   11.8869   -0.9666 C   0  0  0  0  0  0  0  0  0  0  0  0
   25.0919   11.5282   -0.9370 O   0  0  0  0  0  0  0  0  0  0  0  0
   23.4538   13.3218   -0.6285 C   0  0  1  0  0  0  0  0  0  0  0  0
   23.1054   14.0833   -1.9234 C   0  0  0  0  0  0  0  0  0  0  0  0
   24.2480   14.2396   -2.9336 C   0  0  0  0  0  0  0  0  0  0  0  0
   22.3105   13.2526    0.2532 O   0  0  0  0  0  0  0  0  0  0  0  0
  1  2  1  6  0  0  0
  1  3  1  0  0  0  0
  1  8  1  0  0  0  0
  3  4  1  0  0  0  0
  3 32  1  6  0  0  0
  4  5  1  0  0  0  0
  4 33  1  1  0  0  0
  5  6  1  6  0  0  0
  5  7  1  0  0  0  0
  7  8  1  0  0  0  0
  7  9  1  1  0  0  0
  9 10  1  0  0  0  0
 11 12  1  1  0  0  0
 11 13  1  0  0  0  0
 11 19  1  0  0  0  0
 12 35  1  0  0  0  0
 13 14  1  0  0  0  0
 14 15  1  1  0  0  0
 14 16  1  0  0  0  0
 16  2  1  6  0  0  0
 16 17  1  0  0  0  0
 17 18  1  1  0  0  0
 17 19  1  0  0  0  0
 19 20  1  6  0  0  0
 21 20  1  6  0  0  0
 21 22  1  0  0  0  0
 21 29  1  0  0  0  0
 22 23  1  6  0  0  0
 22 24  1  0  0  0  0
 24 25  1  1  0  0  0
 24 26  1  0  0  0  0
 26 27  1  6  0  0  0
 26 28  1  0  0  0  0
 28 29  1  0  0  0  0
 28 30  1  1  0  0  0
 30 31  1  0  0  0  0
 34 39  1  0  0  0  0
 35 36  2  0  0  0  0
 37 35  1  6  0  0  0
 37 38  1  0  0  0  0
 37 40  1  0  0  0  0
 38 39  1  0  0  0  0
M  END
>  <CHROM.1>
-115.60630536,162.13504072,-160.30994939,155.63114103,109.19658651,116.79026313
-98.04836720,-76.57793932,-59.96897547,-60.28559378,23.05601691,7.66444427
-0.48876832,-2.76652403,1.41951325,1.38805564

>  <Name>
2g5q_lig

>  <RI>
0

>  <Rbt.Current_Directory>
/home/itssahil/PROJECTS/Mol_Feturizer/New_Systems/rnas/2g5q

>  <Rbt.Executable>
rbdock ($Id: //depot/dev/client3/rdock/2013.1/src/exe/rbdock.cxx#4 $)

>  <Rbt.Library>
libRbt.so (2013.1, Build901 2013/11/27)

>  <Rbt.Parameter_File>
/export/apps/rDock/src/rDock_2013.1_src/data/scripts/dock_solv.prm

>  <Rbt.Receptor>
prm/blind_docking_40.prm

>  <SCORE>
15.0131

>  <SCORE.INTER>
-0.829527

>  <SCORE.INTER.CONST>
1

>  <SCORE.INTER.POLAR>
0

>  <SCORE.INTER.ROT>
10

>  <SCORE.INTER.SOLV>
21.9277

>  <SCORE.INTER.VDW>
-18.1289

>  <SCORE.INTER.norm>
-0.0207382

>  <SCORE.INTRA>
6.47165

>  <SCORE.INTRA.DIHEDRAL>
6.99413

>  <SCORE.INTRA.DIHEDRAL.0>
22.5778

>  <SCORE.INTRA.POLAR>
0

>  <SCORE.INTRA.POLAR.0>
0

>  <SCORE.INTRA.REPUL>
0

>  <SCORE.INTRA.REPUL.0>
0

>  <SCORE.INTRA.SOLV>
3.186

>  <SCORE.INTRA.SOLV.lig_0>
-102.332

>  <SCORE.INTRA.VDW>
1.38159

>  <SCORE.INTRA.VDW.0>
-5.08747

>  <SCORE.INTRA.norm>
0.161791

>  <SCORE.RESTR>
9.37102

>  <SCORE.RESTR.CAVITY>
9.37102

>  <SCORE.RESTR.norm>
0.234276

>  <SCORE.SYSTEM>
0

>  <SCORE.SYSTEM.CONST>
0

>  <SCORE.SYSTEM.DIHEDRAL>
0

>  <SCORE.SYSTEM.SOLV>
0

>  <SCORE.SYSTEM.norm>
0

>  <SCORE.heavy>
40

>  <SCORE.norm>
0.375329

>  <RMSD>
34.405

$$$$
2g5q_lig
 OpenBabel11021811433D
libRbt.so/2013.1/901 2013/11/27
 40 42  0  0  0  0  0  0  0  0999 V2000
   22.3443    5.5142   -2.7045 C   0  0  2  0  0  0  0  0  0  0  0  0
   21.2363    6.3253   -2.3824 O   0  0  0  0  0  0  0  0  0  0  0  0
   21.8267    4.1550   -3.2608 C   0  0  1  0  0  0  0  0  0  0  0  0
   21.0846    3.3241   -2.1687 C   0  0  2  0  0  0  0  0  0  0  0  0
   22.0814    3.0682   -1.0086 C   0  0  2  0  0  0  0  0  0  0  0  0
   21.4405    2.2836    0.0102 O   0  0  0  0  0  0  0  0  0  0  0  0
   22.5504    4.4683   -0.4397 C   0  0  2  0  0  0  0  0  0  0  0  0
   23.2040    5.2644   -1.5176 O   0  0  0  0  0  0  0  0  0  0  0  0
   23.5503    4.3355    0.7041 C   0  0  0  0  0  0  0  0  0  0  0  0
   24.1756    5.6488    1.0590 N   0  0  0  0  0  0  0  0  0  0  0  0
   22.9208   10.3474   -2.1331 C   0  0  2  0  0  0  0  0  0  0  0  0
   23.0806   11.7594   -1.8070 N   0  0  0  0  0  0  0  0  0  0  0  0
   21.6000   10.1268   -2.9833 C   0  0  0  0  0  0  0  0  0  0  0  0
   21.4267    8.5992   -3.3450 C   0  0  2  0  0  0  0  0  0  0  0  0
   20.1910    8.4074   -4.1514 N   0  0  0  0  0  0  0  0  0  0  0  0
   21.3855    7.7440   -2.0164 C   0  0  2  0  0  0  0  0  0  0  0  0
   22.7129    7.9929   -1.1962 C   0  0  2  0  0  0  0  0  0  0  0  0
   22.6705    7.2226    0.0092 O   0  0  0  0  0  0  0  0  0  0  0  0
   22.8582    9.5199   -0.8326 C   0  0  1  0  0  0  0  0  0  0  0  0
   24.0877    9.7482   -0.0879 O   0  0  0  0  0  0  0  0  0  0  0  0
   24.1477   10.3973    1.1583 C   0  0  2  0  0  0  0  0  0  0  0  0
   25.1269    9.5796    2.0670 C   0  0  2  0  0  0  0  0  0  0  0  0
   26.3863    9.5409    1.4762 O   0  0  0  0  0  0  0  0  0  0  0  0
   24.5813    8.1244    2.3264 C   0  0  1  0  0  0  0  0  0  0  0  0
   25.5104    7.3344    3.1998 N   0  0  0  0  0  0  0  0  0  0  0  0
   23.1519    8.2412    2.9902 C   0  0  2  0  0  0  0  0  0  0  0  0
   22.6064    6.9476    3.2571 O   0  0  0  0  0  0  0  0  0  0  0  0
   22.2237    9.0648    2.0348 C   0  0  2  0  0  0  0  0  0  0  0  0
   22.8030   10.4247    1.7610 O   0  0  0  0  0  0  0  0  0  0  0  0
   20.8504    9.2462    2.6135 C   0  0  0  0  0  0  0  0  0  0  0  0
   19.9143    9.6750    1.6112 O   0  0  0  0  0  0  0  0  0  0  0  0
   20.9470    4.4290   -4.4049 O   0  0  0  0  0  0  0  0  0  0  0  0
   20.6613    2.1303   -2.7102 O   0  0  0  0  0  0  0  0  0  0  0  0
   21.0954   13.6741    1.0580 N   0  0  0  0  0  0  0  0  0  0  0  0
   23.1941   12.7873   -2.7326 C   0  0  0  0  0  0  0  0  0  0  0  0
   23.1798   12.6185   -3.9469 O   0  0  0  0  0  0  0  0  0  0  0  0
   23.3582   14.1704   -2.0614 C   0  0  1  0  0  0  0  0  0  0  0  0
   22.2362   14.3924   -1.0270 C   0  0  0  0  0  0  0  0  0  0  0  0
   22.2097   13.4103    0.1499 C   0  0  0  0  0  0  0  0  0  0  0  0
   24.6591   14.2411   -1.4352 O   0  0  0  0  0  0  0  0  0  0  0  0
  1  2  1  1  0  0  0
  1  3  1  0  0  0  0
  1  8  1  0  0  0  0
  3  4  1  0  0  0  0
  3 32  1  6  0  0  0
  4  5  1  0  0  0  0
  4 33  1  6  0  0  0
  5  6  1  1  0  0  0
  5  7  1  0  0  0  0
  7  8  1  0  0  0  0
  7  9  1  1  0  0  0
  9 10  1  0  0  0  0
 11 12  1  1  0  0  0
 11 13  1  0  0  0  0
 11 19  1  0  0  0  0
 12 35  1  0  0  0  0
 13 14  1  0  0  0  0
 14 15  1  1  0  0  0
 14 16  1  0  0  0  0
 16  2  1  6  0  0  0
 16 17  1  0  0  0  0
 17 18  1  1  0  0  0
 17 19  1  0  0  0  0
 19 20  1  6  0  0  0
 21 20  1  6  0  0  0
 21 22  1  0  0  0  0
 21 29  1  0  0  0  0
 22 23  1  6  0  0  0
 22 24  1  0  0  0  0
 24 25  1  1  0  0  0
 24 26  1  0  0  0  0
 26 27  1  6  0  0  0
 26 28  1  0  0  0  0
 28 29  1  0  0  0  0
 28 30  1  1  0  0  0
 30 31  1  0  0  0  0
 34 39  1  0  0  0  0
 35 36  2  0  0  0  0
 37 35  1  1  0  0  0
 37 38  1  0  0  0  0
 37 40  1  0  0  0  0
 38 39  1  0  0  0  0
M  END
>  <CHROM.1>
-170.94625823,169.32144765,-59.75418545,85.10111661,114.18105827,136.73352150
-164.52158575,-52.29898260,62.47815711,-178.49219639,22.62533833,8.38021254
-0.56476200,1.97591889,1.19970895,2.86565646

>  <Name>
2g5q_lig

>  <RI>
0

>  <Rbt.Current_Directory>
/home/itssahil/PROJECTS/Mol_Feturizer/New_Systems/rnas/2g5q

>  <Rbt.Executable>
rbdock ($Id: //depot/dev/client3/rdock/2013.1/src/exe/rbdock.cxx#4 $)

>  <Rbt.Library>
libRbt.so (2013.1, Build901 2013/11/27)

>  <Rbt.Parameter_File>
/export/apps/rDock/src/rDock_2013.1_src/data/scripts/dock_solv.prm

>  <Rbt.Receptor>
prm/blind_docking_40.prm

>  <SCORE>
21.6572

>  <SCORE.INTER>
6.23887

>  <SCORE.INTER.CONST>
1

>  <SCORE.INTER.POLAR>
0

>  <SCORE.INTER.ROT>
10

>  <SCORE.INTER.SOLV>
18.7139

>  <SCORE.INTER.VDW>
-12.3454

>  <SCORE.INTER.norm>
0.155972

>  <SCORE.INTRA>
4.71155

>  <SCORE.INTRA.DIHEDRAL>
-4.41339

>  <SCORE.INTRA.DIHEDRAL.0>
22.5778

>  <SCORE.INTRA.POLAR>
0

>  <SCORE.INTRA.POLAR.0>
0

>  <SCORE.INTRA.REPUL>
0

>  <SCORE.INTRA.REPUL.0>
0

>  <SCORE.INTRA.SOLV>
8.99073

>  <SCORE.INTRA.SOLV.lig_0>
-102.332

>  <SCORE.INTRA.VDW>
2.42288

>  <SCORE.INTRA.VDW.0>
-5.08747

>  <SCORE.INTRA.norm>
0.117789

>  <SCORE.RESTR>
10.7068

>  <SCORE.RESTR.CAVITY>
10.7068

>  <SCORE.RESTR.norm>
0.26767

>  <SCORE.SYSTEM>
0

>  <SCORE.SYSTEM.CONST>
0

>  <SCORE.SYSTEM.DIHEDRAL>
0

>  <SCORE.SYSTEM.SOLV>
0

>  <SCORE.SYSTEM.norm>
0

>  <SCORE.heavy>
40

>  <SCORE.norm>
0.541431

>  <RMSD>
34.413

$$$$
2g5q_lig
 OpenBabel11021811433D
libRbt.so/2013.1/901 2013/11/27
 40 42  0  0  0  0  0  0  0  0999 V2000
   23.0023    3.4597   -3.9445 C   0  0  2  0  0  0  0  0  0  0  0  0
   23.5474    4.2152   -2.8854 O   0  0  0  0  0  0  0  0  0  0  0  0
   21.8314    2.5939   -3.3929 C   0  0  1  0  0  0  0  0  0  0  0  0
   22.3337    1.5011   -2.3995 C   0  0  2  0  0  0  0  0  0  0  0  0
   23.3396    0.5969   -3.1581 C   0  0  2  0  0  0  0  0  0  0  0  0
   23.8092   -0.4396   -2.2809 O   0  0  0  0  0  0  0  0  0  0  0  0
   24.5357    1.5011   -3.6640 C   0  0  2  0  0  0  0  0  0  0  0  0
   24.0206    2.5718   -4.5647 O   0  0  0  0  0  0  0  0  0  0  0  0
   25.5844    0.7121   -4.4408 C   0  0  0  0  0  0  0  0  0  0  0  0
   25.0254    0.1206   -5.6975 N   0  0  0  0  0  0  0  0  0  0  0  0
   22.6636    8.4150   -2.0740 C   0  0  2  0  0  0  0  0  0  0  0  0
   22.0019    9.6156   -1.5777 N   0  0  0  0  0  0  0  0  0  0  0  0
   21.6849    7.6002   -3.0196 C   0  0  0  0  0  0  0  0  0  0  0  0
   22.4003    6.3022   -3.5653 C   0  0  2  0  0  0  0  0  0  0  0  0
   21.4761    5.5533   -4.4592 N   0  0  0  0  0  0  0  0  0  0  0  0
   22.8738    5.4103   -2.3495 C   0  0  2  0  0  0  0  0  0  0  0  0
   23.8415    6.2557   -1.4299 C   0  0  2  0  0  0  0  0  0  0  0  0
   24.2638    5.4482   -0.3264 O   0  0  0  0  0  0  0  0  0  0  0  0
   23.1033    7.5372   -0.8840 C   0  0  1  0  0  0  0  0  0  0  0  0
   24.0006    8.3203   -0.0475 O   0  0  0  0  0  0  0  0  0  0  0  0
   23.5759    9.3151    0.8516 C   0  0  2  0  0  0  0  0  0  0  0  0
   24.8583   10.0049    1.4285 C   0  0  2  0  0  0  0  0  0  0  0  0
   25.5909   10.5685    0.3883 O   0  0  0  0  0  0  0  0  0  0  0  0
   25.7353    8.9828    2.2462 C   0  0  1  0  0  0  0  0  0  0  0  0
   26.9641    9.6354    2.8070 N   0  0  0  0  0  0  0  0  0  0  0  0
   24.8443    8.3785    3.4030 C   0  0  2  0  0  0  0  0  0  0  0  0
   25.5907    7.4457    4.1872 O   0  0  0  0  0  0  0  0  0  0  0  0
   23.5844    7.7043    2.7622 C   0  0  2  0  0  0  0  0  0  0  0  0
   22.8034    8.6922    1.9413 O   0  0  0  0  0  0  0  0  0  0  0  0
   22.6691    7.1314    3.8052 C   0  0  0  0  0  0  0  0  0  0  0  0
   23.3853    6.2863    4.7205 O   0  0  0  0  0  0  0  0  0  0  0  0
   20.8600    3.4877   -2.7483 O   0  0  0  0  0  0  0  0  0  0  0  0
   21.2619    0.7589   -1.9546 O   0  0  0  0  0  0  0  0  0  0  0  0
   22.9101   14.2052   -2.3096 N   0  0  0  0  0  0  0  0  0  0  0  0
   22.6260   10.8307   -1.3323 C   0  0  0  0  0  0  0  0  0  0  0  0
   23.8239   11.0304   -1.5012 O   0  0  0  0  0  0  0  0  0  0  0  0
   21.6444   11.9024   -0.8046 C   0  0  1  0  0  0  0  0  0  0  0  0
   22.4270   13.0634   -0.1584 C   0  0  0  0  0  0  0  0  0  0  0  0
   23.4791   13.7357   -1.0480 C   0  0  0  0  0  0  0  0  0  0  0  0
   20.8280   12.3762   -1.8992 O   0  0  0  0  0  0  0  0  0  0  0  0
  1  2  1  1  0  0  0
  1  3  1  0  0  0  0
  1  8  1  0  0  0  0
  3  4  1  0  0  0  0
  3 32  1  1  0  0  0
  4  5  1  0  0  0  0
  4 33  1  6  0  0  0
  5  6  1  1  0  0  0
  5  7  1  0  0  0  0
  7  8  1  0  0  0  0
  7  9  1  6  0  0  0
  9 10  1  0  0  0  0
 11 12  1  1  0  0  0
 11 13  1  0  0  0  0
 11 19  1  0  0  0  0
 12 35  1  0  0  0  0
 13 14  1  0  0  0  0
 14 15  1  6  0  0  0
 14 16  1  0  0  0  0
 16  2  1  6  0  0  0
 16 17  1  0  0  0  0
 17 18  1  1  0  0  0
 17 19  1  0  0  0  0
 19 20  1  1  0  0  0
 21 20  1  6  0  0  0
 21 22  1  0  0  0  0
 21 29  1  0  0  0  0
 22 23  1  6  0  0  0
 22 24  1  0  0  0  0
 24 25  1  1  0  0  0
 24 26  1  0  0  0  0
 26 27  1  6  0  0  0
 26 28  1  0  0  0  0
 28 29  1  0  0  0  0
 28 30  1  1  0  0  0
 30 31  1  0  0  0  0
 34 39  1  0  0  0  0
 35 36  2  0  0  0  0
 37 35  1  6  0  0  0
 37 38  1  0  0  0  0
 37 40  1  0  0  0  0
 38 39  1  0  0  0  0
M  END
>  <CHROM.1>
-76.08487538,63.24873479,-145.70194990,-46.02058281,77.41202294,-174.12547848
-51.14257664,163.06975264,55.50714473,54.85458175,23.37210236,6.79526172
-1.00991980,1.63819197,1.21819163,-2.79530741

>  <Name>
2g5q_lig

>  <RI>
0

>  <Rbt.Current_Directory>
/home/itssahil/PROJECTS/Mol_Feturizer/New_Systems/rnas/2g5q

>  <Rbt.Executable>
rbdock ($Id: //depot/dev/client3/rdock/2013.1/src/exe/rbdock.cxx#4 $)

>  <Rbt.Library>
libRbt.so (2013.1, Build901 2013/11/27)

>  <Rbt.Parameter_File>
/export/apps/rDock/src/rDock_2013.1_src/data/scripts/dock_solv.prm

>  <Rbt.Receptor>
prm/blind_docking_40.prm

>  <SCORE>
10.4357

>  <SCORE.INTER>
0.0634926

>  <SCORE.INTER.CONST>
1

>  <SCORE.INTER.POLAR>
0

>  <SCORE.INTER.ROT>
10

>  <SCORE.INTER.SOLV>
21.4837

>  <SCORE.INTER.VDW>
-17.3856

>  <SCORE.INTER.norm>
0.00158731

>  <SCORE.INTRA>
-0.746215

>  <SCORE.INTRA.DIHEDRAL>
-16.5583

>  <SCORE.INTRA.DIHEDRAL.0>
22.5778

>  <SCORE.INTRA.POLAR>
0

>  <SCORE.INTRA.POLAR.0>
0

>  <SCORE.INTRA.REPUL>
0

>  <SCORE.INTRA.REPUL.0>
0

>  <SCORE.INTRA.SOLV>
7.92755

>  <SCORE.INTRA.SOLV.lig_0>
-102.332

>  <SCORE.INTRA.VDW>
3.56918

>  <SCORE.INTRA.VDW.0>
-5.08747

>  <SCORE.INTRA.norm>
-0.0186554

>  <SCORE.RESTR>
11.1184

>  <SCORE.RESTR.CAVITY>
11.1184

>  <SCORE.RESTR.norm>
0.277961

>  <SCORE.SYSTEM>
0

>  <SCORE.SYSTEM.CONST>
0

>  <SCORE.SYSTEM.DIHEDRAL>
0

>  <SCORE.SYSTEM.SOLV>
0

>  <SCORE.SYSTEM.norm>
0

>  <SCORE.heavy>
40

>  <SCORE.norm>
0.260893

>  <RMSD>
34.561

$$$$
2g5q_lig
 OpenBabel11021811433D
libRbt.so/2013.1/901 2013/11/27
 40 42  0  0  0  0  0  0  0  0999 V2000
   24.2522   12.2543   -2.0298 C   0  0  2  0  0  0  0  0  0  0  0  0
   23.7804   12.4900   -0.7216 O   0  0  0  0  0  0  0  0  0  0  0  0
   24.4032   13.6199   -2.7627 C   0  0  1  0  0  0  0  0  0  0  0  0
   23.0235   14.3076   -3.0017 C   0  0  2  0  0  0  0  0  0  0  0  0
   22.1575   13.3480   -3.8584 C   0  0  2  0  0  0  0  0  0  0  0  0
   20.8829   13.9571   -4.1205 O   0  0  0  0  0  0  0  0  0  0  0  0
   21.9880   11.9900   -3.0640 C   0  0  2  0  0  0  0  0  0  0  0  0
   23.3240   11.3838   -2.7984 O   0  0  0  0  0  0  0  0  0  0  0  0
   21.1592   10.9606   -3.8250 C   0  0  0  0  0  0  0  0  0  0  0  0
   21.7896   10.5858   -5.1303 N   0  0  0  0  0  0  0  0  0  0  0  0
   23.4799    8.4778    0.9781 C   0  0  2  0  0  0  0  0  0  0  0  0
   23.4027    7.3912    1.9473 N   0  0  0  0  0  0  0  0  0  0  0  0
   24.8334    9.2835    1.1639 C   0  0  0  0  0  0  0  0  0  0  0  0
   24.9244   10.4573    0.1110 C   0  0  2  0  0  0  0  0  0  0  0  0
   26.2027   11.1978    0.2884 N   0  0  0  0  0  0  0  0  0  0  0  0
   23.6772   11.4137    0.2784 C   0  0  2  0  0  0  0  0  0  0  0  0
   22.3505   10.5761    0.0913 C   0  0  2  0  0  0  0  0  0  0  0  0
   21.2227   11.4427    0.2496 O   0  0  0  0  0  0  0  0  0  0  0  0
   22.2726    9.4207    1.1609 C   0  0  1  0  0  0  0  0  0  0  0  0
   21.0558    8.6433    0.9785 O   0  0  0  0  0  0  0  0  0  0  0  0
   20.1357    8.3632    2.0047 C   0  0  2  0  0  0  0  0  0  0  0  0
   18.7064    8.3542    1.3643 C   0  0  2  0  0  0  0  0  0  0  0  0
   18.6463    7.3769    0.3754 O   0  0  0  0  0  0  0  0  0  0  0  0
   18.3354    9.7699    0.7806 C   0  0  1  0  0  0  0  0  0  0  0  0
   16.9657    9.7727    0.1687 N   0  0  0  0  0  0  0  0  0  0  0  0
   18.4289   10.8289    1.9499 C   0  0  2  0  0  0  0  0  0  0  0  0
   18.0946   12.1368    1.4811 O   0  0  0  0  0  0  0  0  0  0  0  0
   19.8772   10.7896    2.5442 C   0  0  2  0  0  0  0  0  0  0  0  0
   20.2202    9.4115    3.0372 O   0  0  0  0  0  0  0  0  0  0  0  0
   20.0362   11.7510    3.6862 C   0  0  0  0  0  0  0  0  0  0  0  0
   20.0196   13.1128    3.2279 O   0  0  0  0  0  0  0  0  0  0  0  0
   25.2896   14.4771   -1.9641 O   0  0  0  0  0  0  0  0  0  0  0  0
   23.2149   15.5010   -3.6626 O   0  0  0  0  0  0  0  0  0  0  0  0
   27.0146    4.6948    1.9428 N   0  0  0  0  0  0  0  0  0  0  0  0
   24.4871    6.8216    2.5998 C   0  0  0  0  0  0  0  0  0  0  0  0
   25.6499    7.1693    2.4252 O   0  0  0  0  0  0  0  0  0  0  0  0
   24.0674    5.6854    3.5607 C   0  0  1  0  0  0  0  0  0  0  0  0
   25.0163    4.4803    3.4006 C   0  0  0  0  0  0  0  0  0  0  0  0
   26.5097    4.8144    3.3090 C   0  0  0  0  0  0  0  0  0  0  0  0
   24.0879    6.1819    4.9180 O   0  0  0  0  0  0  0  0  0  0  0  0
  1  2  1  1  0  0  0
  1  3  1  0  0  0  0
  1  8  1  0  0  0  0
  3  4  1  0  0  0  0
  3 32  1  1  0  0  0
  4  5  1  0  0  0  0
  4 33  1  6  0  0  0
  5  6  1  1  0  0  0
  5  7  1  0  0  0  0
  7  8  1  0  0  0  0
  7  9  1  6  0  0  0
  9 10  1  0  0  0  0
 11 12  1  1  0  0  0
 11 13  1  0  0  0  0
 11 19  1  0  0  0  0
 12 35  1  0  0  0  0
 13 14  1  0  0  0  0
 14 15  1  1  0  0  0
 14 16  1  0  0  0  0
 16  2  1  6  0  0  0
 16 17  1  0  0  0  0
 17 18  1  1  0  0  0
 17 19  1  0  0  0  0
 19 20  1  6  0  0  0
 21 20  1  6  0  0  0
 21 22  1  0  0  0  0
 21 29  1  0  0  0  0
 22 23  1  6  0  0  0
 22 24  1  0  0  0  0
 24 25  1  1  0  0  0
 24 26  1  0  0  0  0
 26 27  1  6  0  0  0
 26 28  1  0  0  0  0
 28 29  1  0  0  0  0
 28 30  1  1  0  0  0
 30 31  1  0  0  0  0
 34 39  1  0  0  0  0
 35 36  2  0  0  0  0
 37 35  1  6  0  0  0
 37 38  1  0  0  0  0
 37 40  1  0  0  0  0
 38 39  1  0  0  0  0
M  END
>  <CHROM.1>
-172.95512468,61.09353160,-21.51577039,38.36307701,112.51173342,145.30286596
-70.42468393,135.74359857,43.75432944,-104.60832078,22.35884434,10.15632085
0.32535771,-1.77500350,-0.24278849,2.39505973

>  <Name>
2g5q_lig

>  <RI>
224

>  <Rbt.Current_Directory>
/home/itssahil/PROJECTS/Mol_Feturizer/New_Systems/rnas/2g5q

>  <Rbt.Executable>
rbdock ($Id: //depot/dev/client3/rdock/2013.1/src/exe/rbdock.cxx#4 $)

>  <Rbt.Library>
libRbt.so (2013.1, Build901 2013/11/27)

>  <Rbt.Parameter_File>
/export/apps/rDock/src/rDock_2013.1_src/data/scripts/dock_solv.prm

>  <Rbt.Receptor>
prm/blind_docking_100.prm

>  <SCORE>
36.0346

>  <SCORE.INTER>
5.56162

>  <SCORE.INTER.CONST>
1

>  <SCORE.INTER.POLAR>
-0.959166

>  <SCORE.INTER.ROT>
10

>  <SCORE.INTER.SOLV>
31.2154

>  <SCORE.INTER.VDW>
-13.7668

>  <SCORE.INTER.norm>
0.139041

>  <SCORE.INTRA>
7.16825

>  <SCORE.INTRA.DIHEDRAL>
0.0993908

>  <SCORE.INTRA.DIHEDRAL.0>
22.5778

>  <SCORE.INTRA.POLAR>
0

>  <SCORE.INTRA.POLAR.0>
0

>  <SCORE.INTRA.REPUL>
0

>  <SCORE.INTRA.REPUL.0>
0

>  <SCORE.INTRA.SOLV>
4.45457

>  <SCORE.INTRA.SOLV.lig_0>
-102.332

>  <SCORE.INTRA.VDW>
4.89127

>  <SCORE.INTRA.VDW.0>
-5.08747

>  <SCORE.INTRA.norm>
0.179206

>  <SCORE.RESTR>
23.3047

>  <SCORE.RESTR.CAVITY>
23.3047

>  <SCORE.RESTR.norm>
0.582618

>  <SCORE.SYSTEM>
0

>  <SCORE.SYSTEM.CONST>
0

>  <SCORE.SYSTEM.DIHEDRAL>
0

>  <SCORE.SYSTEM.SOLV>
0

>  <SCORE.SYSTEM.norm>
0

>  <SCORE.heavy>
40

>  <SCORE.norm>
0.900865

>  <RMSD>
34.628

$$$$
2g5q_lig
 OpenBabel11021811433D
libRbt.so/2013.1/901 2013/11/27
 40 42  0  0  0  0  0  0  0  0999 V2000
   23.7737    5.9702    3.4001 C   0  0  2  0  0  0  0  0  0  0  0  0
   24.1240    7.3311    3.2786 O   0  0  0  0  0  0  0  0  0  0  0  0
   24.9321    5.2158    4.1169 C   0  0  1  0  0  0  0  0  0  0  0  0
   26.2253    5.1727    3.2455 C   0  0  2  0  0  0  0  0  0  0  0  0
   25.8776    4.4539    1.9161 C   0  0  2  0  0  0  0  0  0  0  0  0
   27.0523    4.3734    1.0927 O   0  0  0  0  0  0  0  0  0  0  0  0
   24.7308    5.2719    1.1951 C   0  0  2  0  0  0  0  0  0  0  0  0
   23.5281    5.3471    2.0729 O   0  0  0  0  0  0  0  0  0  0  0  0
   24.2978    4.6430   -0.1250 C   0  0  0  0  0  0  0  0  0  0  0  0
   23.1010    5.3284   -0.7079 N   0  0  0  0  0  0  0  0  0  0  0  0
   24.0599   10.2795    0.0567 C   0  0  2  0  0  0  0  0  0  0  0  0
   24.3176   10.9355   -1.2196 N   0  0  0  0  0  0  0  0  0  0  0  0
   25.4227   10.0231    0.8267 C   0  0  0  0  0  0  0  0  0  0  0  0
   25.1476    9.3188    2.2134 C   0  0  2  0  0  0  0  0  0  0  0  0
   26.4321    9.0943    2.9302 N   0  0  0  0  0  0  0  0  0  0  0  0
   24.3784    7.9596    1.9711 C   0  0  2  0  0  0  0  0  0  0  0  0
   23.0313    8.2545    1.1996 C   0  0  2  0  0  0  0  0  0  0  0  0
   22.3397    7.0218    0.9758 O   0  0  0  0  0  0  0  0  0  0  0  0
   23.3294    8.9427   -0.1869 C   0  0  1  0  0  0  0  0  0  0  0  0
   22.0865    9.2244   -0.8898 O   0  0  0  0  0  0  0  0  0  0  0  0
   20.8555    9.4641   -0.2531 C   0  0  2  0  0  0  0  0  0  0  0  0
   20.1449   10.6255   -1.0273 C   0  0  2  0  0  0  0  0  0  0  0  0
   19.9436   10.2468   -2.3511 O   0  0  0  0  0  0  0  0  0  0  0  0
   20.9794   11.9594   -0.9435 C   0  0  1  0  0  0  0  0  0  0  0  0
   20.3044   13.0795   -1.6785 N   0  0  0  0  0  0  0  0  0  0  0  0
   21.1754   12.3273    0.5808 C   0  0  2  0  0  0  0  0  0  0  0  0
   21.9222   13.5375    0.7212 O   0  0  0  0  0  0  0  0  0  0  0  0
   21.8900   11.1308    1.2952 C   0  0  2  0  0  0  0  0  0  0  0  0
   21.0971    9.8624    1.1451 O   0  0  0  0  0  0  0  0  0  0  0  0
   22.0844   11.3936    2.7604 C   0  0  0  0  0  0  0  0  0  0  0  0
   22.8623   10.3552    3.3780 O   0  0  0  0  0  0  0  0  0  0  0  0
   25.1849    5.8746    5.4053 O   0  0  0  0  0  0  0  0  0  0  0  0
   27.2096    4.4846    3.9201 O   0  0  0  0  0  0  0  0  0  0  0  0
   22.4894   12.0395   -6.0575 N   0  0  0  0  0  0  0  0  0  0  0  0
   24.3605   12.3081   -1.4203 C   0  0  0  0  0  0  0  0  0  0  0  0
   24.1761   13.1348   -0.5337 O   0  0  0  0  0  0  0  0  0  0  0  0
   24.6502   12.6806   -2.8926 C   0  0  1  0  0  0  0  0  0  0  0  0
   23.4565   12.2809   -3.7835 C   0  0  0  0  0  0  0  0  0  0  0  0
   23.6495   12.4882   -5.2902 C   0  0  0  0  0  0  0  0  0  0  0  0
   24.9069   14.1003   -2.9799 O   0  0  0  0  0  0  0  0  0  0  0  0
  1  2  1  6  0  0  0
  1  3  1  0  0  0  0
  1  8  1  0  0  0  0
  3  4  1  0  0  0  0
  3 32  1  1  0  0  0
  4  5  1  0  0  0  0
  4 33  1  1  0  0  0
  5  6  1  6  0  0  0
  5  7  1  0  0  0  0
  7  8  1  0  0  0  0
  7  9  1  6  0  0  0
  9 10  1  0  0  0  0
 11 12  1  6  0  0  0
 11 13  1  0  0  0  0
 11 19  1  0  0  0  0
 12 35  1  0  0  0  0
 13 14  1  0  0  0  0
 14 15  1  6  0  0  0
 14 16  1  0  0  0  0
 16  2  1  1  0  0  0
 16 17  1  0  0  0  0
 17 18  1  6  0  0  0
 17 19  1  0  0  0  0
 19 20  1  1  0  0  0
 21 20  1  6  0  0  0
 21 22  1  0  0  0  0
 21 29  1  0  0  0  0
 22 23  1  6  0  0  0
 22 24  1  0  0  0  0
 24 25  1  6  0  0  0
 24 26  1  0  0  0  0
 26 27  1  6  0  0  0
 26 28  1  0  0  0  0
 28 29  1  0  0  0  0
 28 30  1  1  0  0  0
 30 31  1  0  0  0  0
 34 39  1  0  0  0  0
 35 36  2  0  0  0  0
 37 35  1  1  0  0  0
 37 38  1  0  0  0  0
 37 40  1  0  0  0  0
 38 39  1  0  0  0  0
M  END
>  <CHROM.1>
113.17327297,172.84987287,-90.29130105,-163.27075396,-91.42003372,139.62918118
-173.96828403,67.83907564,-175.27029218,177.97139497,23.53943971,9.17551205
0.45824886,0.96304666,-1.00547955,1.97227624

>  <Name>
2g5q_lig

>  <RI>
224

>  <Rbt.Current_Directory>
/home/itssahil/PROJECTS/Mol_Feturizer/New_Systems/rnas/2g5q

>  <Rbt.Executable>
rbdock ($Id: //depot/dev/client3/rdock/2013.1/src/exe/rbdock.cxx#4 $)

>  <Rbt.Library>
libRbt.so (2013.1, Build901 2013/11/27)

>  <Rbt.Parameter_File>
/export/apps/rDock/src/rDock_2013.1_src/data/scripts/dock_solv.prm

>  <Rbt.Receptor>
prm/blind_docking_100.prm

>  <SCORE>
13.0068

>  <SCORE.INTER>
-15.1554

>  <SCORE.INTER.CONST>
1

>  <SCORE.INTER.POLAR>
-0.854628

>  <SCORE.INTER.ROT>
10

>  <SCORE.INTER.SOLV>
20.3872

>  <SCORE.INTER.VDW>
-24.3172

>  <SCORE.INTER.norm>
-0.378885

>  <SCORE.INTRA>
8.42492

>  <SCORE.INTRA.DIHEDRAL>
-3.07735

>  <SCORE.INTRA.DIHEDRAL.0>
22.5778

>  <SCORE.INTRA.POLAR>
0

>  <SCORE.INTRA.POLAR.0>
0

>  <SCORE.INTRA.REPUL>
0

>  <SCORE.INTRA.REPUL.0>
0

>  <SCORE.INTRA.SOLV>
7.76275

>  <SCORE.INTRA.SOLV.lig_0>
-102.332

>  <SCORE.INTRA.VDW>
6.08222

>  <SCORE.INTRA.VDW.0>
-5.08747

>  <SCORE.INTRA.norm>
0.210623

>  <SCORE.RESTR>
19.7372

>  <SCORE.RESTR.CAVITY>
19.7372

>  <SCORE.RESTR.norm>
0.493431

>  <SCORE.SYSTEM>
0

>  <SCORE.SYSTEM.CONST>
0

>  <SCORE.SYSTEM.DIHEDRAL>
0

>  <SCORE.SYSTEM.SOLV>
0

>  <SCORE.SYSTEM.norm>
0

>  <SCORE.heavy>
40

>  <SCORE.norm>
0.325169

>  <RMSD>
34.663

$$$$
2g5q_lig
 OpenBabel11021811433D
libRbt.so/2013.1/901 2013/11/27
 40 42  0  0  0  0  0  0  0  0999 V2000
   23.9179   12.2346   -2.4705 C   0  0  2  0  0  0  0  0  0  0  0  0
   23.1142   12.3069   -1.3137 O   0  0  0  0  0  0  0  0  0  0  0  0
   24.0919   13.6688   -3.0514 C   0  0  1  0  0  0  0  0  0  0  0  0
   22.7462   14.2456   -3.5900 C   0  0  2  0  0  0  0  0  0  0  0  0
   22.2315   13.2917   -4.6991 C   0  0  2  0  0  0  0  0  0  0  0  0
   21.0014   13.8023   -5.2381 O   0  0  0  0  0  0  0  0  0  0  0  0
   22.0237   11.8578   -4.0629 C   0  0  2  0  0  0  0  0  0  0  0  0
   23.3116   11.3554   -3.5047 O   0  0  0  0  0  0  0  0  0  0  0  0
   21.5290   10.8295   -5.0746 C   0  0  0  0  0  0  0  0  0  0  0  0
   22.5522   10.5415   -6.1290 N   0  0  0  0  0  0  0  0  0  0  0  0
   23.8738    8.6295    0.9172 C   0  0  2  0  0  0  0  0  0  0  0  0
   24.0844    7.7054    2.0251 N   0  0  0  0  0  0  0  0  0  0  0  0
   24.9705    9.7752    0.9423 C   0  0  0  0  0  0  0  0  0  0  0  0
   24.7502   10.7746   -0.2606 C   0  0  2  0  0  0  0  0  0  0  0  0
   25.7914   11.8373   -0.2323 N   0  0  0  0  0  0  0  0  0  0  0  0
   23.2970   11.3902   -0.1755 C   0  0  2  0  0  0  0  0  0  0  0  0
   22.2345   10.2209   -0.1987 C   0  0  2  0  0  0  0  0  0  0  0  0
   20.9199   10.7802   -0.1152 O   0  0  0  0  0  0  0  0  0  0  0  0
   22.4626    9.2447    1.0178 C   0  0  1  0  0  0  0  0  0  0  0  0
   21.4905    8.1619    0.9871 O   0  0  0  0  0  0  0  0  0  0  0  0
   20.5271    7.9363    1.9867 C   0  0  2  0  0  0  0  0  0  0  0  0
   19.1379    7.7967    1.2769 C   0  0  2  0  0  0  0  0  0  0  0  0
   19.1761    6.7281    0.3864 O   0  0  0  0  0  0  0  0  0  0  0  0
   18.7391    9.1307    0.5393 C   0  0  1  0  0  0  0  0  0  0  0  0
   17.4073    9.0085   -0.1401 N   0  0  0  0  0  0  0  0  0  0  0  0
   18.7205   10.2994    1.6029 C   0  0  2  0  0  0  0  0  0  0  0  0
   18.3566   11.5390    0.9919 O   0  0  0  0  0  0  0  0  0  0  0  0
   20.1334   10.3875    2.2725 C   0  0  2  0  0  0  0  0  0  0  0  0
   20.5077    9.0809    2.9149 O   0  0  0  0  0  0  0  0  0  0  0  0
   20.1858   11.4598    3.3219 C   0  0  0  0  0  0  0  0  0  0  0  0
   19.0565   11.3793    4.2069 O   0  0  0  0  0  0  0  0  0  0  0  0
   24.6520   14.5283   -1.9999 O   0  0  0  0  0  0  0  0  0  0  0  0
   22.9605   15.5062   -4.1023 O   0  0  0  0  0  0  0  0  0  0  0  0
   26.2536    7.8943    3.4141 N   0  0  0  0  0  0  0  0  0  0  0  0
   23.7262    6.3646    2.0288 C   0  0  0  0  0  0  0  0  0  0  0  0
   23.1771    5.8010    1.0885 O   0  0  0  0  0  0  0  0  0  0  0  0
   24.0814    5.6625    3.3598 C   0  0  1  0  0  0  0  0  0  0  0  0
   25.6100    5.4972    3.4786 C   0  0  0  0  0  0  0  0  0  0  0  0
   26.3539    6.6466    4.1684 C   0  0  0  0  0  0  0  0  0  0  0  0
   23.5593    6.4416    4.4597 O   0  0  0  0  0  0  0  0  0  0  0  0
  1  2  1  1  0  0  0
  1  3  1  0  0  0  0
  1  8  1  0  0  0  0
  3  4  1  0  0  0  0
  3 32  1  1  0  0  0
  4  5  1  0  0  0  0
  4 33  1  6  0  0  0
  5  6  1  1  0  0  0
  5  7  1  0  0  0  0
  7  8  1  0  0  0  0
  7  9  1  6  0  0  0
  9 10  1  0  0  0  0
 11 12  1  1  0  0  0
 11 13  1  0  0  0  0
 11 19  1  0  0  0  0
 12 35  1  0  0  0  0
 13 14  1  0  0  0  0
 14 15  1  1  0  0  0
 14 16  1  0  0  0  0
 16  2  1  6  0  0  0
 16 17  1  0  0  0  0
 17 18  1  1  0  0  0
 17 19  1  0  0  0  0
 19 20  1  6  0  0  0
 21 20  1  6  0  0  0
 21 22  1  0  0  0  0
 21 29  1  0  0  0  0
 22 23  1  6  0  0  0
 22 24  1  0  0  0  0
 24 25  1  1  0  0  0
 24 26  1  0  0  0  0
 26 27  1  6  0  0  0
 26 28  1  0  0  0  0
 28 29  1  0  0  0  0
 28 30  1  1  0  0  0
 30 31  1  0  0  0  0
 34 39  1  0  0  0  0
 35 36  2  0  0  0  0
 37 35  1  6  0  0  0
 37 38  1  0  0  0  0
 37 40  1  0  0  0  0
 38 39  1  0  0  0  0
M  END
>  <CHROM.1>
-147.50359497,66.28478515,-152.00525013,20.06585851,123.45092612,129.29805427
47.61884220,-70.98744154,90.62281445,-64.27310454,22.28935277,10.06971684
0.02374896,-1.59965311,-0.10943617,2.28374253

>  <Name>
2g5q_lig

>  <RI>
224

>  <Rbt.Current_Directory>
/home/itssahil/PROJECTS/Mol_Feturizer/New_Systems/rnas/2g5q

>  <Rbt.Executable>
rbdock ($Id: //depot/dev/client3/rdock/2013.1/src/exe/rbdock.cxx#4 $)

>  <Rbt.Library>
libRbt.so (2013.1, Build901 2013/11/27)

>  <Rbt.Parameter_File>
/export/apps/rDock/src/rDock_2013.1_src/data/scripts/dock_solv.prm

>  <Rbt.Receptor>
prm/blind_docking_100.prm

>  <SCORE>
35.3729

>  <SCORE.INTER>
0.423199

>  <SCORE.INTER.CONST>
1

>  <SCORE.INTER.POLAR>
-0.947031

>  <SCORE.INTER.ROT>
10

>  <SCORE.INTER.SOLV>
23.3208

>  <SCORE.INTER.VDW>
-14.6014

>  <SCORE.INTER.norm>
0.01058

>  <SCORE.INTRA>
10.8062

>  <SCORE.INTRA.DIHEDRAL>
5.66254

>  <SCORE.INTRA.DIHEDRAL.0>
22.5778

>  <SCORE.INTRA.POLAR>
0

>  <SCORE.INTRA.POLAR.0>
0

>  <SCORE.INTRA.REPUL>
0

>  <SCORE.INTRA.REPUL.0>
0

>  <SCORE.INTRA.SOLV>
9.23437

>  <SCORE.INTRA.SOLV.lig_0>
-102.332

>  <SCORE.INTRA.VDW>
3.35774

>  <SCORE.INTRA.VDW.0>
-5.08747

>  <SCORE.INTRA.norm>
0.270155

>  <SCORE.RESTR>
24.1435

>  <SCORE.RESTR.CAVITY>
24.1435

>  <SCORE.RESTR.norm>
0.603587

>  <SCORE.SYSTEM>
0

>  <SCORE.SYSTEM.CONST>
0

>  <SCORE.SYSTEM.DIHEDRAL>
0

>  <SCORE.SYSTEM.SOLV>
0

>  <SCORE.SYSTEM.norm>
0

>  <SCORE.heavy>
40

>  <SCORE.norm>
0.884322

>  <RMSD>
34.713

$$$$
2g5q_lig
 OpenBabel11021811433D
libRbt.so/2013.1/901 2013/11/27
 40 42  0  0  0  0  0  0  0  0999 V2000
   25.1859   13.4943   -2.2689 C   0  0  2  0  0  0  0  0  0  0  0  0
   24.7117   13.1711   -0.9804 O   0  0  0  0  0  0  0  0  0  0  0  0
   24.7229   14.9373   -2.6269 C   0  0  1  0  0  0  0  0  0  0  0  0
   23.1737   15.0286   -2.7859 C   0  0  2  0  0  0  0  0  0  0  0  0
   22.7543   14.0505   -3.9139 C   0  0  2  0  0  0  0  0  0  0  0  0
   21.3324   14.1225   -4.1072 O   0  0  0  0  0  0  0  0  0  0  0  0
   23.1998   12.5908   -3.4958 C   0  0  2  0  0  0  0  0  0  0  0  0
   24.6763   12.5459   -3.2941 O   0  0  0  0  0  0  0  0  0  0  0  0
   22.8473   11.5427   -4.5459 C   0  0  0  0  0  0  0  0  0  0  0  0
   23.4956   11.8287   -5.8648 N   0  0  0  0  0  0  0  0  0  0  0  0
   22.0216   10.4325    1.1030 C   0  0  2  0  0  0  0  0  0  0  0  0
   21.0844    9.3450    1.3578 N   0  0  0  0  0  0  0  0  0  0  0  0
   21.4074   11.4515    0.0541 C   0  0  0  0  0  0  0  0  0  0  0  0
   22.4166   12.6353   -0.2194 C   0  0  2  0  0  0  0  0  0  0  0  0
   21.8244   13.5893   -1.1957 N   0  0  0  0  0  0  0  0  0  0  0  0
   23.7867   12.0492   -0.7460 C   0  0  2  0  0  0  0  0  0  0  0  0
   24.3642   11.0374    0.3215 C   0  0  2  0  0  0  0  0  0  0  0  0
   25.6015   10.5032   -0.1602 O   0  0  0  0  0  0  0  0  0  0  0  0
   23.3490    9.8568    0.5678 C   0  0  1  0  0  0  0  0  0  0  0  0
   23.8780    8.9331    1.5604 O   0  0  0  0  0  0  0  0  0  0  0  0
   23.0813    8.1298    2.3959 C   0  0  2  0  0  0  0  0  0  0  0  0
   23.9602    7.7132    3.6236 C   0  0  2  0  0  0  0  0  0  0  0  0
   24.3824    8.8529    4.3012 O   0  0  0  0  0  0  0  0  0  0  0  0
   25.1902    6.8380    3.1721 C   0  0  1  0  0  0  0  0  0  0  0  0
   26.0360    6.4300    4.3419 N   0  0  0  0  0  0  0  0  0  0  0  0
   24.6420    5.5685    2.4071 C   0  0  2  0  0  0  0  0  0  0  0  0
   25.7157    4.7290    1.9776 O   0  0  0  0  0  0  0  0  0  0  0  0
   23.7765    6.0516    1.1946 C   0  0  2  0  0  0  0  0  0  0  0  0
   22.6481    6.9318    1.6548 O   0  0  0  0  0  0  0  0  0  0  0  0
   23.1924    4.8971    0.4332 C   0  0  0  0  0  0  0  0  0  0  0  0
   24.2191    4.1196   -0.2041 O   0  0  0  0  0  0  0  0  0  0  0  0
   25.2012   15.8491   -1.5791 O   0  0  0  0  0  0  0  0  0  0  0  0
   22.8222   16.3194   -3.1143 O   0  0  0  0  0  0  0  0  0  0  0  0
   20.5217    5.7411    0.3854 N   0  0  0  0  0  0  0  0  0  0  0  0
   19.7638    9.5022    1.7544 C   0  0  0  0  0  0  0  0  0  0  0  0
   19.2321   10.5905    1.9450 O   0  0  0  0  0  0  0  0  0  0  0  0
   19.0403    8.1494    1.9466 C   0  0  1  0  0  0  0  0  0  0  0  0
   18.7734    7.4936    0.5767 C   0  0  0  0  0  0  0  0  0  0  0  0
   20.0113    6.9906   -0.1749 C   0  0  0  0  0  0  0  0  0  0  0  0
   19.8530    7.2923    2.7798 O   0  0  0  0  0  0  0  0  0  0  0  0
  1  2  1  1  0  0  0
  1  3  1  0  0  0  0
  1  8  1  0  0  0  0
  3  4  1  0  0  0  0
  3 32  1  1  0  0  0
  4  5  1  0  0  0  0
  4 33  1  6  0  0  0
  5  6  1  1  0  0  0
  5  7  1  0  0  0  0
  7  8  1  0  0  0  0
  7  9  1  6  0  0  0
  9 10  1  0  0  0  0
 11 12  1  6  0  0  0
 11 13  1  0  0  0  0
 11 19  1  0  0  0  0
 12 35  1  0  0  0  0
 13 14  1  0  0  0  0
 14 15  1  6  0  0  0
 14 16  1  0  0  0  0
 16  2  1  1  0  0  0
 16 17  1  0  0  0  0
 17 18  1  6  0  0  0
 17 19  1  0  0  0  0
 19 20  1  1  0  0  0
 21 20  1  6  0  0  0
 21 22  1  0  0  0  0
 21 29  1  0  0  0  0
 22 23  1  6  0  0  0
 22 24  1  0  0  0  0
 24 25  1  1  0  0  0
 24 26  1  0  0  0  0
 26 27  1  6  0  0  0
 26 28  1  0  0  0  0
 28 29  1  0  0  0  0
 28 30  1  1  0  0  0
 30 31  1  0  0  0  0
 34 39  1  0  0  0  0
 35 36  2  0  0  0  0
 37 35  1  6  0  0  0
 37 38  1  0  0  0  0
 37 40  1  0  0  0  0
 38 39  1  0  0  0  0
M  END
>  <CHROM.1>
118.64837298,59.62334708,-53.87322618,-115.28768163,33.37067344,-159.42889730
-65.93408228,-72.00871607,69.15727639,76.10597478,22.96612673,10.03338601
-0.03979422,-1.52388646,0.04432745,2.55383226

>  <Name>
2g5q_lig

>  <RI>
224

>  <Rbt.Current_Directory>
/home/itssahil/PROJECTS/Mol_Feturizer/New_Systems/rnas/2g5q

>  <Rbt.Executable>
rbdock ($Id: //depot/dev/client3/rdock/2013.1/src/exe/rbdock.cxx#4 $)

>  <Rbt.Library>
libRbt.so (2013.1, Build901 2013/11/27)

>  <Rbt.Parameter_File>
/export/apps/rDock/src/rDock_2013.1_src/data/scripts/dock_solv.prm

>  <Rbt.Receptor>
prm/blind_docking_100.prm

>  <SCORE>
40.6432

>  <SCORE.INTER>
9.40539

>  <SCORE.INTER.CONST>
1

>  <SCORE.INTER.POLAR>
-1.06302

>  <SCORE.INTER.ROT>
10

>  <SCORE.INTER.SOLV>
18.6782

>  <SCORE.INTER.VDW>
-6.67907

>  <SCORE.INTER.norm>
0.235135

>  <SCORE.INTRA>
10.2042

>  <SCORE.INTRA.DIHEDRAL>
-1.10746

>  <SCORE.INTRA.DIHEDRAL.0>
22.5778

>  <SCORE.INTRA.POLAR>
0

>  <SCORE.INTRA.POLAR.0>
0

>  <SCORE.INTRA.REPUL>
0

>  <SCORE.INTRA.REPUL.0>
0

>  <SCORE.INTRA.SOLV>
13.1349

>  <SCORE.INTRA.SOLV.lig_0>
-102.332

>  <SCORE.INTRA.VDW>
4.19046

>  <SCORE.INTRA.VDW.0>
-5.08747

>  <SCORE.INTRA.norm>
0.255105

>  <SCORE.RESTR>
21.0336

>  <SCORE.RESTR.CAVITY>
21.0336

>  <SCORE.RESTR.norm>
0.52584

>  <SCORE.SYSTEM>
0

>  <SCORE.SYSTEM.CONST>
0

>  <SCORE.SYSTEM.DIHEDRAL>
0

>  <SCORE.SYSTEM.SOLV>
0

>  <SCORE.SYSTEM.norm>
0

>  <SCORE.heavy>
40

>  <SCORE.norm>
1.01608

>  <RMSD>
34.813

$$$$
2g5q_lig
 OpenBabel11021811433D
libRbt.so/2013.1/901 2013/11/27
 40 42  0  0  0  0  0  0  0  0999 V2000
   24.9996   13.5901   -2.0396 C   0  0  2  0  0  0  0  0  0  0  0  0
   24.1818   13.6249   -0.8909 O   0  0  0  0  0  0  0  0  0  0  0  0
   24.9095   14.9668   -2.7618 C   0  0  1  0  0  0  0  0  0  0  0  0
   23.4866   15.2247   -3.3471 C   0  0  2  0  0  0  0  0  0  0  0  0
   23.1738   14.0860   -4.3523 C   0  0  2  0  0  0  0  0  0  0  0  0
   21.8769   14.3009   -4.9322 O   0  0  0  0  0  0  0  0  0  0  0  0
   23.2299   12.7088   -3.5750 C   0  0  2  0  0  0  0  0  0  0  0  0
   24.5818   12.5147   -2.9772 O   0  0  0  0  0  0  0  0  0  0  0  0
   22.9493   11.5108   -4.4759 C   0  0  0  0  0  0  0  0  0  0  0  0
   23.7169   11.5814   -5.7595 N   0  0  0  0  0  0  0  0  0  0  0  0
   21.2601   11.0138    1.0388 C   0  0  2  0  0  0  0  0  0  0  0  0
   20.1135   10.1360    1.2398 N   0  0  0  0  0  0  0  0  0  0  0  0
   20.7811   12.4287    0.5053 C   0  0  0  0  0  0  0  0  0  0  0  0
   22.0197   13.3853    0.2930 C   0  0  2  0  0  0  0  0  0  0  0  0
   21.5562   14.7118   -0.1965 N   0  0  0  0  0  0  0  0  0  0  0  0
   23.0327   12.7194   -0.7211 C   0  0  2  0  0  0  0  0  0  0  0  0
   23.4830   11.3131   -0.1586 C   0  0  2  0  0  0  0  0  0  0  0  0
   24.3951   10.7094   -1.0814 O   0  0  0  0  0  0  0  0  0  0  0  0
   22.2345   10.3697    0.0310 C   0  0  1  0  0  0  0  0  0  0  0  0
   22.6507    9.0796    0.5607 O   0  0  0  0  0  0  0  0  0  0  0  0
   23.8551    8.4374    0.2215 C   0  0  2  0  0  0  0  0  0  0  0  0
   23.5320    6.9213   -0.0024 C   0  0  2  0  0  0  0  0  0  0  0  0
   22.6034    6.7908   -1.0306 O   0  0  0  0  0  0  0  0  0  0  0  0
   23.0042    6.2503    1.3219 C   0  0  1  0  0  0  0  0  0  0  0  0
   22.6961    4.7963    1.1188 N   0  0  0  0  0  0  0  0  0  0  0  0
   24.0999    6.4394    2.4449 C   0  0  2  0  0  0  0  0  0  0  0  0
   23.6793    5.8423    3.6732 O   0  0  0  0  0  0  0  0  0  0  0  0
   24.3752    7.9710    2.6209 C   0  0  2  0  0  0  0  0  0  0  0  0
   24.8194    8.5910    1.3255 O   0  0  0  0  0  0  0  0  0  0  0  0
   25.4328    8.2309    3.6541 C   0  0  0  0  0  0  0  0  0  0  0  0
   25.0729    7.6624    4.9238 O   0  0  0  0  0  0  0  0  0  0  0  0
   25.2853   16.0159   -1.8047 O   0  0  0  0  0  0  0  0  0  0  0  0
   23.4677   16.4460   -3.9839 O   0  0  0  0  0  0  0  0  0  0  0  0
   19.0934    7.0365   -0.8439 N   0  0  0  0  0  0  0  0  0  0  0  0
   20.1426    8.9214    1.9107 C   0  0  0  0  0  0  0  0  0  0  0  0
   21.1536    8.4405    2.4105 O   0  0  0  0  0  0  0  0  0  0  0  0
   18.7591    8.2320    1.9434 C   0  0  1  0  0  0  0  0  0  0  0  0
   17.9471    8.6169    0.6901 C   0  0  0  0  0  0  0  0  0  0  0  0
   18.6591    8.4188   -0.6531 C   0  0  0  0  0  0  0  0  0  0  0  0
   18.9454    6.8006    2.0183 O   0  0  0  0  0  0  0  0  0  0  0  0
  1  2  1  1  0  0  0
  1  3  1  0  0  0  0
  1  8  1  0  0  0  0
  3  4  1  0  0  0  0
  3 32  1  1  0  0  0
  4  5  1  0  0  0  0
  4 33  1  6  0  0  0
  5  6  1  1  0  0  0
  5  7  1  0  0  0  0
  7  8  1  0  0  0  0
  7  9  1  6  0  0  0
  9 10  1  0  0  0  0
 11 12  1  6  0  0  0
 11 13  1  0  0  0  0
 11 19  1  0  0  0  0
 12 35  1  0  0  0  0
 13 14  1  0  0  0  0
 14 15  1  6  0  0  0
 14 16  1  0  0  0  0
 16  2  1  1  0  0  0
 16 17  1  0  0  0  0
 17 18  1  6  0  0  0
 17 19  1  0  0  0  0
 19 20  1  1  0  0  0
 21 20  1  1  0  0  0
 21 22  1  0  0  0  0
 21 29  1  0  0  0  0
 22 23  1  6  0  0  0
 22 24  1  0  0  0  0
 24 25  1  6  0  0  0
 24 26  1  0  0  0  0
 26 27  1  1  0  0  0
 26 28  1  0  0  0  0
 28 29  1  0  0  0  0
 28 30  1  1  0  0  0
 30 31  1  0  0  0  0
 34 39  1  0  0  0  0
 35 36  2  0  0  0  0
 37 35  1  6  0  0  0
 37 38  1  0  0  0  0
 37 40  1  0  0  0  0
 38 39  1  0  0  0  0
M  END
>  <CHROM.1>
118.32931578,46.42677609,-168.14500328,-156.45719421,-155.19818389,-137.15159224
-57.40413561,29.84983247,51.57529392,57.42089092,22.65691832,10.41884646
-0.28758805,-1.40244973,0.26357206,2.47174280

>  <Name>
2g5q_lig

>  <RI>
224

>  <Rbt.Current_Directory>
/home/itssahil/PROJECTS/Mol_Feturizer/New_Systems/rnas/2g5q

>  <Rbt.Executable>
rbdock ($Id: //depot/dev/client3/rdock/2013.1/src/exe/rbdock.cxx#4 $)

>  <Rbt.Library>
libRbt.so (2013.1, Build901 2013/11/27)

>  <Rbt.Parameter_File>
/export/apps/rDock/src/rDock_2013.1_src/data/scripts/dock_solv.prm

>  <Rbt.Receptor>
prm/blind_docking_100.prm

>  <SCORE>
38.3908

>  <SCORE.INTER>
4.22841

>  <SCORE.INTER.CONST>
1

>  <SCORE.INTER.POLAR>
-0.838466

>  <SCORE.INTER.ROT>
10

>  <SCORE.INTER.SOLV>
18.9508

>  <SCORE.INTER.VDW>
-10.9698

>  <SCORE.INTER.norm>
0.10571

>  <SCORE.INTRA>
5.3732

>  <SCORE.INTRA.DIHEDRAL>
-1.8493

>  <SCORE.INTRA.DIHEDRAL.0>
22.5778

>  <SCORE.INTRA.POLAR>
0

>  <SCORE.INTRA.POLAR.0>
0

>  <SCORE.INTRA.REPUL>
0

>  <SCORE.INTRA.REPUL.0>
0

>  <SCORE.INTRA.SOLV>
7.15419

>  <SCORE.INTRA.SOLV.lig_0>
-102.332

>  <SCORE.INTRA.VDW>
2.72075

>  <SCORE.INTRA.VDW.0>
-5.08747

>  <SCORE.INTRA.norm>
0.13433

>  <SCORE.RESTR>
28.7892

>  <SCORE.RESTR.CAVITY>
28.7892

>  <SCORE.RESTR.norm>
0.719731

>  <SCORE.SYSTEM>
0

>  <SCORE.SYSTEM.CONST>
0

>  <SCORE.SYSTEM.DIHEDRAL>
0

>  <SCORE.SYSTEM.SOLV>
0

>  <SCORE.SYSTEM.norm>
0

>  <SCORE.heavy>
40

>  <SCORE.norm>
0.959771

>  <RMSD>
34.913

$$$$
2g5q_lig
 OpenBabel11021811433D
libRbt.so/2013.1/901 2013/11/27
 40 42  0  0  0  0  0  0  0  0999 V2000
   22.2643   13.2849   -2.0811 C   0  0  2  0  0  0  0  0  0  0  0  0
   23.0996   13.0624   -0.9665 O   0  0  0  0  0  0  0  0  0  0  0  0
   22.8192   12.4798   -3.2930 C   0  0  1  0  0  0  0  0  0  0  0  0
   24.2005   13.0253   -3.7705 C   0  0  2  0  0  0  0  0  0  0  0  0
   24.0101   14.5107   -4.1732 C   0  0  2  0  0  0  0  0  0  0  0  0
   25.2590   15.0445   -4.6421 O   0  0  0  0  0  0  0  0  0  0  0  0
   23.4896   15.3051   -2.9075 C   0  0  2  0  0  0  0  0  0  0  0  0
   22.1985   14.7267   -2.4372 O   0  0  0  0  0  0  0  0  0  0  0  0
   23.2531   16.7840   -3.1951 C   0  0  0  0  0  0  0  0  0  0  0  0
   23.4556   17.6323   -1.9781 N   0  0  0  0  0  0  0  0  0  0  0  0
   23.2518    8.7407   -0.3522 C   0  0  2  0  0  0  0  0  0  0  0  0
   23.3296    7.4416    0.3051 N   0  0  0  0  0  0  0  0  0  0  0  0
   24.5406    9.6028   -0.0178 C   0  0  0  0  0  0  0  0  0  0  0  0
   24.4638   11.0085   -0.7338 C   0  0  2  0  0  0  0  0  0  0  0  0
   25.6828   11.8024   -0.4214 N   0  0  0  0  0  0  0  0  0  0  0  0
   23.1526   11.7627   -0.2757 C   0  0  2  0  0  0  0  0  0  0  0  0
   21.8931   10.8730   -0.6207 C   0  0  2  0  0  0  0  0  0  0  0  0
   20.7077   11.5551   -0.1993 O   0  0  0  0  0  0  0  0  0  0  0  0
   21.9824    9.4821    0.1157 C   0  0  1  0  0  0  0  0  0  0  0  0
   20.8274    8.6600   -0.2136 O   0  0  0  0  0  0  0  0  0  0  0  0
   20.0848    7.9268    0.7293 C   0  0  2  0  0  0  0  0  0  0  0  0
   19.0439    8.9056    1.3709 C   0  0  2  0  0  0  0  0  0  0  0  0
   18.2089    9.4114    0.3793 O   0  0  0  0  0  0  0  0  0  0  0  0
   19.7635   10.0709    2.1500 C   0  0  1  0  0  0  0  0  0  0  0  0
   18.7744   11.0116    2.7722 N   0  0  0  0  0  0  0  0  0  0  0  0
   20.6963    9.4289    3.2523 C   0  0  2  0  0  0  0  0  0  0  0  0
   21.3731   10.4413    4.0001 O   0  0  0  0  0  0  0  0  0  0  0  0
   21.7112    8.4662    2.5484 C   0  0  2  0  0  0  0  0  0  0  0  0
   20.9917    7.4030    1.7662 O   0  0  0  0  0  0  0  0  0  0  0  0
   22.6158    7.7911    3.5383 C   0  0  0  0  0  0  0  0  0  0  0  0
   21.8930    6.8489    4.3475 O   0  0  0  0  0  0  0  0  0  0  0  0
   22.9152   11.0665   -2.9036 O   0  0  0  0  0  0  0  0  0  0  0  0
   24.6364   12.2875   -4.8489 O   0  0  0  0  0  0  0  0  0  0  0  0
   26.5771    4.8002    2.2175 N   0  0  0  0  0  0  0  0  0  0  0  0
   23.7548    6.2646   -0.2950 C   0  0  0  0  0  0  0  0  0  0  0  0
   24.1108    6.1838   -1.4655 O   0  0  0  0  0  0  0  0  0  0  0  0
   23.7134    5.0601    0.6733 C   0  0  1  0  0  0  0  0  0  0  0  0
   24.1965    5.4905    2.0732 C   0  0  0  0  0  0  0  0  0  0  0  0
   25.2295    4.5708    2.7346 C   0  0  0  0  0  0  0  0  0  0  0  0
   22.3644    4.5438    0.7289 O   0  0  0  0  0  0  0  0  0  0  0  0
  1  2  1  1  0  0  0
  1  3  1  0  0  0  0
  1  8  1  0  0  0  0
  3  4  1  0  0  0  0
  3 32  1  1  0  0  0
  4  5  1  0  0  0  0
  4 33  1  6  0  0  0
  5  6  1  1  0  0  0
  5  7  1  0  0  0  0
  7  8  1  0  0  0  0
  7  9  1  6  0  0  0
  9 10  1  0  0  0  0
 11 12  1  1  0  0  0
 11 13  1  0  0  0  0
 11 19  1  0  0  0  0
 12 35  1  0  0  0  0
 13 14  1  0  0  0  0
 14 15  1  1  0  0  0
 14 16  1  0  0  0  0
 16  2  1  6  0  0  0
 16 17  1  0  0  0  0
 17 18  1  1  0  0  0
 17 19  1  0  0  0  0
 19 20  1  6  0  0  0
 21 20  1  6  0  0  0
 21 22  1  0  0  0  0
 21 29  1  0  0  0  0
 22 23  1  6  0  0  0
 22 24  1  0  0  0  0
 24 25  1  1  0  0  0
 24 26  1  0  0  0  0
 26 27  1  6  0  0  0
 26 28  1  0  0  0  0
 28 29  1  0  0  0  0
 28 30  1  1  0  0  0
 30 31  1  0  0  0  0
 34 39  1  0  0  0  0
 35 36  2  0  0  0  0
 37 35  1  6  0  0  0
 37 38  1  0  0  0  0
 37 40  1  0  0  0  0
 38 39  1  0  0  0  0
M  END
>  <CHROM.1>
-69.93134494,-150.63947083,-97.76927539,102.22214871,105.61510669,83.69523353
68.97161780,-40.11867590,-132.40210325,79.54199119,22.64918029,10.11652922
-0.15864507,1.44631389,0.61184339,-0.49523309

>  <Name>
2g5q_lig

>  <RI>
224

>  <Rbt.Current_Directory>
/home/itssahil/PROJECTS/Mol_Feturizer/New_Systems/rnas/2g5q

>  <Rbt.Executable>
rbdock ($Id: //depot/dev/client3/rdock/2013.1/src/exe/rbdock.cxx#4 $)

>  <Rbt.Library>
libRbt.so (2013.1, Build901 2013/11/27)

>  <Rbt.Parameter_File>
/export/apps/rDock/src/rDock_2013.1_src/data/scripts/dock_solv.prm

>  <Rbt.Receptor>
prm/blind_docking_100.prm

>  <SCORE>
68.2138

>  <SCORE.INTER>
36.3593

>  <SCORE.INTER.CONST>
1

>  <SCORE.INTER.POLAR>
-0.130589

>  <SCORE.INTER.ROT>
10

>  <SCORE.INTER.SOLV>
30.7374

>  <SCORE.INTER.VDW>
4.16239

>  <SCORE.INTER.norm>
0.908984

>  <SCORE.INTRA>
8.90505

>  <SCORE.INTRA.DIHEDRAL>
3.16305

>  <SCORE.INTRA.DIHEDRAL.0>
22.5778

>  <SCORE.INTRA.POLAR>
0

>  <SCORE.INTRA.POLAR.0>
0

>  <SCORE.INTRA.REPUL>
0

>  <SCORE.INTRA.REPUL.0>
0

>  <SCORE.INTRA.SOLV>
4.18392

>  <SCORE.INTRA.SOLV.lig_0>
-102.332

>  <SCORE.INTRA.VDW>
5.23156

>  <SCORE.INTRA.VDW.0>
-5.08747

>  <SCORE.INTRA.norm>
0.222626

>  <SCORE.RESTR>
22.9494

>  <SCORE.RESTR.CAVITY>
22.9494

>  <SCORE.RESTR.norm>
0.573736

>  <SCORE.SYSTEM>
0

>  <SCORE.SYSTEM.CONST>
0

>  <SCORE.SYSTEM.DIHEDRAL>
0

>  <SCORE.SYSTEM.SOLV>
0

>  <SCORE.SYSTEM.norm>
0

>  <SCORE.heavy>
40

>  <SCORE.norm>
1.70535

>  <RMSD>
34.925

$$$$
2g5q_lig
 OpenBabel11021811433D
libRbt.so/2013.1/901 2013/11/27
 40 42  0  0  0  0  0  0  0  0999 V2000
   23.4793   13.7080   -1.0409 C   0  0  2  0  0  0  0  0  0  0  0  0
   22.7908   12.6808   -0.3625 O   0  0  0  0  0  0  0  0  0  0  0  0
   22.4814   14.8634   -1.3478 C   0  0  1  0  0  0  0  0  0  0  0  0
   21.3887   14.4312   -2.3738 C   0  0  2  0  0  0  0  0  0  0  0  0
   22.1073   14.0011   -3.6790 C   0  0  2  0  0  0  0  0  0  0  0  0
   21.1305   13.6165   -4.6600 O   0  0  0  0  0  0  0  0  0  0  0  0
   23.0773   12.7982   -3.3380 C   0  0  2  0  0  0  0  0  0  0  0  0
   24.0743   13.2212   -2.3133 O   0  0  0  0  0  0  0  0  0  0  0  0
   23.8510   12.3010   -4.5544 C   0  0  0  0  0  0  0  0  0  0  0  0
   24.8259   13.3209   -5.0554 N   0  0  0  0  0  0  0  0  0  0  0  0
   23.2601    8.4351    0.5493 C   0  0  2  0  0  0  0  0  0  0  0  0
   23.5807    7.0198    0.4076 N   0  0  0  0  0  0  0  0  0  0  0  0
   22.1881    8.8662   -0.5374 C   0  0  0  0  0  0  0  0  0  0  0  0
   21.8324   10.3972   -0.3829 C   0  0  2  0  0  0  0  0  0  0  0  0
   20.8184   10.7860   -1.4000 N   0  0  0  0  0  0  0  0  0  0  0  0
   23.1485   11.2611   -0.5229 C   0  0  2  0  0  0  0  0  0  0  0  0
   24.1918   10.8007    0.5710 C   0  0  2  0  0  0  0  0  0  0  0  0
   25.3848   11.5798    0.4383 O   0  0  0  0  0  0  0  0  0  0  0  0
   24.5441    9.2750    0.3892 C   0  0  1  0  0  0  0  0  0  0  0  0
   25.4957    8.8507    1.4054 O   0  0  0  0  0  0  0  0  0  0  0  0
   25.3453    9.0991    2.7816 C   0  0  2  0  0  0  0  0  0  0  0  0
   26.3748    8.1926    3.5375 C   0  0  2  0  0  0  0  0  0  0  0  0
   27.6650    8.5090    3.1231 O   0  0  0  0  0  0  0  0  0  0  0  0
   26.0668    6.6650    3.3043 C   0  0  1  0  0  0  0  0  0  0  0  0
   27.0451    5.7881    4.0284 N   0  0  0  0  0  0  0  0  0  0  0  0
   24.5905    6.3767    3.7890 C   0  0  2  0  0  0  0  0  0  0  0  0
   24.2545    4.9995    3.6086 O   0  0  0  0  0  0  0  0  0  0  0  0
   23.6138    7.3099    2.9967 C   0  0  2  0  0  0  0  0  0  0  0  0
   23.9723    8.7565    3.1935 O   0  0  0  0  0  0  0  0  0  0  0  0
   22.1884    7.1158    3.4257 C   0  0  0  0  0  0  0  0  0  0  0  0
   21.2912    7.9049    2.6274 O   0  0  0  0  0  0  0  0  0  0  0  0
   21.8755   15.2987   -0.0823 O   0  0  0  0  0  0  0  0  0  0  0  0
   20.5443   15.4918   -2.6177 O   0  0  0  0  0  0  0  0  0  0  0  0
   22.8816    4.3374   -3.5961 N   0  0  0  0  0  0  0  0  0  0  0  0
   22.6556    5.9852    0.4071 C   0  0  0  0  0  0  0  0  0  0  0  0
   21.4472    6.1485    0.5352 O   0  0  0  0  0  0  0  0  0  0  0  0
   23.3207    4.5990    0.2439 C   0  0  1  0  0  0  0  0  0  0  0  0
   22.9750    4.0063   -1.1372 C   0  0  0  0  0  0  0  0  0  0  0  0
   23.4935    4.7901   -2.3485 C   0  0  0  0  0  0  0  0  0  0  0  0
   24.7506    4.7386    0.4025 O   0  0  0  0  0  0  0  0  0  0  0  0
  1  2  1  6  0  0  0
  1  3  1  0  0  0  0
  1  8  1  0  0  0  0
  3  4  1  0  0  0  0
  3 32  1  1  0  0  0
  4  5  1  0  0  0  0
  4 33  1  6  0  0  0
  5  6  1  6  0  0  0
  5  7  1  0  0  0  0
  7  8  1  0  0  0  0
  7  9  1  6  0  0  0
  9 10  1  0  0  0  0
 11 12  1  6  0  0  0
 11 13  1  0  0  0  0
 11 19  1  0  0  0  0
 12 35  1  0  0  0  0
 13 14  1  0  0  0  0
 14 15  1  6  0  0  0
 14 16  1  0  0  0  0
 16  2  1  1  0  0  0
 16 17  1  0  0  0  0
 17 18  1  6  0  0  0
 17 19  1  0  0  0  0
 19 20  1  1  0  0  0
 21 20  1  6  0  0  0
 21 22  1  0  0  0  0
 21 29  1  0  0  0  0
 22 23  1  6  0  0  0
 22 24  1  0  0  0  0
 24 25  1  1  0  0  0
 24 26  1  0  0  0  0
 26 27  1  6  0  0  0
 26 28  1  0  0  0  0
 28 29  1  0  0  0  0
 28 30  1  1  0  0  0
 30 31  1  0  0  0  0
 34 39  1  0  0  0  0
 35 36  2  0  0  0  0
 37 35  1  6  0  0  0
 37 38  1  0  0  0  0
 37 40  1  0  0  0  0
 38 39  1  0  0  0  0
M  END
>  <CHROM.1>
147.72589965,66.85407899,-54.24748143,-147.71141239,-69.88671838,166.40242389
-175.82852326,-110.59873038,63.40706185,-167.31506523,23.49514456,9.48208018
0.01767247,-2.08396975,1.11535077,3.06888078

>  <Name>
2g5q_lig

>  <RI>
0

>  <Rbt.Current_Directory>
/home/itssahil/PROJECTS/Mol_Feturizer/New_Systems/rnas/2g5q

>  <Rbt.Executable>
rbdock ($Id: //depot/dev/client3/rdock/2013.1/src/exe/rbdock.cxx#4 $)

>  <Rbt.Library>
libRbt.so (2013.1, Build901 2013/11/27)

>  <Rbt.Parameter_File>
/export/apps/rDock/src/rDock_2013.1_src/data/scripts/dock_solv.prm

>  <Rbt.Receptor>
prm/blind_docking_40.prm

>  <SCORE>
16.1097

>  <SCORE.INTER>
1.72892

>  <SCORE.INTER.CONST>
1

>  <SCORE.INTER.POLAR>
-0.042351

>  <SCORE.INTER.ROT>
10

>  <SCORE.INTER.SOLV>
21.5148

>  <SCORE.INTER.VDW>
-16.1445

>  <SCORE.INTER.norm>
0.043223

>  <SCORE.INTRA>
-0.255544

>  <SCORE.INTRA.DIHEDRAL>
-9.92496

>  <SCORE.INTRA.DIHEDRAL.0>
22.5778

>  <SCORE.INTRA.POLAR>
0

>  <SCORE.INTRA.POLAR.0>
0

>  <SCORE.INTRA.REPUL>
0

>  <SCORE.INTRA.REPUL.0>
0

>  <SCORE.INTRA.SOLV>
5.20574

>  <SCORE.INTRA.SOLV.lig_0>
-102.332

>  <SCORE.INTRA.VDW>
2.10406

>  <SCORE.INTRA.VDW.0>
-5.08747

>  <SCORE.INTRA.norm>
-0.00638861

>  <SCORE.RESTR>
14.6363

>  <SCORE.RESTR.CAVITY>
14.6363

>  <SCORE.RESTR.norm>
0.365908

>  <SCORE.SYSTEM>
0

>  <SCORE.SYSTEM.CONST>
0

>  <SCORE.SYSTEM.DIHEDRAL>
0

>  <SCORE.SYSTEM.SOLV>
0

>  <SCORE.SYSTEM.norm>
0

>  <SCORE.heavy>
40

>  <SCORE.norm>
0.402743

>  <RMSD>
35.003

$$$$
2g5q_lig
 OpenBabel11021811433D
libRbt.so/2013.1/901 2013/11/27
 40 42  0  0  0  0  0  0  0  0999 V2000
   25.0037   12.7733   -3.4277 C   0  0  2  0  0  0  0  0  0  0  0  0
   25.1504   12.5394   -2.0445 O   0  0  0  0  0  0  0  0  0  0  0  0
   24.5276   14.2405   -3.6410 C   0  0  1  0  0  0  0  0  0  0  0  0
   23.0874   14.4711   -3.0875 C   0  0  2  0  0  0  0  0  0  0  0  0
   22.1332   13.4992   -3.8290 C   0  0  2  0  0  0  0  0  0  0  0  0
   20.7889   13.6975   -3.3623 O   0  0  0  0  0  0  0  0  0  0  0  0
   22.6202   12.0191   -3.5532 C   0  0  2  0  0  0  0  0  0  0  0  0
   24.0186   11.8429   -4.0392 O   0  0  0  0  0  0  0  0  0  0  0  0
   21.7561   10.9739   -4.2508 C   0  0  0  0  0  0  0  0  0  0  0  0
   21.9863    9.5991   -3.7042 N   0  0  0  0  0  0  0  0  0  0  0  0
   22.7214   11.6007    1.4621 C   0  0  2  0  0  0  0  0  0  0  0  0
   21.6382   11.0925    2.2953 N   0  0  0  0  0  0  0  0  0  0  0  0
   22.1577   12.6360    0.4007 C   0  0  0  0  0  0  0  0  0  0  0  0
   23.3290   13.1945   -0.4995 C   0  0  2  0  0  0  0  0  0  0  0  0
   22.7891   14.1721   -1.4827 N   0  0  0  0  0  0  0  0  0  0  0  0
   24.0569   11.9926   -1.2233 C   0  0  2  0  0  0  0  0  0  0  0  0
   24.5998   10.9826   -0.1361 C   0  0  2  0  0  0  0  0  0  0  0  0
   25.2528    9.8922   -0.7938 O   0  0  0  0  0  0  0  0  0  0  0  0
   23.4137   10.4260    0.7404 C   0  0  1  0  0  0  0  0  0  0  0  0
   23.9180    9.5056    1.7487 O   0  0  0  0  0  0  0  0  0  0  0  0
   23.1084    8.6318    2.4965 C   0  0  2  0  0  0  0  0  0  0  0  0
   24.0039    8.0077    3.6198 C   0  0  2  0  0  0  0  0  0  0  0  0
   24.5062    9.0211    4.4306 O   0  0  0  0  0  0  0  0  0  0  0  0
   25.1718    7.1475    3.0043 C   0  0  1  0  0  0  0  0  0  0  0  0
   26.0328    6.5415    4.0728 N   0  0  0  0  0  0  0  0  0  0  0  0
   24.5342    6.0239    2.0942 C   0  0  2  0  0  0  0  0  0  0  0  0
   25.5486    5.2032    1.5116 O   0  0  0  0  0  0  0  0  0  0  0  0
   23.6559    6.7110    0.9946 C   0  0  2  0  0  0  0  0  0  0  0  0
   22.5900    7.5703    1.6154 O   0  0  0  0  0  0  0  0  0  0  0  0
   22.9885    5.7024    0.1052 C   0  0  0  0  0  0  0  0  0  0  0  0
   22.1148    4.8426    0.8552 O   0  0  0  0  0  0  0  0  0  0  0  0
   25.4928   15.1382   -2.9925 O   0  0  0  0  0  0  0  0  0  0  0  0
   22.7133   15.7773   -3.3139 O   0  0  0  0  0  0  0  0  0  0  0  0
   19.2516   12.3279    1.4242 N   0  0  0  0  0  0  0  0  0  0  0  0
   20.7493   10.0911    1.9304 C   0  0  0  0  0  0  0  0  0  0  0  0
   20.7718    9.5186    0.8465 O   0  0  0  0  0  0  0  0  0  0  0  0
   19.7140    9.7886    3.0382 C   0  0  1  0  0  0  0  0  0  0  0  0
   19.1208   11.1046    3.5809 C   0  0  0  0  0  0  0  0  0  0  0  0
   18.3933   11.9816    2.5552 C   0  0  0  0  0  0  0  0  0  0  0  0
   18.6770    8.9392    2.4975 O   0  0  0  0  0  0  0  0  0  0  0  0
  1  2  1  1  0  0  0
  1  3  1  0  0  0  0
  1  8  1  0  0  0  0
  3  4  1  0  0  0  0
  3 32  1  1  0  0  0
  4  5  1  0  0  0  0
  4 33  1  6  0  0  0
  5  6  1  1  0  0  0
  5  7  1  0  0  0  0
  7  8  1  0  0  0  0
  7  9  1  6  0  0  0
  9 10  1  0  0  0  0
 11 12  1  6  0  0  0
 11 13  1  0  0  0  0
 11 19  1  0  0  0  0
 12 35  1  0  0  0  0
 13 14  1  0  0  0  0
 14 15  1  6  0  0  0
 14 16  1  0  0  0  0
 16  2  1  1  0  0  0
 16 17  1  0  0  0  0
 17 18  1  6  0  0  0
 17 19  1  0  0  0  0
 19 20  1  1  0  0  0
 21 20  1  6  0  0  0
 21 22  1  0  0  0  0
 21 29  1  0  0  0  0
 22 23  1  6  0  0  0
 22 24  1  0  0  0  0
 24 25  1  1  0  0  0
 24 26  1  0  0  0  0
 26 27  1  6  0  0  0
 26 28  1  0  0  0  0
 28 29  1  0  0  0  0
 28 30  1  1  0  0  0
 30 31  1  0  0  0  0
 34 39  1  0  0  0  0
 35 36  2  0  0  0  0
 37 35  1  6  0  0  0
 37 38  1  0  0  0  0
 37 40  1  0  0  0  0
 38 39  1  0  0  0  0
M  END
>  <CHROM.1>
91.99240136,-164.74718294,80.06707429,-97.69912850,74.51201766,-170.57148438
60.77617473,46.95343571,60.01934738,-56.63709502,22.85742615,10.51485638
0.03380714,-1.56914775,-0.55528383,2.42033523

>  <Name>
2g5q_lig

>  <RI>
224

>  <Rbt.Current_Directory>
/home/itssahil/PROJECTS/Mol_Feturizer/New_Systems/rnas/2g5q

>  <Rbt.Executable>
rbdock ($Id: //depot/dev/client3/rdock/2013.1/src/exe/rbdock.cxx#4 $)

>  <Rbt.Library>
libRbt.so (2013.1, Build901 2013/11/27)

>  <Rbt.Parameter_File>
/export/apps/rDock/src/rDock_2013.1_src/data/scripts/dock_solv.prm

>  <Rbt.Receptor>
prm/blind_docking_100.prm

>  <SCORE>
51.0785

>  <SCORE.INTER>
10.1635

>  <SCORE.INTER.CONST>
1

>  <SCORE.INTER.POLAR>
-0.232553

>  <SCORE.INTER.ROT>
10

>  <SCORE.INTER.SOLV>
22.0105

>  <SCORE.INTER.VDW>
-10.0527

>  <SCORE.INTER.norm>
0.254087

>  <SCORE.INTRA>
22.6221

>  <SCORE.INTRA.DIHEDRAL>
-10.033

>  <SCORE.INTRA.DIHEDRAL.0>
22.5778

>  <SCORE.INTRA.POLAR>
0

>  <SCORE.INTRA.POLAR.0>
0

>  <SCORE.INTRA.REPUL>
0

>  <SCORE.INTRA.REPUL.0>
0

>  <SCORE.INTRA.SOLV>
14.7776

>  <SCORE.INTRA.SOLV.lig_0>
-102.332

>  <SCORE.INTRA.VDW>
20.2499

>  <SCORE.INTRA.VDW.0>
-5.08747

>  <SCORE.INTRA.norm>
0.565554

>  <SCORE.RESTR>
18.2928

>  <SCORE.RESTR.CAVITY>
18.2928

>  <SCORE.RESTR.norm>
0.457321

>  <SCORE.SYSTEM>
0

>  <SCORE.SYSTEM.CONST>
0

>  <SCORE.SYSTEM.DIHEDRAL>
0

>  <SCORE.SYSTEM.SOLV>
0

>  <SCORE.SYSTEM.norm>
0

>  <SCORE.heavy>
40

>  <SCORE.norm>
1.27696

>  <RMSD>
35.028

$$$$
2g5q_lig
 OpenBabel11021811433D
libRbt.so/2013.1/901 2013/11/27
 40 42  0  0  0  0  0  0  0  0999 V2000
   23.6790   12.8756   -2.9271 C   0  0  2  0  0  0  0  0  0  0  0  0
   22.6218   12.0414   -2.5078 O   0  0  0  0  0  0  0  0  0  0  0  0
   23.9570   13.9307   -1.8160 C   0  0  1  0  0  0  0  0  0  0  0  0
   22.7666   14.9246   -1.6466 C   0  0  2  0  0  0  0  0  0  0  0  0
   22.5501   15.6410   -3.0049 C   0  0  2  0  0  0  0  0  0  0  0  0
   21.4735   16.5847   -2.8833 O   0  0  0  0  0  0  0  0  0  0  0  0
   22.2262   14.5440   -4.0983 C   0  0  2  0  0  0  0  0  0  0  0  0
   23.3543   13.5744   -4.1985 O   0  0  0  0  0  0  0  0  0  0  0  0
   22.0075   15.1396   -5.4851 C   0  0  0  0  0  0  0  0  0  0  0  0
   21.6783   14.0906   -6.5014 N   0  0  0  0  0  0  0  0  0  0  0  0
   22.4468    8.2105   -0.4171 C   0  0  2  0  0  0  0  0  0  0  0  0
   22.6082    6.7929   -0.1170 N   0  0  0  0  0  0  0  0  0  0  0  0
   21.5864    8.3975   -1.7364 C   0  0  0  0  0  0  0  0  0  0  0  0
   21.4030    9.9322   -2.0612 C   0  0  2  0  0  0  0  0  0  0  0  0
   20.5853   10.0940   -3.2938 N   0  0  0  0  0  0  0  0  0  0  0  0
   22.8215   10.6112   -2.2183 C   0  0  2  0  0  0  0  0  0  0  0  0
   23.6492   10.4006   -0.8889 C   0  0  2  0  0  0  0  0  0  0  0  0
   24.9354   11.0106   -1.0358 O   0  0  0  0  0  0  0  0  0  0  0  0
   23.8336    8.8635   -0.5920 C   0  0  1  0  0  0  0  0  0  0  0  0
   24.5855    8.6724    0.6394 O   0  0  0  0  0  0  0  0  0  0  0  0
   24.5314    9.5444    1.7417 C   0  0  2  0  0  0  0  0  0  0  0  0
   25.1802    8.8028    2.9592 C   0  0  2  0  0  0  0  0  0  0  0  0
   26.4996    8.4798    2.6574 O   0  0  0  0  0  0  0  0  0  0  0  0
   24.3587    7.5146    3.3445 C   0  0  1  0  0  0  0  0  0  0  0  0
   24.9699    6.7996    4.5130 N   0  0  0  0  0  0  0  0  0  0  0  0
   22.8747    7.9507    3.6682 C   0  0  2  0  0  0  0  0  0  0  0  0
   22.0794    6.8209    4.0331 O   0  0  0  0  0  0  0  0  0  0  0  0
   22.2847    8.6819    2.4152 C   0  0  2  0  0  0  0  0  0  0  0  0
   23.1252    9.8702    2.0393 O   0  0  0  0  0  0  0  0  0  0  0  0
   20.8811    9.1560    2.6575 C   0  0  0  0  0  0  0  0  0  0  0  0
   20.2422    9.5439    1.4302 O   0  0  0  0  0  0  0  0  0  0  0  0
   24.2331   13.2182   -0.5613 O   0  0  0  0  0  0  0  0  0  0  0  0
   23.0709   15.8405   -0.6638 O   0  0  0  0  0  0  0  0  0  0  0  0
   21.3913    3.9975   -2.7406 N   0  0  0  0  0  0  0  0  0  0  0  0
   23.2062    5.8603   -0.9530 C   0  0  0  0  0  0  0  0  0  0  0  0
   23.6658    6.1279   -2.0577 O   0  0  0  0  0  0  0  0  0  0  0  0
   23.2132    4.4397   -0.3429 C   0  0  1  0  0  0  0  0  0  0  0  0
   21.7772    3.8798   -0.2908 C   0  0  0  0  0  0  0  0  0  0  0  0
   21.2986    3.1519   -1.5522 C   0  0  0  0  0  0  0  0  0  0  0  0
   24.0707    3.5883   -1.1361 O   0  0  0  0  0  0  0  0  0  0  0  0
  1  2  1  1  0  0  0
  1  3  1  0  0  0  0
  1  8  1  0  0  0  0
  3  4  1  0  0  0  0
  3 32  1  1  0  0  0
  4  5  1  0  0  0  0
  4 33  1  1  0  0  0
  5  6  1  1  0  0  0
  5  7  1  0  0  0  0
  7  8  1  0  0  0  0
  7  9  1  6  0  0  0
  9 10  1  0  0  0  0
 11 12  1  6  0  0  0
 11 13  1  0  0  0  0
 11 19  1  0  0  0  0
 12 35  1  0  0  0  0
 13 14  1  0  0  0  0
 14 15  1  6  0  0  0
 14 16  1  0  0  0  0
 16  2  1  1  0  0  0
 16 17  1  0  0  0  0
 17 18  1  6  0  0  0
 17 19  1  0  0  0  0
 19 20  1  1  0  0  0
 21 20  1  6  0  0  0
 21 22  1  0  0  0  0
 21 29  1  0  0  0  0
 22 23  1  6  0  0  0
 22 24  1  0  0  0  0
 24 25  1  1  0  0  0
 24 26  1  0  0  0  0
 26 27  1  6  0  0  0
 26 28  1  0  0  0  0
 28 29  1  0  0  0  0
 28 30  1  1  0  0  0
 30 31  1  0  0  0  0
 34 39  1  0  0  0  0
 35 36  2  0  0  0  0
 37 35  1  6  0  0  0
 37 38  1  0  0  0  0
 37 40  1  0  0  0  0
 38 39  1  0  0  0  0
M  END
>  <CHROM.1>
-113.68998902,-178.98121051,59.61019073,-168.88387141,-87.31145068,165.89897153
-166.72663506,69.19458442,87.35931916,-56.59043810,22.95373348,9.76485718
-0.63301483,1.75162191,-1.25461030,-0.29140517

>  <Name>
2g5q_lig

>  <RI>
0

>  <Rbt.Current_Directory>
/home/itssahil/PROJECTS/Mol_Feturizer/New_Systems/rnas/2g5q

>  <Rbt.Executable>
rbdock ($Id: //depot/dev/client3/rdock/2013.1/src/exe/rbdock.cxx#4 $)

>  <Rbt.Library>
libRbt.so (2013.1, Build901 2013/11/27)

>  <Rbt.Parameter_File>
/export/apps/rDock/src/rDock_2013.1_src/data/scripts/dock_solv.prm

>  <Rbt.Receptor>
prm/blind_docking_40.prm

>  <SCORE>
22.465

>  <SCORE.INTER>
4.67125

>  <SCORE.INTER.CONST>
1

>  <SCORE.INTER.POLAR>
-0.629

>  <SCORE.INTER.ROT>
10

>  <SCORE.INTER.SOLV>
16.5007

>  <SCORE.INTER.VDW>
-10.5561

>  <SCORE.INTER.norm>
0.116781

>  <SCORE.INTRA>
0.565944

>  <SCORE.INTRA.DIHEDRAL>
-7.14802

>  <SCORE.INTRA.DIHEDRAL.0>
22.5778

>  <SCORE.INTRA.POLAR>
0

>  <SCORE.INTRA.POLAR.0>
0

>  <SCORE.INTRA.REPUL>
0.00679686

>  <SCORE.INTRA.REPUL.0>
0

>  <SCORE.INTRA.SOLV>
4.21535

>  <SCORE.INTRA.SOLV.lig_0>
-102.332

>  <SCORE.INTRA.VDW>
1.9983

>  <SCORE.INTRA.VDW.0>
-5.08747

>  <SCORE.INTRA.norm>
0.0141486

>  <SCORE.RESTR>
17.2278

>  <SCORE.RESTR.CAVITY>
17.2278

>  <SCORE.RESTR.norm>
0.430696

>  <SCORE.SYSTEM>
0

>  <SCORE.SYSTEM.CONST>
0

>  <SCORE.SYSTEM.DIHEDRAL>
0

>  <SCORE.SYSTEM.SOLV>
0

>  <SCORE.SYSTEM.norm>
0

>  <SCORE.heavy>
40

>  <SCORE.norm>
0.561626

>  <RMSD>
35.094

$$$$
2g5q_lig
 OpenBabel11021811433D
libRbt.so/2013.1/901 2013/11/27
 40 42  0  0  0  0  0  0  0  0999 V2000
   24.5830   12.8867   -2.6917 C   0  0  2  0  0  0  0  0  0  0  0  0
   23.8826   12.3809   -1.5768 O   0  0  0  0  0  0  0  0  0  0  0  0
   24.3225   14.4185   -2.7955 C   0  0  1  0  0  0  0  0  0  0  0  0
   22.8338   14.7335   -3.1391 C   0  0  2  0  0  0  0  0  0  0  0  0
   22.5062   14.0548   -4.4945 C   0  0  2  0  0  0  0  0  0  0  0  0
   21.1461   14.3417   -4.8583 O   0  0  0  0  0  0  0  0  0  0  0  0
   22.7384   12.4973   -4.3384 C   0  0  2  0  0  0  0  0  0  0  0  0
   24.1534   12.2283   -3.9534 O   0  0  0  0  0  0  0  0  0  0  0  0
   22.4575   11.7270   -5.6242 C   0  0  0  0  0  0  0  0  0  0  0  0
   23.4886   11.9949   -6.6762 N   0  0  0  0  0  0  0  0  0  0  0  0
   22.8186    8.6390    0.4091 C   0  0  2  0  0  0  0  0  0  0  0  0
   22.7083    7.2154    0.7039 N   0  0  0  0  0  0  0  0  0  0  0  0
   22.1804    8.9569   -1.0078 C   0  0  0  0  0  0  0  0  0  0  0  0
   22.2914   10.4995   -1.3281 C   0  0  2  0  0  0  0  0  0  0  0  0
   21.6795   10.7860   -2.6538 N   0  0  0  0  0  0  0  0  0  0  0  0
   23.8091   10.9386   -1.2877 C   0  0  2  0  0  0  0  0  0  0  0  0
   24.4101   10.6028    0.1346 C   0  0  2  0  0  0  0  0  0  0  0  0
   25.7859   10.9954    0.1667 O   0  0  0  0  0  0  0  0  0  0  0  0
   24.3034    9.0575    0.4273 C   0  0  1  0  0  0  0  0  0  0  0  0
   24.8464    8.7528    1.7428 O   0  0  0  0  0  0  0  0  0  0  0  0
   24.4514    9.3967    2.9292 C   0  0  2  0  0  0  0  0  0  0  0  0
   23.8026    8.3145    3.8571 C   0  0  2  0  0  0  0  0  0  0  0  0
   24.7341    7.3175    4.1303 O   0  0  0  0  0  0  0  0  0  0  0  0
   22.5040    7.7081    3.2024 C   0  0  1  0  0  0  0  0  0  0  0  0
   21.8723    6.6734    4.0860 N   0  0  0  0  0  0  0  0  0  0  0  0
   21.4953    8.8900    2.9141 C   0  0  2  0  0  0  0  0  0  0  0  0
   20.2898    8.3989    2.3242 O   0  0  0  0  0  0  0  0  0  0  0  0
   22.2013    9.9329    1.9833 C   0  0  2  0  0  0  0  0  0  0  0  0
   23.4667   10.4463    2.6118 O   0  0  0  0  0  0  0  0  0  0  0  0
   21.3127   11.1064    1.6882 C   0  0  0  0  0  0  0  0  0  0  0  0
   20.7297   11.6348    2.8907 O   0  0  0  0  0  0  0  0  0  0  0  0
   24.7143   15.0408   -1.5238 O   0  0  0  0  0  0  0  0  0  0  0  0
   22.6637   16.0973   -3.2315 O   0  0  0  0  0  0  0  0  0  0  0  0
   23.5895    5.8396   -1.8554 N   0  0  0  0  0  0  0  0  0  0  0  0
   23.7774    6.3561    0.9156 C   0  0  0  0  0  0  0  0  0  0  0  0
   24.9526    6.7028    0.8700 O   0  0  0  0  0  0  0  0  0  0  0  0
   23.3219    4.9060    1.1989 C   0  0  1  0  0  0  0  0  0  0  0  0
   23.2897    4.0963   -0.1131 C   0  0  0  0  0  0  0  0  0  0  0  0
   22.6903    4.8159   -1.3269 C   0  0  0  0  0  0  0  0  0  0  0  0
   24.2244    4.3048    2.1546 O   0  0  0  0  0  0  0  0  0  0  0  0
  1  2  1  1  0  0  0
  1  3  1  0  0  0  0
  1  8  1  0  0  0  0
  3  4  1  0  0  0  0
  3 32  1  1  0  0  0
  4  5  1  0  0  0  0
  4 33  1  6  0  0  0
  5  6  1  1  0  0  0
  5  7  1  0  0  0  0
  7  8  1  0  0  0  0
  7  9  1  6  0  0  0
  9 10  1  0  0  0  0
 11 12  1  6  0  0  0
 11 13  1  0  0  0  0
 11 19  1  0  0  0  0
 12 35  1  0  0  0  0
 13 14  1  0  0  0  0
 14 15  1  6  0  0  0
 14 16  1  0  0  0  0
 16  2  1  1  0  0  0
 16 17  1  0  0  0  0
 17 18  1  6  0  0  0
 17 19  1  0  0  0  0
 19 20  1  1  0  0  0
 21 20  1  6  0  0  0
 21 22  1  0  0  0  0
 21 29  1  0  0  0  0
 22 23  1  6  0  0  0
 22 24  1  0  0  0  0
 24 25  1  1  0  0  0
 24 26  1  0  0  0  0
 26 27  1  6  0  0  0
 26 28  1  0  0  0  0
 28 29  1  0  0  0  0
 28 30  1  1  0  0  0
 30 31  1  0  0  0  0
 34 39  1  0  0  0  0
 35 36  2  0  0  0  0
 37 35  1  6  0  0  0
 37 38  1  0  0  0  0
 37 40  1  0  0  0  0
 38 39  1  0  0  0  0
M  END
>  <CHROM.1>
173.42305239,70.20004437,118.93206188,-118.92980269,-66.60768850,116.90919263
48.81508466,93.19861831,-42.92540067,73.57955314,23.18581504,9.92349501,-0.31570660
-1.80879620,-1.48976860,2.19848046

>  <Name>
2g5q_lig

>  <RI>
224

>  <Rbt.Current_Directory>
/home/itssahil/PROJECTS/Mol_Feturizer/New_Systems/rnas/2g5q

>  <Rbt.Executable>
rbdock ($Id: //depot/dev/client3/rdock/2013.1/src/exe/rbdock.cxx#4 $)

>  <Rbt.Library>
libRbt.so (2013.1, Build901 2013/11/27)

>  <Rbt.Parameter_File>
/export/apps/rDock/src/rDock_2013.1_src/data/scripts/dock_solv.prm

>  <Rbt.Receptor>
prm/blind_docking_100.prm

>  <SCORE>
88.9166

>  <SCORE.INTER>
39.4291

>  <SCORE.INTER.CONST>
1

>  <SCORE.INTER.POLAR>
0

>  <SCORE.INTER.ROT>
10

>  <SCORE.INTER.SOLV>
26.089

>  <SCORE.INTER.VDW>
7.32309

>  <SCORE.INTER.norm>
0.985728

>  <SCORE.INTRA>
31.746

>  <SCORE.INTRA.DIHEDRAL>
-2.38081

>  <SCORE.INTRA.DIHEDRAL.0>
22.5778

>  <SCORE.INTRA.POLAR>
0

>  <SCORE.INTRA.POLAR.0>
0

>  <SCORE.INTRA.REPUL>
0

>  <SCORE.INTRA.REPUL.0>
0

>  <SCORE.INTRA.SOLV>
15.3774

>  <SCORE.INTRA.SOLV.lig_0>
-102.332

>  <SCORE.INTRA.VDW>
25.2477

>  <SCORE.INTRA.VDW.0>
-5.08747

>  <SCORE.INTRA.norm>
0.79365

>  <SCORE.RESTR>
17.7414

>  <SCORE.RESTR.CAVITY>
17.7414

>  <SCORE.RESTR.norm>
0.443536

>  <SCORE.SYSTEM>
0

>  <SCORE.SYSTEM.CONST>
0

>  <SCORE.SYSTEM.DIHEDRAL>
0

>  <SCORE.SYSTEM.SOLV>
0

>  <SCORE.SYSTEM.norm>
0

>  <SCORE.heavy>
40

>  <SCORE.norm>
2.22291

>  <RMSD>
35.233

$$$$
2g5q_lig
 OpenBabel11021811433D
libRbt.so/2013.1/901 2013/11/27
 40 42  0  0  0  0  0  0  0  0999 V2000
   22.1270   13.3639   -2.5432 C   0  0  2  0  0  0  0  0  0  0  0  0
   22.3912   12.6004   -1.3870 O   0  0  0  0  0  0  0  0  0  0  0  0
   23.0073   12.8281   -3.7106 C   0  0  1  0  0  0  0  0  0  0  0  0
   24.5258   13.0812   -3.4578 C   0  0  2  0  0  0  0  0  0  0  0  0
   24.7329   14.6106   -3.3067 C   0  0  2  0  0  0  0  0  0  0  0  0
   26.1268   14.8873   -3.0948 O   0  0  0  0  0  0  0  0  0  0  0  0
   23.8600   15.1112   -2.0854 C   0  0  2  0  0  0  0  0  0  0  0  0
   22.4210   14.8051   -2.3270 O   0  0  0  0  0  0  0  0  0  0  0  0
   23.9775   16.6138   -1.8527 C   0  0  0  0  0  0  0  0  0  0  0  0
   23.2114   17.4013   -2.8699 N   0  0  0  0  0  0  0  0  0  0  0  0
   23.0268    8.4083   -0.3383 C   0  0  2  0  0  0  0  0  0  0  0  0
   23.4761    7.0226   -0.3998 N   0  0  0  0  0  0  0  0  0  0  0  0
   22.1261    8.7494   -1.5986 C   0  0  0  0  0  0  0  0  0  0  0  0
   21.6311   10.2478   -1.5323 C   0  0  2  0  0  0  0  0  0  0  0  0
   20.7788   10.5515   -2.7136 N   0  0  0  0  0  0  0  0  0  0  0  0
   22.8805   11.2132   -1.4606 C   0  0  2  0  0  0  0  0  0  0  0  0
   23.7539   10.8406   -0.1976 C   0  0  2  0  0  0  0  0  0  0  0  0
   24.8878   11.7118   -0.1382 O   0  0  0  0  0  0  0  0  0  0  0  0
   24.2499    9.3473   -0.2915 C   0  0  1  0  0  0  0  0  0  0  0  0
   25.0438    9.0030    0.8788 O   0  0  0  0  0  0  0  0  0  0  0  0
   24.9642    9.6734    2.1127 C   0  0  2  0  0  0  0  0  0  0  0  0
   25.4494    8.6777    3.2201 C   0  0  2  0  0  0  0  0  0  0  0  0
   26.7609    8.2936    2.9576 O   0  0  0  0  0  0  0  0  0  0  0  0
   24.5020    7.4221    3.3111 C   0  0  1  0  0  0  0  0  0  0  0  0
   24.9559    6.4642    4.3726 N   0  0  0  0  0  0  0  0  0  0  0  0
   23.0338    7.9282    3.6038 C   0  0  2  0  0  0  0  0  0  0  0  0
   22.1263    6.8290    3.7050 O   0  0  0  0  0  0  0  0  0  0  0  0
   22.6092    8.9145    2.4638 C   0  0  2  0  0  0  0  0  0  0  0  0
   23.5671   10.0688    2.3655 O   0  0  0  0  0  0  0  0  0  0  0  0
   21.2308    9.4647    2.6891 C   0  0  0  0  0  0  0  0  0  0  0  0
   20.7222   10.0992    1.5043 O   0  0  0  0  0  0  0  0  0  0  0  0
   22.7311   11.3949   -3.8773 O   0  0  0  0  0  0  0  0  0  0  0  0
   25.2539   12.6010   -4.5239 O   0  0  0  0  0  0  0  0  0  0  0  0
   24.2881    4.6883    2.7990 N   0  0  0  0  0  0  0  0  0  0  0  0
   22.9338    5.9719    0.3267 C   0  0  0  0  0  0  0  0  0  0  0  0
   22.0066    6.0955    1.1194 O   0  0  0  0  0  0  0  0  0  0  0  0
   23.6414    4.6278    0.0382 C   0  0  1  0  0  0  0  0  0  0  0  0
   25.1223    4.7088    0.4606 C   0  0  0  0  0  0  0  0  0  0  0  0
   25.4175    4.3723    1.9269 C   0  0  0  0  0  0  0  0  0  0  0  0
   22.9586    3.5712    0.7501 O   0  0  0  0  0  0  0  0  0  0  0  0
  1  2  1  1  0  0  0
  1  3  1  0  0  0  0
  1  8  1  0  0  0  0
  3  4  1  0  0  0  0
  3 32  1  1  0  0  0
  4  5  1  0  0  0  0
  4 33  1  6  0  0  0
  5  6  1  1  0  0  0
  5  7  1  0  0  0  0
  7  8  1  0  0  0  0
  7  9  1  6  0  0  0
  9 10  1  0  0  0  0
 11 12  1  6  0  0  0
 11 13  1  0  0  0  0
 11 19  1  0  0  0  0
 12 35  1  0  0  0  0
 13 14  1  0  0  0  0
 14 15  1  6  0  0  0
 14 16  1  0  0  0  0
 16  2  1  1  0  0  0
 16 17  1  0  0  0  0
 17 18  1  6  0  0  0
 17 19  1  0  0  0  0
 19 20  1  1  0  0  0
 21 20  1  6  0  0  0
 21 22  1  0  0  0  0
 21 29  1  0  0  0  0
 22 23  1  6  0  0  0
 22 24  1  0  0  0  0
 24 25  1  1  0  0  0
 24 26  1  0  0  0  0
 26 27  1  6  0  0  0
 26 28  1  0  0  0  0
 28 29  1  0  0  0  0
 28 30  1  1  0  0  0
 30 31  1  0  0  0  0
 34 39  1  0  0  0  0
 35 36  2  0  0  0  0
 37 35  1  1  0  0  0
 37 38  1  0  0  0  0
 37 40  1  0  0  0  0
 38 39  1  0  0  0  0
M  END
>  <CHROM.1>
-26.05390104,75.02376541,-101.84877239,-88.43692022,-97.02335991,155.72444002
-165.98321617,62.38929242,86.69446846,-28.96673411,23.56564907,9.86856946
-0.07750448,1.62228312,-1.14131071,-0.50009775

>  <Name>
2g5q_lig

>  <RI>
224

>  <Rbt.Current_Directory>
/home/itssahil/PROJECTS/Mol_Feturizer/New_Systems/rnas/2g5q

>  <Rbt.Executable>
rbdock ($Id: //depot/dev/client3/rdock/2013.1/src/exe/rbdock.cxx#4 $)

>  <Rbt.Library>
libRbt.so (2013.1, Build901 2013/11/27)

>  <Rbt.Parameter_File>
/export/apps/rDock/src/rDock_2013.1_src/data/scripts/dock_solv.prm

>  <Rbt.Receptor>
prm/blind_docking_100.prm

>  <SCORE>
33.5773

>  <SCORE.INTER>
3.24117

>  <SCORE.INTER.CONST>
1

>  <SCORE.INTER.POLAR>
-0.311073

>  <SCORE.INTER.ROT>
10

>  <SCORE.INTER.SOLV>
24.619

>  <SCORE.INTER.VDW>
-15.2753

>  <SCORE.INTER.norm>
0.0810293

>  <SCORE.INTRA>
13.8578

>  <SCORE.INTRA.DIHEDRAL>
0.771341

>  <SCORE.INTRA.DIHEDRAL.0>
22.5778

>  <SCORE.INTRA.POLAR>
0

>  <SCORE.INTRA.POLAR.0>
0

>  <SCORE.INTRA.REPUL>
0

>  <SCORE.INTRA.REPUL.0>
0

>  <SCORE.INTRA.SOLV>
15.7176

>  <SCORE.INTRA.SOLV.lig_0>
-102.332

>  <SCORE.INTRA.VDW>
5.61331

>  <SCORE.INTRA.VDW.0>
-5.08747

>  <SCORE.INTRA.norm>
0.346445

>  <SCORE.RESTR>
16.4783

>  <SCORE.RESTR.CAVITY>
16.4783

>  <SCORE.RESTR.norm>
0.411957

>  <SCORE.SYSTEM>
0

>  <SCORE.SYSTEM.CONST>
0

>  <SCORE.SYSTEM.DIHEDRAL>
0

>  <SCORE.SYSTEM.SOLV>
0

>  <SCORE.SYSTEM.norm>
0

>  <SCORE.heavy>
40

>  <SCORE.norm>
0.839431

>  <RMSD>
35.265

$$$$
2g5q_lig
 OpenBabel11021811433D
libRbt.so/2013.1/901 2013/11/27
 40 42  0  0  0  0  0  0  0  0999 V2000
   22.1694   13.3155   -2.5425 C   0  0  2  0  0  0  0  0  0  0  0  0
   22.4535   12.5592   -1.3863 O   0  0  0  0  0  0  0  0  0  0  0  0
   23.0482   12.7891   -3.7152 C   0  0  1  0  0  0  0  0  0  0  0  0
   24.5648   13.0645   -3.4750 C   0  0  2  0  0  0  0  0  0  0  0  0
   24.7512   14.5972   -3.3297 C   0  0  2  0  0  0  0  0  0  0  0  0
   26.1426   14.8944   -3.1295 O   0  0  0  0  0  0  0  0  0  0  0  0
   23.8808   15.0887   -2.1030 C   0  0  2  0  0  0  0  0  0  0  0  0
   22.4445   14.7614   -2.3325 O   0  0  0  0  0  0  0  0  0  0  0  0
   23.9786   16.5934   -1.8753 C   0  0  0  0  0  0  0  0  0  0  0  0
   25.3620   17.0141   -1.4869 N   0  0  0  0  0  0  0  0  0  0  0  0
   22.9892    8.3477   -0.3597 C   0  0  2  0  0  0  0  0  0  0  0  0
   23.4167    6.9552   -0.4217 N   0  0  0  0  0  0  0  0  0  0  0  0
   22.1296    8.7153   -1.6410 C   0  0  0  0  0  0  0  0  0  0  0  0
   21.6583   10.2213   -1.5744 C   0  0  2  0  0  0  0  0  0  0  0  0
   20.8442   10.5500   -2.7757 N   0  0  0  0  0  0  0  0  0  0  0  0
   22.9212   11.1645   -1.4593 C   0  0  2  0  0  0  0  0  0  0  0  0
   23.7530   10.7659   -0.1763 C   0  0  2  0  0  0  0  0  0  0  0  0
   24.8993   11.6170   -0.0777 O   0  0  0  0  0  0  0  0  0  0  0  0
   24.2262    9.2652   -0.2704 C   0  0  1  0  0  0  0  0  0  0  0  0
   24.9815    8.8971    0.9180 O   0  0  0  0  0  0  0  0  0  0  0  0
   24.9291    9.5982    2.1361 C   0  0  2  0  0  0  0  0  0  0  0  0
   25.3947    8.6158    3.2636 C   0  0  2  0  0  0  0  0  0  0  0  0
   26.6933    8.1896    3.0018 O   0  0  0  0  0  0  0  0  0  0  0  0
   24.4139    7.3892    3.3904 C   0  0  1  0  0  0  0  0  0  0  0  0
   24.8490    6.4444    4.4713 N   0  0  0  0  0  0  0  0  0  0  0  0
   22.9623    7.9423    3.6806 C   0  0  2  0  0  0  0  0  0  0  0  0
   22.0257    6.8713    3.8137 O   0  0  0  0  0  0  0  0  0  0  0  0
   22.5568    8.9129    2.5204 C   0  0  2  0  0  0  0  0  0  0  0  0
   23.5452   10.0378    2.3886 O   0  0  0  0  0  0  0  0  0  0  0  0
   21.1956    9.5061    2.7415 C   0  0  0  0  0  0  0  0  0  0  0  0
   20.8034   10.3381    1.6375 O   0  0  0  0  0  0  0  0  0  0  0  0
   22.7912   11.3516   -3.8759 O   0  0  0  0  0  0  0  0  0  0  0  0
   25.2914   12.5918   -4.5455 O   0  0  0  0  0  0  0  0  0  0  0  0
   26.5369    4.2849    2.7405 N   0  0  0  0  0  0  0  0  0  0  0  0
   23.0438    5.9623    0.4735 C   0  0  0  0  0  0  0  0  0  0  0  0
   22.3076    6.1506    1.4357 O   0  0  0  0  0  0  0  0  0  0  0  0
   23.6748    4.5927    0.1322 C   0  0  1  0  0  0  0  0  0  0  0  0
   25.0923    4.4996    0.7326 C   0  0  0  0  0  0  0  0  0  0  0  0
   25.1680    4.4708    2.2635 C   0  0  0  0  0  0  0  0  0  0  0  0
   22.8270    3.5402    0.6447 O   0  0  0  0  0  0  0  0  0  0  0  0
  1  2  1  1  0  0  0
  1  3  1  0  0  0  0
  1  8  1  0  0  0  0
  3  4  1  0  0  0  0
  3 32  1  1  0  0  0
  4  5  1  0  0  0  0
  4 33  1  6  0  0  0
  5  6  1  1  0  0  0
  5  7  1  0  0  0  0
  7  8  1  0  0  0  0
  7  9  1  6  0  0  0
  9 10  1  0  0  0  0
 11 12  1  6  0  0  0
 11 13  1  0  0  0  0
 11 19  1  0  0  0  0
 12 35  1  0  0  0  0
 13 14  1  0  0  0  0
 14 15  1  6  0  0  0
 14 16  1  0  0  0  0
 16  2  1  1  0  0  0
 16 17  1  0  0  0  0
 17 18  1  6  0  0  0
 17 19  1  0  0  0  0
 19 20  1  1  0  0  0
 21 20  1  6  0  0  0
 21 22  1  0  0  0  0
 21 29  1  0  0  0  0
 22 23  1  6  0  0  0
 22 24  1  0  0  0  0
 24 25  1  1  0  0  0
 24 26  1  0  0  0  0
 26 27  1  6  0  0  0
 26 28  1  0  0  0  0
 28 29  1  0  0  0  0
 28 30  1  1  0  0  0
 30 31  1  0  0  0  0
 34 39  1  0  0  0  0
 35 36  2  0  0  0  0
 37 35  1  1  0  0  0
 37 38  1  0  0  0  0
 37 40  1  0  0  0  0
 38 39  1  0  0  0  0
M  END
>  <CHROM.1>
-28.03921503,-64.71472195,-116.47651604,-85.15732533,-100.32836217,158.10424875
-176.89216542,84.48276173,66.83153894,175.87839042,23.66978471,9.82479646
-0.00425002,1.60003623,-1.07594661,-0.52030470

>  <Name>
2g5q_lig

>  <RI>
224

>  <Rbt.Current_Directory>
/home/itssahil/PROJECTS/Mol_Feturizer/New_Systems/rnas/2g5q

>  <Rbt.Executable>
rbdock ($Id: //depot/dev/client3/rdock/2013.1/src/exe/rbdock.cxx#4 $)

>  <Rbt.Library>
libRbt.so (2013.1, Build901 2013/11/27)

>  <Rbt.Parameter_File>
/export/apps/rDock/src/rDock_2013.1_src/data/scripts/dock_solv.prm

>  <Rbt.Receptor>
prm/blind_docking_100.prm

>  <SCORE>
22.9379

>  <SCORE.INTER>
-0.220712

>  <SCORE.INTER.CONST>
1

>  <SCORE.INTER.POLAR>
-0.492309

>  <SCORE.INTER.ROT>
10

>  <SCORE.INTER.SOLV>
23.8094

>  <SCORE.INTER.VDW>
-16.7092

>  <SCORE.INTER.norm>
-0.00551781

>  <SCORE.INTRA>
7.69603

>  <SCORE.INTRA.DIHEDRAL>
-5.38757

>  <SCORE.INTRA.DIHEDRAL.0>
22.5778

>  <SCORE.INTRA.POLAR>
0

>  <SCORE.INTRA.POLAR.0>
0

>  <SCORE.INTRA.REPUL>
0

>  <SCORE.INTRA.REPUL.0>
0

>  <SCORE.INTRA.SOLV>
10.0142

>  <SCORE.INTRA.SOLV.lig_0>
-102.332

>  <SCORE.INTRA.VDW>
5.3827

>  <SCORE.INTRA.VDW.0>
-5.08747

>  <SCORE.INTRA.norm>
0.192401

>  <SCORE.RESTR>
15.4626

>  <SCORE.RESTR.CAVITY>
15.4626

>  <SCORE.RESTR.norm>
0.386566

>  <SCORE.SYSTEM>
0

>  <SCORE.SYSTEM.CONST>
0

>  <SCORE.SYSTEM.DIHEDRAL>
0

>  <SCORE.SYSTEM.SOLV>
0

>  <SCORE.SYSTEM.norm>
0

>  <SCORE.heavy>
40

>  <SCORE.norm>
0.573449

>  <RMSD>
35.285

$$$$
2g5q_lig
 OpenBabel11021811433D
libRbt.so/2013.1/901 2013/11/27
 40 42  0  0  0  0  0  0  0  0999 V2000
   24.3584   13.4955   -1.9320 C   0  0  2  0  0  0  0  0  0  0  0  0
   23.3970   12.6706   -1.3117 O   0  0  0  0  0  0  0  0  0  0  0  0
   23.7867   14.9400   -2.0386 C   0  0  1  0  0  0  0  0  0  0  0  0
   22.5724   15.0145   -3.0151 C   0  0  2  0  0  0  0  0  0  0  0  0
   23.0559   14.5397   -4.4101 C   0  0  2  0  0  0  0  0  0  0  0  0
   21.9685   14.6158   -5.3462 O   0  0  0  0  0  0  0  0  0  0  0  0
   23.5870   13.0554   -4.2723 C   0  0  2  0  0  0  0  0  0  0  0  0
   24.7078   13.0034   -3.2906 O   0  0  0  0  0  0  0  0  0  0  0  0
   24.1038   12.4889   -5.5905 C   0  0  0  0  0  0  0  0  0  0  0  0
   23.0010   11.9194   -6.4280 N   0  0  0  0  0  0  0  0  0  0  0  0
   23.0900    8.5726    0.1680 C   0  0  2  0  0  0  0  0  0  0  0  0
   23.2027    7.1211    0.2465 N   0  0  0  0  0  0  0  0  0  0  0  0
   22.2374    8.9886   -1.1032 C   0  0  0  0  0  0  0  0  0  0  0  0
   22.1066   10.5603   -1.1882 C   0  0  2  0  0  0  0  0  0  0  0  0
   21.2959   10.9367   -2.3778 N   0  0  0  0  0  0  0  0  0  0  0  0
   23.5476   11.2070   -1.2458 C   0  0  2  0  0  0  0  0  0  0  0  0
   24.3666   10.7672    0.0320 C   0  0  2  0  0  0  0  0  0  0  0  0
   25.6730   11.3488   -0.0254 O   0  0  0  0  0  0  0  0  0  0  0  0
   24.4983    9.1974    0.0890 C   0  0  1  0  0  0  0  0  0  0  0  0
   25.2423    8.7945    1.2732 O   0  0  0  0  0  0  0  0  0  0  0  0
   25.1297    9.4200    2.5279 C   0  0  2  0  0  0  0  0  0  0  0  0
   25.5041    8.3584    3.6170 C   0  0  2  0  0  0  0  0  0  0  0  0
   26.8071    7.9170    3.4074 O   0  0  0  0  0  0  0  0  0  0  0  0
   24.4917    7.1511    3.6066 C   0  0  1  0  0  0  0  0  0  0  0  0
   24.8394    6.1306    4.6498 N   0  0  0  0  0  0  0  0  0  0  0  0
   23.0370    7.7211    3.8433 C   0  0  2  0  0  0  0  0  0  0  0  0
   22.0716    6.6675    3.8516 O   0  0  0  0  0  0  0  0  0  0  0  0
   22.7243    8.7714    2.7245 C   0  0  2  0  0  0  0  0  0  0  0  0
   23.7425    9.8774    2.7239 O   0  0  0  0  0  0  0  0  0  0  0  0
   21.3648    9.3834    2.9003 C   0  0  0  0  0  0  0  0  0  0  0  0
   21.0654   10.3034    1.8378 O   0  0  0  0  0  0  0  0  0  0  0  0
   23.4096   15.3882   -0.6914 O   0  0  0  0  0  0  0  0  0  0  0  0
   22.1167   16.3127   -3.0812 O   0  0  0  0  0  0  0  0  0  0  0  0
   23.9549    4.3041   -2.8510 N   0  0  0  0  0  0  0  0  0  0  0  0
   22.3056    6.2819    0.8924 C   0  0  0  0  0  0  0  0  0  0  0  0
   21.3066    6.6750    1.4846 O   0  0  0  0  0  0  0  0  0  0  0  0
   22.7157    4.7942    0.7971 C   0  0  1  0  0  0  0  0  0  0  0  0
   22.7525    4.3497   -0.6792 C   0  0  0  0  0  0  0  0  0  0  0  0
   23.9369    4.8683   -1.5029 C   0  0  0  0  0  0  0  0  0  0  0  0
   24.0074    4.6185    1.4215 O   0  0  0  0  0  0  0  0  0  0  0  0
  1  2  1  6  0  0  0
  1  3  1  0  0  0  0
  1  8  1  0  0  0  0
  3  4  1  0  0  0  0
  3 32  1  1  0  0  0
  4  5  1  0  0  0  0
  4 33  1  6  0  0  0
  5  6  1  6  0  0  0
  5  7  1  0  0  0  0
  7  8  1  0  0  0  0
  7  9  1  6  0  0  0
  9 10  1  0  0  0  0
 11 12  1  6  0  0  0
 11 13  1  0  0  0  0
 11 19  1  0  0  0  0
 12 35  1  0  0  0  0
 13 14  1  0  0  0  0
 14 15  1  6  0  0  0
 14 16  1  0  0  0  0
 16  2  1  1  0  0  0
 16 17  1  0  0  0  0
 17 18  1  6  0  0  0
 17 19  1  0  0  0  0
 19 20  1  1  0  0  0
 21 20  1  6  0  0  0
 21 22  1  0  0  0  0
 21 29  1  0  0  0  0
 22 23  1  6  0  0  0
 22 24  1  0  0  0  0
 24 25  1  1  0  0  0
 24 26  1  0  0  0  0
 26 27  1  6  0  0  0
 26 28  1  0  0  0  0
 28 29  1  0  0  0  0
 28 30  1  1  0  0  0
 30 31  1  0  0  0  0
 34 39  1  0  0  0  0
 35 36  2  0  0  0  0
 37 35  1  6  0  0  0
 37 38  1  0  0  0  0
 37 40  1  0  0  0  0
 38 39  1  0  0  0  0
M  END
>  <CHROM.1>
170.57908969,-84.33729186,-88.84194622,-151.91299092,-81.62325117,153.64080401
-177.56493363,-61.26855420,73.75355775,174.94233131,23.42777883,9.84425921
-0.24769493,-1.91880900,1.41637995,2.83431313

>  <Name>
2g5q_lig

>  <RI>
224

>  <Rbt.Current_Directory>
/home/itssahil/PROJECTS/Mol_Feturizer/New_Systems/rnas/2g5q

>  <Rbt.Executable>
rbdock ($Id: //depot/dev/client3/rdock/2013.1/src/exe/rbdock.cxx#4 $)

>  <Rbt.Library>
libRbt.so (2013.1, Build901 2013/11/27)

>  <Rbt.Parameter_File>
/export/apps/rDock/src/rDock_2013.1_src/data/scripts/dock_solv.prm

>  <Rbt.Receptor>
prm/blind_docking_100.prm

>  <SCORE>
29.9753

>  <SCORE.INTER>
7.67974

>  <SCORE.INTER.CONST>
1

>  <SCORE.INTER.POLAR>
-0.265901

>  <SCORE.INTER.ROT>
10

>  <SCORE.INTER.SOLV>
24.9315

>  <SCORE.INTER.VDW>
-12.571

>  <SCORE.INTER.norm>
0.191993

>  <SCORE.INTRA>
0.190956

>  <SCORE.INTRA.DIHEDRAL>
-9.92455

>  <SCORE.INTRA.DIHEDRAL.0>
22.5778

>  <SCORE.INTRA.POLAR>
0

>  <SCORE.INTRA.POLAR.0>
0

>  <SCORE.INTRA.REPUL>
0

>  <SCORE.INTRA.REPUL.0>
0

>  <SCORE.INTRA.SOLV>
4.67649

>  <SCORE.INTRA.SOLV.lig_0>
-102.332

>  <SCORE.INTRA.VDW>
2.81498

>  <SCORE.INTRA.VDW.0>
-5.08747

>  <SCORE.INTRA.norm>
0.0047739

>  <SCORE.RESTR>
22.1046

>  <SCORE.RESTR.CAVITY>
22.1046

>  <SCORE.RESTR.norm>
0.552614

>  <SCORE.SYSTEM>
0

>  <SCORE.SYSTEM.CONST>
0

>  <SCORE.SYSTEM.DIHEDRAL>
0

>  <SCORE.SYSTEM.SOLV>
0

>  <SCORE.SYSTEM.norm>
0

>  <SCORE.heavy>
40

>  <SCORE.norm>
0.749382

>  <RMSD>
35.299

$$$$
2g5q_lig
 OpenBabel11021811433D
libRbt.so/2013.1/901 2013/11/27
 40 42  0  0  0  0  0  0  0  0999 V2000
   24.5273   13.1100   -2.5589 C   0  0  2  0  0  0  0  0  0  0  0  0
   23.7335   12.4426   -1.6028 O   0  0  0  0  0  0  0  0  0  0  0  0
   24.1026   14.6073   -2.6069 C   0  0  1  0  0  0  0  0  0  0  0  0
   22.6554   14.7841   -3.1618 C   0  0  2  0  0  0  0  0  0  0  0  0
   22.6192   14.1848   -4.5916 C   0  0  2  0  0  0  0  0  0  0  0  0
   21.3047   14.3494   -5.1477 O   0  0  0  0  0  0  0  0  0  0  0  0
   23.0115   12.6546   -4.4982 C   0  0  2  0  0  0  0  0  0  0  0  0
   24.3746   12.5120   -3.9114 O   0  0  0  0  0  0  0  0  0  0  0  0
   23.0218   11.9640   -5.8578 C   0  0  0  0  0  0  0  0  0  0  0  0
   23.6191   10.5929   -5.7869 N   0  0  0  0  0  0  0  0  0  0  0  0
   22.8948    8.4665   -0.0014 C   0  0  2  0  0  0  0  0  0  0  0  0
   22.8978    7.0187    0.1709 N   0  0  0  0  0  0  0  0  0  0  0  0
   22.3220    8.8477   -1.4306 C   0  0  0  0  0  0  0  0  0  0  0  0
   22.3103   10.4158   -1.6187 C   0  0  2  0  0  0  0  0  0  0  0  0
   21.7608   10.7604   -2.9578 N   0  0  0  0  0  0  0  0  0  0  0  0
   23.7752   10.9800   -1.4351 C   0  0  2  0  0  0  0  0  0  0  0  0
   24.3123   10.5773   -0.0047 C   0  0  2  0  0  0  0  0  0  0  0  0
   25.6411   11.0836    0.1568 O   0  0  0  0  0  0  0  0  0  0  0  0
   24.3303    9.0092    0.1561 C   0  0  1  0  0  0  0  0  0  0  0  0
   24.8137    8.6415    1.4787 O   0  0  0  0  0  0  0  0  0  0  0  0
   24.5720    9.3901    2.6447 C   0  0  2  0  0  0  0  0  0  0  0  0
   23.9464    8.4205    3.7038 C   0  0  2  0  0  0  0  0  0  0  0  0
   24.8354    7.3826    3.9662 O   0  0  0  0  0  0  0  0  0  0  0  0
   22.5571    7.8619    3.2134 C   0  0  1  0  0  0  0  0  0  0  0  0
   21.9475    6.9354    4.2235 N   0  0  0  0  0  0  0  0  0  0  0  0
   21.6016    9.0881    2.9292 C   0  0  2  0  0  0  0  0  0  0  0  0
   20.3181    8.6423    2.4864 O   0  0  0  0  0  0  0  0  0  0  0  0
   22.2813   10.0144    1.8650 C   0  0  2  0  0  0  0  0  0  0  0  0
   23.6294   10.4810    2.3392 O   0  0  0  0  0  0  0  0  0  0  0  0
   21.4439   11.2235    1.5640 C   0  0  0  0  0  0  0  0  0  0  0  0
   20.0858   10.8576    1.2701 O   0  0  0  0  0  0  0  0  0  0  0  0
   24.2210   15.1647   -1.2528 O   0  0  0  0  0  0  0  0  0  0  0  0
   22.3379   16.1241   -3.1947 O   0  0  0  0  0  0  0  0  0  0  0  0
   26.1933    4.2019    2.4573 N   0  0  0  0  0  0  0  0  0  0  0  0
   23.5939    6.1190   -0.6241 C   0  0  0  0  0  0  0  0  0  0  0  0
   24.2890    6.4465   -1.5796 O   0  0  0  0  0  0  0  0  0  0  0  0
   23.3818    4.6530   -0.1811 C   0  0  1  0  0  0  0  0  0  0  0  0
   24.0787    4.4037    1.1718 C   0  0  0  0  0  0  0  0  0  0  0  0
   25.5963    4.6203    1.1906 C   0  0  0  0  0  0  0  0  0  0  0  0
   21.9640    4.3872   -0.0882 O   0  0  0  0  0  0  0  0  0  0  0  0
  1  2  1  1  0  0  0
  1  3  1  0  0  0  0
  1  8  1  0  0  0  0
  3  4  1  0  0  0  0
  3 32  1  1  0  0  0
  4  5  1  0  0  0  0
  4 33  1  6  0  0  0
  5  6  1  1  0  0  0
  5  7  1  0  0  0  0
  7  8  1  0  0  0  0
  7  9  1  6  0  0  0
  9 10  1  0  0  0  0
 11 12  1  6  0  0  0
 11 13  1  0  0  0  0
 11 19  1  0  0  0  0
 12 35  1  0  0  0  0
 13 14  1  0  0  0  0
 14 15  1  6  0  0  0
 14 16  1  0  0  0  0
 16  2  1  1  0  0  0
 16 17  1  0  0  0  0
 17 18  1  6  0  0  0
 17 19  1  0  0  0  0
 19 20  1  1  0  0  0
 21 20  1  6  0  0  0
 21 22  1  0  0  0  0
 21 29  1  0  0  0  0
 22 23  1  6  0  0  0
 22 24  1  0  0  0  0
 24 25  1  1  0  0  0
 24 26  1  0  0  0  0
 26 27  1  6  0  0  0
 26 28  1  0  0  0  0
 28 29  1  0  0  0  0
 28 30  1  1  0  0  0
 30 31  1  0  0  0  0
 34 39  1  0  0  0  0
 35 36  2  0  0  0  0
 37 35  1  1  0  0  0
 37 38  1  0  0  0  0
 37 40  1  0  0  0  0
 38 39  1  0  0  0  0
M  END
>  <CHROM.1>
172.37301260,170.10496305,60.37775740,-123.55422611,-85.34146168,126.53795048
-49.99000119,-69.66090654,-60.58012206,-172.81533440,23.26704528,9.86676186
-0.42651180,-1.91005866,-1.36734182,2.15157730

>  <Name>
2g5q_lig

>  <RI>
224

>  <Rbt.Current_Directory>
/home/itssahil/PROJECTS/Mol_Feturizer/New_Systems/rnas/2g5q

>  <Rbt.Executable>
rbdock ($Id: //depot/dev/client3/rdock/2013.1/src/exe/rbdock.cxx#4 $)

>  <Rbt.Library>
libRbt.so (2013.1, Build901 2013/11/27)

>  <Rbt.Parameter_File>
/export/apps/rDock/src/rDock_2013.1_src/data/scripts/dock_solv.prm

>  <Rbt.Receptor>
prm/blind_docking_100.prm

>  <SCORE>
42.8239

>  <SCORE.INTER>
11.214

>  <SCORE.INTER.CONST>
1

>  <SCORE.INTER.POLAR>
-0.082011

>  <SCORE.INTER.ROT>
10

>  <SCORE.INTER.SOLV>
29.0728

>  <SCORE.INTER.VDW>
-12.2082

>  <SCORE.INTER.norm>
0.28035

>  <SCORE.INTRA>
12.1023

>  <SCORE.INTRA.DIHEDRAL>
-3.63124

>  <SCORE.INTRA.DIHEDRAL.0>
22.5778

>  <SCORE.INTRA.POLAR>
0

>  <SCORE.INTRA.POLAR.0>
0

>  <SCORE.INTRA.REPUL>
0

>  <SCORE.INTRA.REPUL.0>
0

>  <SCORE.INTRA.SOLV>
7.03672

>  <SCORE.INTRA.SOLV.lig_0>
-102.332

>  <SCORE.INTRA.VDW>
10.3995

>  <SCORE.INTRA.VDW.0>
-5.08747

>  <SCORE.INTRA.norm>
0.302557

>  <SCORE.RESTR>
19.5076

>  <SCORE.RESTR.CAVITY>
19.5076

>  <SCORE.RESTR.norm>
0.487689

>  <SCORE.SYSTEM>
0

>  <SCORE.SYSTEM.CONST>
0

>  <SCORE.SYSTEM.DIHEDRAL>
0

>  <SCORE.SYSTEM.SOLV>
0

>  <SCORE.SYSTEM.norm>
0

>  <SCORE.heavy>
40

>  <SCORE.norm>
1.0706

>  <RMSD>
35.349

$$$$
2g5q_lig
 OpenBabel11021811433D
libRbt.so/2013.1/901 2013/11/27
 40 42  0  0  0  0  0  0  0  0999 V2000
   22.3120   13.2650   -2.4265 C   0  0  2  0  0  0  0  0  0  0  0  0
   22.7605   12.6043   -1.2638 O   0  0  0  0  0  0  0  0  0  0  0  0
   23.0915   12.7067   -3.6534 C   0  0  1  0  0  0  0  0  0  0  0  0
   24.6062   13.0759   -3.5976 C   0  0  2  0  0  0  0  0  0  0  0  0
   24.7165   14.6225   -3.5683 C   0  0  2  0  0  0  0  0  0  0  0  0
   26.1013   15.0042   -3.5398 O   0  0  0  0  0  0  0  0  0  0  0  0
   23.9529   15.1501   -2.2866 C   0  0  2  0  0  0  0  0  0  0  0  0
   22.5222   14.7340   -2.3374 O   0  0  0  0  0  0  0  0  0  0  0  0
   23.9856   16.6699   -2.1643 C   0  0  0  0  0  0  0  0  0  0  0  0
   25.3787   17.1895   -1.9882 N   0  0  0  0  0  0  0  0  0  0  0  0
   22.8662    8.4615    0.1158 C   0  0  2  0  0  0  0  0  0  0  0  0
   23.1050    7.0237    0.1505 N   0  0  0  0  0  0  0  0  0  0  0  0
   21.9278    8.8324   -1.1080 C   0  0  0  0  0  0  0  0  0  0  0  0
   21.6605   10.3886   -1.1451 C   0  0  2  0  0  0  0  0  0  0  0  0
   20.7706   10.7217   -2.2902 N   0  0  0  0  0  0  0  0  0  0  0  0
   23.0376   11.1580   -1.2436 C   0  0  2  0  0  0  0  0  0  0  0  0
   23.9448   10.7604   -0.0124 C   0  0  2  0  0  0  0  0  0  0  0  0
   25.1934   11.4533   -0.1071 O   0  0  0  0  0  0  0  0  0  0  0  0
   24.2117    9.2068   -0.0033 C   0  0  1  0  0  0  0  0  0  0  0  0
   25.0372    8.8417    1.1385 O   0  0  0  0  0  0  0  0  0  0  0  0
   24.9664    9.4664    2.3966 C   0  0  2  0  0  0  0  0  0  0  0  0
   25.3946    8.4095    3.4703 C   0  0  2  0  0  0  0  0  0  0  0  0
   26.6932    7.9825    3.2102 O   0  0  0  0  0  0  0  0  0  0  0  0
   24.3960    7.1910    3.4992 C   0  0  1  0  0  0  0  0  0  0  0  0
   24.7952    6.1749    4.5280 N   0  0  0  0  0  0  0  0  0  0  0  0
   22.9453    7.7450    3.7922 C   0  0  2  0  0  0  0  0  0  0  0  0
   21.9928    6.6807    3.8380 O   0  0  0  0  0  0  0  0  0  0  0  0
   22.5778    8.7913    2.6864 C   0  0  2  0  0  0  0  0  0  0  0  0
   23.5828    9.9085    2.6464 O   0  0  0  0  0  0  0  0  0  0  0  0
   21.2195    9.3883    2.9150 C   0  0  0  0  0  0  0  0  0  0  0  0
   20.8561   10.2813    1.8495 O   0  0  0  0  0  0  0  0  0  0  0  0
   22.9040   11.2503   -3.6961 O   0  0  0  0  0  0  0  0  0  0  0  0
   25.2423   12.5701   -4.7097 O   0  0  0  0  0  0  0  0  0  0  0  0
   26.0261    4.5016    2.6832 N   0  0  0  0  0  0  0  0  0  0  0  0
   23.7355    6.2923   -0.8464 C   0  0  0  0  0  0  0  0  0  0  0  0
   24.1617    6.7808   -1.8871 O   0  0  0  0  0  0  0  0  0  0  0  0
   23.8257    4.7867   -0.5064 C   0  0  1  0  0  0  0  0  0  0  0  0
   25.0423    4.5224    0.4036 C   0  0  0  0  0  0  0  0  0  0  0  0
   24.8105    4.7301    1.9048 C   0  0  0  0  0  0  0  0  0  0  0  0
   22.5997    4.3728    0.1377 O   0  0  0  0  0  0  0  0  0  0  0  0
  1  2  1  1  0  0  0
  1  3  1  0  0  0  0
  1  8  1  0  0  0  0
  3  4  1  0  0  0  0
  3 32  1  1  0  0  0
  4  5  1  0  0  0  0
  4 33  1  6  0  0  0
  5  6  1  1  0  0  0
  5  7  1  0  0  0  0
  7  8  1  0  0  0  0
  7  9  1  6  0  0  0
  9 10  1  0  0  0  0
 11 12  1  6  0  0  0
 11 13  1  0  0  0  0
 11 19  1  0  0  0  0
 12 35  1  0  0  0  0
 13 14  1  0  0  0  0
 14 15  1  6  0  0  0
 14 16  1  0  0  0  0
 16  2  1  1  0  0  0
 16 17  1  0  0  0  0
 17 18  1  6  0  0  0
 17 19  1  0  0  0  0
 19 20  1  1  0  0  0
 21 20  1  6  0  0  0
 21 22  1  0  0  0  0
 21 29  1  0  0  0  0
 22 23  1  6  0  0  0
 22 24  1  0  0  0  0
 24 25  1  1  0  0  0
 24 26  1  0  0  0  0
 26 27  1  6  0  0  0
 26 28  1  0  0  0  0
 28 29  1  0  0  0  0
 28 30  1  1  0  0  0
 30 31  1  0  0  0  0
 34 39  1  0  0  0  0
 35 36  2  0  0  0  0
 37 35  1  1  0  0  0
 37 38  1  0  0  0  0
 37 40  1  0  0  0  0
 38 39  1  0  0  0  0
M  END
>  <CHROM.1>
-40.84527771,-63.36728338,61.82107819,-78.16431910,-84.58260603,151.51090774
-176.25668817,-82.98894769,84.94395834,-178.06312719,23.72985545,9.85712942
-0.08349204,1.62936035,-1.46184885,-0.50455480

>  <Name>
2g5q_lig

>  <RI>
224

>  <Rbt.Current_Directory>
/home/itssahil/PROJECTS/Mol_Feturizer/New_Systems/rnas/2g5q

>  <Rbt.Executable>
rbdock ($Id: //depot/dev/client3/rdock/2013.1/src/exe/rbdock.cxx#4 $)

>  <Rbt.Library>
libRbt.so (2013.1, Build901 2013/11/27)

>  <Rbt.Parameter_File>
/export/apps/rDock/src/rDock_2013.1_src/data/scripts/dock_solv.prm

>  <Rbt.Receptor>
prm/blind_docking_100.prm

>  <SCORE>
26.9472

>  <SCORE.INTER>
1.99244

>  <SCORE.INTER.CONST>
1

>  <SCORE.INTER.POLAR>
-0.271183

>  <SCORE.INTER.ROT>
10

>  <SCORE.INTER.SOLV>
23.842

>  <SCORE.INTER.VDW>
-15.9818

>  <SCORE.INTER.norm>
0.0498109

>  <SCORE.INTRA>
6.94316

>  <SCORE.INTRA.DIHEDRAL>
-10.164

>  <SCORE.INTRA.DIHEDRAL.0>
22.5778

>  <SCORE.INTRA.POLAR>
0

>  <SCORE.INTRA.POLAR.0>
0

>  <SCORE.INTRA.REPUL>
0

>  <SCORE.INTRA.REPUL.0>
0

>  <SCORE.INTRA.SOLV>
10.6282

>  <SCORE.INTRA.SOLV.lig_0>
-102.332

>  <SCORE.INTRA.VDW>
6.71105

>  <SCORE.INTRA.VDW.0>
-5.08747

>  <SCORE.INTRA.norm>
0.173579

>  <SCORE.RESTR>
18.0116

>  <SCORE.RESTR.CAVITY>
18.0116

>  <SCORE.RESTR.norm>
0.450291

>  <SCORE.SYSTEM>
0

>  <SCORE.SYSTEM.CONST>
0

>  <SCORE.SYSTEM.DIHEDRAL>
0

>  <SCORE.SYSTEM.SOLV>
0

>  <SCORE.SYSTEM.norm>
0

>  <SCORE.heavy>
40

>  <SCORE.norm>
0.67368

>  <RMSD>
35.373

$$$$
2g5q_lig
 OpenBabel11021811433D
libRbt.so/2013.1/901 2013/11/27
 40 42  0  0  0  0  0  0  0  0999 V2000
   24.3065   13.6785   -1.6822 C   0  0  2  0  0  0  0  0  0  0  0  0
   23.3106   12.7617   -1.2856 O   0  0  0  0  0  0  0  0  0  0  0  0
   23.6634   15.0899   -1.8201 C   0  0  1  0  0  0  0  0  0  0  0  0
   22.6381   15.1500   -2.9944 C   0  0  2  0  0  0  0  0  0  0  0  0
   23.3919   14.7895   -4.3008 C   0  0  2  0  0  0  0  0  0  0  0  0
   22.4841   14.8563   -5.4125 O   0  0  0  0  0  0  0  0  0  0  0  0
   23.9925   13.3341   -4.1417 C   0  0  2  0  0  0  0  0  0  0  0  0
   24.9235   13.2906   -2.9780 O   0  0  0  0  0  0  0  0  0  0  0  0
   24.7718   12.8796   -5.3711 C   0  0  0  0  0  0  0  0  0  0  0  0
   24.3996   11.4914   -5.7906 N   0  0  0  0  0  0  0  0  0  0  0  0
   23.1549    8.5706   -0.0662 C   0  0  2  0  0  0  0  0  0  0  0  0
   23.3427    7.1247   -0.0668 N   0  0  0  0  0  0  0  0  0  0  0  0
   22.3448    9.0191   -1.3540 C   0  0  0  0  0  0  0  0  0  0  0  0
   22.1328   10.5842   -1.3538 C   0  0  2  0  0  0  0  0  0  0  0  0
   21.3625   10.9904   -2.5603 N   0  0  0  0  0  0  0  0  0  0  0  0
   23.5375   11.3066   -1.2975 C   0  0  2  0  0  0  0  0  0  0  0  0
   24.3151   10.8323   -0.0063 C   0  0  2  0  0  0  0  0  0  0  0  0
   25.5890   11.4827    0.0392 O   0  0  0  0  0  0  0  0  0  0  0  0
   24.5292    9.2708   -0.0343 C   0  0  1  0  0  0  0  0  0  0  0  0
   25.2347    8.8351    1.1618 O   0  0  0  0  0  0  0  0  0  0  0  0
   25.1296    9.4653    2.4148 C   0  0  2  0  0  0  0  0  0  0  0  0
   25.5058    8.4065    3.5059 C   0  0  2  0  0  0  0  0  0  0  0  0
   26.8065    7.9605    3.2920 O   0  0  0  0  0  0  0  0  0  0  0  0
   24.4898    7.2022    3.5044 C   0  0  1  0  0  0  0  0  0  0  0  0
   24.8391    6.1844    4.5496 N   0  0  0  0  0  0  0  0  0  0  0  0
   23.0378    7.7774    3.7457 C   0  0  2  0  0  0  0  0  0  0  0  0
   22.0694    6.7267    3.7621 O   0  0  0  0  0  0  0  0  0  0  0  0
   22.7232    8.8247    2.6246 C   0  0  2  0  0  0  0  0  0  0  0  0
   23.7447    9.9276    2.6155 O   0  0  0  0  0  0  0  0  0  0  0  0
   21.3664    9.4414    2.8044 C   0  0  0  0  0  0  0  0  0  0  0  0
   21.1026   10.4262    1.7918 O   0  0  0  0  0  0  0  0  0  0  0  0
   23.0243   15.4331   -0.5426 O   0  0  0  0  0  0  0  0  0  0  0  0
   22.1119   16.4202   -3.0785 O   0  0  0  0  0  0  0  0  0  0  0  0
   26.5697    4.3276    1.9599 N   0  0  0  0  0  0  0  0  0  0  0  0
   22.5630    6.2155    0.6344 C   0  0  0  0  0  0  0  0  0  0  0  0
   21.6191    6.5330    1.3496 O   0  0  0  0  0  0  0  0  0  0  0  0
   23.0282    4.7557    0.4269 C   0  0  1  0  0  0  0  0  0  0  0  0
   24.1449    4.4090    1.4324 C   0  0  0  0  0  0  0  0  0  0  0  0
   25.5630    4.8244    1.0242 C   0  0  0  0  0  0  0  0  0  0  0  0
   21.8963    3.8711    0.5872 O   0  0  0  0  0  0  0  0  0  0  0  0
  1  2  1  6  0  0  0
  1  3  1  0  0  0  0
  1  8  1  0  0  0  0
  3  4  1  0  0  0  0
  3 32  1  1  0  0  0
  4  5  1  0  0  0  0
  4 33  1  6  0  0  0
  5  6  1  6  0  0  0
  5  7  1  0  0  0  0
  7  8  1  0  0  0  0
  7  9  1  6  0  0  0
  9 10  1  0  0  0  0
 11 12  1  6  0  0  0
 11 13  1  0  0  0  0
 11 19  1  0  0  0  0
 12 35  1  0  0  0  0
 13 14  1  0  0  0  0
 14 15  1  6  0  0  0
 14 16  1  0  0  0  0
 16  2  1  1  0  0  0
 16 17  1  0  0  0  0
 17 18  1  6  0  0  0
 17 19  1  0  0  0  0
 19 20  1  1  0  0  0
 21 20  1  6  0  0  0
 21 22  1  0  0  0  0
 21 29  1  0  0  0  0
 22 23  1  6  0  0  0
 22 24  1  0  0  0  0
 24 25  1  1  0  0  0
 24 26  1  0  0  0  0
 26 27  1  6  0  0  0
 26 28  1  0  0  0  0
 28 29  1  0  0  0  0
 28 30  1  1  0  0  0
 30 31  1  0  0  0  0
 34 39  1  0  0  0  0
 35 36  2  0  0  0  0
 37 35  1  1  0  0  0
 37 38  1  0  0  0  0
 37 40  1  0  0  0  0
 38 39  1  0  0  0  0
M  END
>  <CHROM.1>
168.97157466,-133.19238979,-98.16655122,-158.31543757,-88.50128988,156.34502163
178.44378809,85.97382265,-83.82521648,-173.65896091,23.60883819,9.89089542
-0.06687723,-2.33490347,1.48489619,-3.00289107

>  <Name>
2g5q_lig

>  <RI>
224

>  <Rbt.Current_Directory>
/home/itssahil/PROJECTS/Mol_Feturizer/New_Systems/rnas/2g5q

>  <Rbt.Executable>
rbdock ($Id: //depot/dev/client3/rdock/2013.1/src/exe/rbdock.cxx#4 $)

>  <Rbt.Library>
libRbt.so (2013.1, Build901 2013/11/27)

>  <Rbt.Parameter_File>
/export/apps/rDock/src/rDock_2013.1_src/data/scripts/dock_solv.prm

>  <Rbt.Receptor>
prm/blind_docking_100.prm

>  <SCORE>
22.4935

>  <SCORE.INTER>
4.93596

>  <SCORE.INTER.CONST>
1

>  <SCORE.INTER.POLAR>
-0.391755

>  <SCORE.INTER.ROT>
10

>  <SCORE.INTER.SOLV>
25.6054

>  <SCORE.INTER.VDW>
-14.2053

>  <SCORE.INTER.norm>
0.123399

>  <SCORE.INTRA>
-0.562768

>  <SCORE.INTRA.DIHEDRAL>
-5.26022

>  <SCORE.INTRA.DIHEDRAL.0>
22.5778

>  <SCORE.INTRA.POLAR>
0

>  <SCORE.INTRA.POLAR.0>
0

>  <SCORE.INTRA.REPUL>
0

>  <SCORE.INTRA.REPUL.0>
0

>  <SCORE.INTRA.SOLV>
5.30246

>  <SCORE.INTRA.SOLV.lig_0>
-102.332

>  <SCORE.INTRA.VDW>
-0.583893

>  <SCORE.INTRA.VDW.0>
-5.08747

>  <SCORE.INTRA.norm>
-0.0140692

>  <SCORE.RESTR>
18.1203

>  <SCORE.RESTR.CAVITY>
18.1203

>  <SCORE.RESTR.norm>
0.453007

>  <SCORE.SYSTEM>
0

>  <SCORE.SYSTEM.CONST>
0

>  <SCORE.SYSTEM.DIHEDRAL>
0

>  <SCORE.SYSTEM.SOLV>
0

>  <SCORE.SYSTEM.norm>
0

>  <SCORE.heavy>
40

>  <SCORE.norm>
0.562337

>  <RMSD>
35.384

$$$$
2g5q_lig
 OpenBabel11021811433D
libRbt.so/2013.1/901 2013/11/27
 40 42  0  0  0  0  0  0  0  0999 V2000
   21.8686   12.6757   -2.5736 C   0  0  2  0  0  0  0  0  0  0  0  0
   22.1190   11.3032   -2.3665 O   0  0  0  0  0  0  0  0  0  0  0  0
   21.0810   12.8470   -3.9059 C   0  0  1  0  0  0  0  0  0  0  0  0
   21.9421   12.4527   -5.1456 C   0  0  2  0  0  0  0  0  0  0  0  0
   23.1974   13.3632   -5.1600 C   0  0  2  0  0  0  0  0  0  0  0  0
   24.0073   13.0456   -6.3035 O   0  0  0  0  0  0  0  0  0  0  0  0
   23.9952   13.1295   -3.8135 C   0  0  2  0  0  0  0  0  0  0  0  0
   23.1306   13.4583   -2.6442 O   0  0  0  0  0  0  0  0  0  0  0  0
   25.2499   13.9906   -3.7139 C   0  0  0  0  0  0  0  0  0  0  0  0
   26.1103   13.8727   -4.9335 N   0  0  0  0  0  0  0  0  0  0  0  0
   24.2238    9.6741    1.0966 C   0  0  2  0  0  0  0  0  0  0  0  0
   24.4852    9.1429    2.4290 N   0  0  0  0  0  0  0  0  0  0  0  0
   23.6040   11.1306    1.1986 C   0  0  0  0  0  0  0  0  0  0  0  0
   23.3258   11.7128   -0.2430 C   0  0  2  0  0  0  0  0  0  0  0  0
   22.7555   13.0827   -0.1338 N   0  0  0  0  0  0  0  0  0  0  0  0
   22.3511   10.7442   -1.0239 C   0  0  2  0  0  0  0  0  0  0  0  0
   22.9994    9.3052   -1.1010 C   0  0  2  0  0  0  0  0  0  0  0  0
   22.1124    8.4284   -1.8028 O   0  0  0  0  0  0  0  0  0  0  0  0
   23.2541    8.7370    0.3472 C   0  0  1  0  0  0  0  0  0  0  0  0
   23.8625    7.4169    0.2732 O   0  0  0  0  0  0  0  0  0  0  0  0
   23.1857    6.2177    0.5599 C   0  0  2  0  0  0  0  0  0  0  0  0
   22.5877    6.3493    2.0015 C   0  0  2  0  0  0  0  0  0  0  0  0
   21.7088    7.4273    2.0437 O   0  0  0  0  0  0  0  0  0  0  0  0
   23.7273    6.5089    3.0779 C   0  0  1  0  0  0  0  0  0  0  0  0
   23.1645    6.6311    4.4631 N   0  0  0  0  0  0  0  0  0  0  0  0
   24.6888    5.2593    2.9719 C   0  0  2  0  0  0  0  0  0  0  0  0
   25.7430    5.3442    3.9329 O   0  0  0  0  0  0  0  0  0  0  0  0
   25.2526    5.1856    1.5127 C   0  0  2  0  0  0  0  0  0  0  0  0
   24.1379    5.0940    0.5083 O   0  0  0  0  0  0  0  0  0  0  0  0
   26.1546    4.0006    1.3240 C   0  0  0  0  0  0  0  0  0  0  0  0
   26.6013    3.4787    2.5862 O   0  0  0  0  0  0  0  0  0  0  0  0
   19.8610   12.0323   -3.8293 O   0  0  0  0  0  0  0  0  0  0  0  0
   21.2031   12.6355   -6.2936 O   0  0  0  0  0  0  0  0  0  0  0  0
   28.1179    7.0674    3.6908 N   0  0  0  0  0  0  0  0  0  0  0  0
   25.7430    8.8825    2.9547 C   0  0  0  0  0  0  0  0  0  0  0  0
   26.7905    9.0661    2.3445 O   0  0  0  0  0  0  0  0  0  0  0  0
   25.6763    8.3176    4.3924 C   0  0  1  0  0  0  0  0  0  0  0  0
   26.9564    8.6911    5.1669 C   0  0  0  0  0  0  0  0  0  0  0  0
   28.1462    7.7411    4.9874 C   0  0  0  0  0  0  0  0  0  0  0  0
   24.5020    8.8414    5.0526 O   0  0  0  0  0  0  0  0  0  0  0  0
  1  2  1  6  0  0  0
  1  3  1  0  0  0  0
  1  8  1  0  0  0  0
  3  4  1  0  0  0  0
  3 32  1  1  0  0  0
  4  5  1  0  0  0  0
  4 33  1  6  0  0  0
  5  6  1  6  0  0  0
  5  7  1  0  0  0  0
  7  8  1  0  0  0  0
  7  9  1  6  0  0  0
  9 10  1  0  0  0  0
 11 12  1  1  0  0  0
 11 13  1  0  0  0  0
 11 19  1  0  0  0  0
 12 35  1  0  0  0  0
 13 14  1  0  0  0  0
 14 15  1  1  0  0  0
 14 16  1  0  0  0  0
 16  2  1  6  0  0  0
 16 17  1  0  0  0  0
 17 18  1  6  0  0  0
 17 19  1  0  0  0  0
 19 20  1  6  0  0  0
 21 20  1  1  0  0  0
 21 22  1  0  0  0  0
 21 29  1  0  0  0  0
 22 23  1  6  0  0  0
 22 24  1  0  0  0  0
 24 25  1  1  0  0  0
 24 26  1  0  0  0  0
 26 27  1  1  0  0  0
 26 28  1  0  0  0  0
 28 29  1  0  0  0  0
 28 30  1  1  0  0  0
 30 31  1  0  0  0  0
 34 39  1  0  0  0  0
 35 36  2  0  0  0  0
 37 35  1  6  0  0  0
 37 38  1  0  0  0  0
 37 40  1  0  0  0  0
 38 39  1  0  0  0  0
M  END
>  <CHROM.1>
-155.57405461,-51.08539191,-113.24753242,-43.67002812,133.97068595,-55.15705891
-17.81350120,-151.94274691,-85.58374951,28.09768668,23.98166055,9.33967295
0.07612145,-1.97148381,0.79559056,2.57334333

>  <Name>
2g5q_lig

>  <RI>
224

>  <Rbt.Current_Directory>
/home/itssahil/PROJECTS/Mol_Feturizer/New_Systems/rnas/2g5q

>  <Rbt.Executable>
rbdock ($Id: //depot/dev/client3/rdock/2013.1/src/exe/rbdock.cxx#4 $)

>  <Rbt.Library>
libRbt.so (2013.1, Build901 2013/11/27)

>  <Rbt.Parameter_File>
/export/apps/rDock/src/rDock_2013.1_src/data/scripts/dock_solv.prm

>  <Rbt.Receptor>
prm/blind_docking_100.prm

>  <SCORE>
34.3752

>  <SCORE.INTER>
1.14244

>  <SCORE.INTER.CONST>
1

>  <SCORE.INTER.POLAR>
-0.765314

>  <SCORE.INTER.ROT>
10

>  <SCORE.INTER.SOLV>
27.7708

>  <SCORE.INTER.VDW>
-16.2109

>  <SCORE.INTER.norm>
0.0285609

>  <SCORE.INTRA>
10.8059

>  <SCORE.INTRA.DIHEDRAL>
-0.153915

>  <SCORE.INTRA.DIHEDRAL.0>
22.5778

>  <SCORE.INTRA.POLAR>
0

>  <SCORE.INTRA.POLAR.0>
0

>  <SCORE.INTRA.REPUL>
0

>  <SCORE.INTRA.REPUL.0>
0

>  <SCORE.INTRA.SOLV>
13.7244

>  <SCORE.INTRA.SOLV.lig_0>
-102.332

>  <SCORE.INTRA.VDW>
4.02067

>  <SCORE.INTRA.VDW.0>
-5.08747

>  <SCORE.INTRA.norm>
0.270148

>  <SCORE.RESTR>
22.4268

>  <SCORE.RESTR.CAVITY>
22.4268

>  <SCORE.RESTR.norm>
0.56067

>  <SCORE.SYSTEM>
0

>  <SCORE.SYSTEM.CONST>
0

>  <SCORE.SYSTEM.DIHEDRAL>
0

>  <SCORE.SYSTEM.SOLV>
0

>  <SCORE.SYSTEM.norm>
0

>  <SCORE.heavy>
40

>  <SCORE.norm>
0.859379

>  <RMSD>
35.393

$$$$
2g5q_lig
 OpenBabel11021811433D
libRbt.so/2013.1/901 2013/11/27
 40 42  0  0  0  0  0  0  0  0999 V2000
   24.3886   13.5278   -1.8639 C   0  0  2  0  0  0  0  0  0  0  0  0
   23.4695   12.6929   -1.1948 O   0  0  0  0  0  0  0  0  0  0  0  0
   23.7749   14.9537   -1.9860 C   0  0  1  0  0  0  0  0  0  0  0  0
   22.5295   14.9727   -2.9253 C   0  0  2  0  0  0  0  0  0  0  0  0
   22.9825   14.4775   -4.3233 C   0  0  2  0  0  0  0  0  0  0  0  0
   21.8651   14.5024   -5.2263 O   0  0  0  0  0  0  0  0  0  0  0  0
   23.5577   13.0115   -4.1680 C   0  0  2  0  0  0  0  0  0  0  0  0
   24.7092   13.0126   -3.2211 O   0  0  0  0  0  0  0  0  0  0  0  0
   24.0488   12.4273   -5.4883 C   0  0  0  0  0  0  0  0  0  0  0  0
   22.9242   11.8896   -6.3176 N   0  0  0  0  0  0  0  0  0  0  0  0
   23.2255    8.5985    0.3065 C   0  0  2  0  0  0  0  0  0  0  0  0
   23.3698    7.1505    0.3975 N   0  0  0  0  0  0  0  0  0  0  0  0
   22.3905    8.9866   -0.9850 C   0  0  0  0  0  0  0  0  0  0  0  0
   22.2256   10.5543   -1.0836 C   0  0  2  0  0  0  0  0  0  0  0  0
   21.4316   10.9042   -2.2924 N   0  0  0  0  0  0  0  0  0  0  0  0
   23.6522   11.2336   -1.1156 C   0  0  2  0  0  0  0  0  0  0  0  0
   24.4541   10.8211    0.1820 C   0  0  2  0  0  0  0  0  0  0  0  0
   25.7476   11.4322    0.1479 O   0  0  0  0  0  0  0  0  0  0  0  0
   24.6204    9.2551    0.2526 C   0  0  1  0  0  0  0  0  0  0  0  0
   25.3485    8.8772    1.4549 O   0  0  0  0  0  0  0  0  0  0  0  0
   24.9894    9.2771    2.7546 C   0  0  2  0  0  0  0  0  0  0  0  0
   24.8637    7.9820    3.6264 C   0  0  2  0  0  0  0  0  0  0  0  0
   26.0832    7.3118    3.6419 O   0  0  0  0  0  0  0  0  0  0  0  0
   23.7134    7.0465    3.0932 C   0  0  1  0  0  0  0  0  0  0  0  0
   23.5820    5.8049    3.9248 N   0  0  0  0  0  0  0  0  0  0  0  0
   22.3637    7.8684    3.0963 C   0  0  2  0  0  0  0  0  0  0  0  0
   21.2775    7.0668    2.6276 O   0  0  0  0  0  0  0  0  0  0  0  0
   22.5543    9.1446    2.2088 C   0  0  2  0  0  0  0  0  0  0  0  0
   23.6967    9.9835    2.7097 O   0  0  0  0  0  0  0  0  0  0  0  0
   21.3187    9.9968    2.1873 C   0  0  0  0  0  0  0  0  0  0  0  0
   21.4118   11.0747    3.1330 O   0  0  0  0  0  0  0  0  0  0  0  0
   23.4274   15.4239   -0.6383 O   0  0  0  0  0  0  0  0  0  0  0  0
   22.0369   16.2564   -3.0070 O   0  0  0  0  0  0  0  0  0  0  0  0
   26.6044    4.4470    2.4376 N   0  0  0  0  0  0  0  0  0  0  0  0
   23.7453    6.3160   -0.6459 C   0  0  0  0  0  0  0  0  0  0  0  0
   23.9940    6.7093   -1.7803 O   0  0  0  0  0  0  0  0  0  0  0  0
   23.7986    4.8298   -0.2231 C   0  0  1  0  0  0  0  0  0  0  0  0
   25.1657    4.5106    0.4150 C   0  0  0  0  0  0  0  0  0  0  0  0
   25.2828    4.7916    1.9176 C   0  0  0  0  0  0  0  0  0  0  0  0
   22.7215    4.5625    0.7032 O   0  0  0  0  0  0  0  0  0  0  0  0
  1  2  1  6  0  0  0
  1  3  1  0  0  0  0
  1  8  1  0  0  0  0
  3  4  1  0  0  0  0
  3 32  1  1  0  0  0
  4  5  1  0  0  0  0
  4 33  1  6  0  0  0
  5  6  1  6  0  0  0
  5  7  1  0  0  0  0
  7  8  1  0  0  0  0
  7  9  1  6  0  0  0
  9 10  1  0  0  0  0
 11 12  1  6  0  0  0
 11 13  1  0  0  0  0
 11 19  1  0  0  0  0
 12 35  1  0  0  0  0
 13 14  1  0  0  0  0
 14 15  1  6  0  0  0
 14 16  1  0  0  0  0
 16  2  1  1  0  0  0
 16 17  1  0  0  0  0
 17 18  1  6  0  0  0
 17 19  1  0  0  0  0
 19 20  1  1  0  0  0
 21 20  1  6  0  0  0
 21 22  1  0  0  0  0
 21 29  1  0  0  0  0
 22 23  1  6  0  0  0
 22 24  1  0  0  0  0
 24 25  1  1  0  0  0
 24 26  1  0  0  0  0
 26 27  1  6  0  0  0
 26 28  1  0  0  0  0
 28 29  1  0  0  0  0
 28 30  1  1  0  0  0
 30 31  1  0  0  0  0
 34 39  1  0  0  0  0
 35 36  2  0  0  0  0
 37 35  1  1  0  0  0
 37 38  1  0  0  0  0
 37 40  1  0  0  0  0
 38 39  1  0  0  0  0
M  END
>  <CHROM.1>
169.72356702,-80.58096101,47.03854834,-148.39852658,-66.13534505,126.18678785
97.40765677,-84.87518035,86.29404090,179.39227966,23.57969501,9.87511828
-0.17536681,2.36543592,1.41300014,-1.41423626

>  <Name>
2g5q_lig

>  <RI>
224

>  <Rbt.Current_Directory>
/home/itssahil/PROJECTS/Mol_Feturizer/New_Systems/rnas/2g5q

>  <Rbt.Executable>
rbdock ($Id: //depot/dev/client3/rdock/2013.1/src/exe/rbdock.cxx#4 $)

>  <Rbt.Library>
libRbt.so (2013.1, Build901 2013/11/27)

>  <Rbt.Parameter_File>
/export/apps/rDock/src/rDock_2013.1_src/data/scripts/dock_solv.prm

>  <Rbt.Receptor>
prm/blind_docking_100.prm

>  <SCORE>
44.6643

>  <SCORE.INTER>
6.2228

>  <SCORE.INTER.CONST>
1

>  <SCORE.INTER.POLAR>
0

>  <SCORE.INTER.ROT>
10

>  <SCORE.INTER.SOLV>
25.6626

>  <SCORE.INTER.VDW>
-14.6723

>  <SCORE.INTER.norm>
0.15557

>  <SCORE.INTRA>
20.4101

>  <SCORE.INTRA.DIHEDRAL>
-2.34943

>  <SCORE.INTRA.DIHEDRAL.0>
22.5778

>  <SCORE.INTRA.POLAR>
0

>  <SCORE.INTRA.POLAR.0>
0

>  <SCORE.INTRA.REPUL>
0

>  <SCORE.INTRA.REPUL.0>
0

>  <SCORE.INTRA.SOLV>
9.41607

>  <SCORE.INTRA.SOLV.lig_0>
-102.332

>  <SCORE.INTRA.VDW>
16.8768

>  <SCORE.INTRA.VDW.0>
-5.08747

>  <SCORE.INTRA.norm>
0.510252

>  <SCORE.RESTR>
18.0314

>  <SCORE.RESTR.CAVITY>
18.0314

>  <SCORE.RESTR.norm>
0.450786

>  <SCORE.SYSTEM>
0

>  <SCORE.SYSTEM.CONST>
0

>  <SCORE.SYSTEM.DIHEDRAL>
0

>  <SCORE.SYSTEM.SOLV>
0

>  <SCORE.SYSTEM.norm>
0

>  <SCORE.heavy>
40

>  <SCORE.norm>
1.11661

>  <RMSD>
35.419

$$$$
2g5q_lig
 OpenBabel11021811433D
libRbt.so/2013.1/901 2013/11/27
 40 42  0  0  0  0  0  0  0  0999 V2000
   24.5255   13.3186   -2.4509 C   0  0  2  0  0  0  0  0  0  0  0  0
   23.7797   12.5975   -1.4952 O   0  0  0  0  0  0  0  0  0  0  0  0
   24.0615   14.8049   -2.4325 C   0  0  1  0  0  0  0  0  0  0  0  0
   22.5933   14.9623   -2.9359 C   0  0  2  0  0  0  0  0  0  0  0  0
   22.5271   14.4123   -4.3843 C   0  0  2  0  0  0  0  0  0  0  0  0
   21.1918   14.5611   -4.8934 O   0  0  0  0  0  0  0  0  0  0  0  0
   22.9610   12.8908   -4.3576 C   0  0  2  0  0  0  0  0  0  0  0  0
   24.3453   12.7641   -3.8185 O   0  0  0  0  0  0  0  0  0  0  0  0
   22.9457   12.2483   -5.7405 C   0  0  0  0  0  0  0  0  0  0  0  0
   24.0110   11.2065   -5.8878 N   0  0  0  0  0  0  0  0  0  0  0  0
   23.0591    8.5426   -0.0406 C   0  0  2  0  0  0  0  0  0  0  0  0
   23.1340    7.0936    0.1026 N   0  0  0  0  0  0  0  0  0  0  0  0
   22.5719    8.9252   -1.5008 C   0  0  0  0  0  0  0  0  0  0  0  0
   22.4824   10.4942   -1.6580 C   0  0  2  0  0  0  0  0  0  0  0  0
   22.0139   10.8393   -3.0275 N   0  0  0  0  0  0  0  0  0  0  0  0
   23.8944   11.1360   -1.3540 C   0  0  2  0  0  0  0  0  0  0  0  0
   24.3472   10.7300    0.1044 C   0  0  2  0  0  0  0  0  0  0  0  0
   25.6286   11.3069    0.3751 O   0  0  0  0  0  0  0  0  0  0  0  0
   24.4449    9.1620    0.2349 C   0  0  1  0  0  0  0  0  0  0  0  0
   24.8502    8.7905    1.5824 O   0  0  0  0  0  0  0  0  0  0  0  0
   24.4624    9.4832    2.7435 C   0  0  2  0  0  0  0  0  0  0  0  0
   23.8536    8.4343    3.7346 C   0  0  2  0  0  0  0  0  0  0  0  0
   24.8111    7.4713    4.0383 O   0  0  0  0  0  0  0  0  0  0  0  0
   22.5570    7.7700    3.1345 C   0  0  1  0  0  0  0  0  0  0  0  0
   21.9635    6.7668    4.0787 N   0  0  0  0  0  0  0  0  0  0  0  0
   21.5181    8.9153    2.8082 C   0  0  2  0  0  0  0  0  0  0  0  0
   20.3133    8.3713    2.2654 O   0  0  0  0  0  0  0  0  0  0  0  0
   22.1849    9.9260    1.8150 C   0  0  2  0  0  0  0  0  0  0  0  0
   23.4498   10.4955    2.3941 O   0  0  0  0  0  0  0  0  0  0  0  0
   21.2661   11.0650    1.4801 C   0  0  0  0  0  0  0  0  0  0  0  0
   21.9376   12.3297    1.6007 O   0  0  0  0  0  0  0  0  0  0  0  0
   24.2086   15.3178   -1.0638 O   0  0  0  0  0  0  0  0  0  0  0  0
   22.2409   16.2937   -2.9113 O   0  0  0  0  0  0  0  0  0  0  0  0
   26.5296    4.8940    2.2582 N   0  0  0  0  0  0  0  0  0  0  0  0
   23.7706    6.2333   -0.7810 C   0  0  0  0  0  0  0  0  0  0  0  0
   24.3435    6.6016   -1.8006 O   0  0  0  0  0  0  0  0  0  0  0  0
   23.6623    4.7538   -0.3455 C   0  0  1  0  0  0  0  0  0  0  0  0
   24.9173    4.3444    0.4517 C   0  0  0  0  0  0  0  0  0  0  0  0
   25.1960    5.1572    1.7214 C   0  0  0  0  0  0  0  0  0  0  0  0
   22.4670    4.5805    0.4486 O   0  0  0  0  0  0  0  0  0  0  0  0
  1  2  1  1  0  0  0
  1  3  1  0  0  0  0
  1  8  1  0  0  0  0
  3  4  1  0  0  0  0
  3 32  1  1  0  0  0
  4  5  1  0  0  0  0
  4 33  1  6  0  0  0
  5  6  1  1  0  0  0
  5  7  1  0  0  0  0
  7  8  1  0  0  0  0
  7  9  1  6  0  0  0
  9 10  1  0  0  0  0
 11 12  1  6  0  0  0
 11 13  1  0  0  0  0
 11 19  1  0  0  0  0
 12 35  1  0  0  0  0
 13 14  1  0  0  0  0
 14 15  1  6  0  0  0
 14 16  1  0  0  0  0
 16  2  1  1  0  0  0
 16 17  1  0  0  0  0
 17 18  1  6  0  0  0
 17 19  1  0  0  0  0
 19 20  1  1  0  0  0
 21 20  1  6  0  0  0
 21 22  1  0  0  0  0
 21 29  1  0  0  0  0
 22 23  1  6  0  0  0
 22 24  1  0  0  0  0
 24 25  1  1  0  0  0
 24 26  1  0  0  0  0
 26 27  1  6  0  0  0
 26 28  1  0  0  0  0
 28 29  1  0  0  0  0
 28 30  1  1  0  0  0
 30 31  1  0  0  0  0
 34 39  1  0  0  0  0
 35 36  2  0  0  0  0
 37 35  1  1  0  0  0
 37 38  1  0  0  0  0
 37 40  1  0  0  0  0
 38 39  1  0  0  0  0
M  END
>  <CHROM.1>
174.25107758,147.05071146,49.72883271,-118.38471495,-84.27700642,127.48090324
132.00946050,-95.14869180,58.97391768,-168.24327779,23.37457186,10.03605310
-0.38159595,-1.98248689,-1.36832568,2.10426569

>  <Name>
2g5q_lig

>  <RI>
224

>  <Rbt.Current_Directory>
/home/itssahil/PROJECTS/Mol_Feturizer/New_Systems/rnas/2g5q

>  <Rbt.Executable>
rbdock ($Id: //depot/dev/client3/rdock/2013.1/src/exe/rbdock.cxx#4 $)

>  <Rbt.Library>
libRbt.so (2013.1, Build901 2013/11/27)

>  <Rbt.Parameter_File>
/export/apps/rDock/src/rDock_2013.1_src/data/scripts/dock_solv.prm

>  <Rbt.Receptor>
prm/blind_docking_100.prm

>  <SCORE>
47.376

>  <SCORE.INTER>
10.5979

>  <SCORE.INTER.CONST>
1

>  <SCORE.INTER.POLAR>
0

>  <SCORE.INTER.ROT>
10

>  <SCORE.INTER.SOLV>
29.2583

>  <SCORE.INTER.VDW>
-12.9541

>  <SCORE.INTER.norm>
0.264949

>  <SCORE.INTRA>
17.5305

>  <SCORE.INTRA.DIHEDRAL>
4.43704

>  <SCORE.INTRA.DIHEDRAL.0>
22.5778

>  <SCORE.INTRA.POLAR>
0

>  <SCORE.INTRA.POLAR.0>
0

>  <SCORE.INTRA.REPUL>
0

>  <SCORE.INTRA.REPUL.0>
0

>  <SCORE.INTRA.SOLV>
7.99662

>  <SCORE.INTRA.SOLV.lig_0>
-102.332

>  <SCORE.INTRA.VDW>
11.3136

>  <SCORE.INTRA.VDW.0>
-5.08747

>  <SCORE.INTRA.norm>
0.438261

>  <SCORE.RESTR>
19.2476

>  <SCORE.RESTR.CAVITY>
19.2476

>  <SCORE.RESTR.norm>
0.48119

>  <SCORE.SYSTEM>
0

>  <SCORE.SYSTEM.CONST>
0

>  <SCORE.SYSTEM.DIHEDRAL>
0

>  <SCORE.SYSTEM.SOLV>
0

>  <SCORE.SYSTEM.norm>
0

>  <SCORE.heavy>
40

>  <SCORE.norm>
1.1844

>  <RMSD>
35.476

$$$$
2g5q_lig
 OpenBabel11021811433D
libRbt.so/2013.1/901 2013/11/27
 40 42  0  0  0  0  0  0  0  0999 V2000
   25.2948   13.8039   -3.4321 C   0  0  2  0  0  0  0  0  0  0  0  0
   24.9984   13.9215   -2.0581 O   0  0  0  0  0  0  0  0  0  0  0  0
   24.8077   15.0899   -4.1626 C   0  0  1  0  0  0  0  0  0  0  0  0
   23.2529   15.2158   -4.1446 C   0  0  2  0  0  0  0  0  0  0  0  0
   22.6676   13.9630   -4.8466 C   0  0  2  0  0  0  0  0  0  0  0  0
   21.2338   14.0527   -4.8710 O   0  0  0  0  0  0  0  0  0  0  0  0
   23.1454   12.6805   -4.0521 C   0  0  2  0  0  0  0  0  0  0  0  0
   24.6348   12.6160   -4.0352 O   0  0  0  0  0  0  0  0  0  0  0  0
   22.6360   11.3815   -4.6673 C   0  0  0  0  0  0  0  0  0  0  0  0
   21.1722   11.1811   -4.4248 N   0  0  0  0  0  0  0  0  0  0  0  0
   22.3901   12.2987    1.0468 C   0  0  2  0  0  0  0  0  0  0  0  0
   21.3221   11.5531    1.7021 N   0  0  0  0  0  0  0  0  0  0  0  0
   21.7814   13.3240    0.0008 C   0  0  0  0  0  0  0  0  0  0  0  0
   22.9347   14.1391   -0.7063 C   0  0  2  0  0  0  0  0  0  0  0  0
   22.3504   15.1044   -1.6762 N   0  0  0  0  0  0  0  0  0  0  0  0
   23.9281   13.1373   -1.4189 C   0  0  2  0  0  0  0  0  0  0  0  0
   24.5093   12.1313   -0.3480 C   0  0  2  0  0  0  0  0  0  0  0  0
   25.4035   11.2213   -0.9965 O   0  0  0  0  0  0  0  0  0  0  0  0
   23.3438   11.3179    0.3339 C   0  0  1  0  0  0  0  0  0  0  0  0
   23.8809   10.4009    1.3284 O   0  0  0  0  0  0  0  0  0  0  0  0
   24.6558    9.2679    1.0217 C   0  0  2  0  0  0  0  0  0  0  0  0
   23.6681    8.1091    0.6545 C   0  0  2  0  0  0  0  0  0  0  0  0
   22.8980    8.4846   -0.4421 O   0  0  0  0  0  0  0  0  0  0  0  0
   22.7548    7.7297    1.8811 C   0  0  1  0  0  0  0  0  0  0  0  0
   21.8080    6.6171    1.5406 N   0  0  0  0  0  0  0  0  0  0  0  0
   23.6893    7.3207    3.0880 C   0  0  2  0  0  0  0  0  0  0  0  0
   22.9143    6.9574    4.2324 O   0  0  0  0  0  0  0  0  0  0  0  0
   24.6474    8.5181    3.4056 C   0  0  2  0  0  0  0  0  0  0  0  0
   25.4605    8.8924    2.1979 O   0  0  0  0  0  0  0  0  0  0  0  0
   25.5917    8.1928    4.5263 C   0  0  0  0  0  0  0  0  0  0  0  0
   26.2710    6.9484    4.2916 O   0  0  0  0  0  0  0  0  0  0  0  0
   25.4393   16.2518   -3.5228 O   0  0  0  0  0  0  0  0  0  0  0  0
   22.8782   16.3601   -4.8137 O   0  0  0  0  0  0  0  0  0  0  0  0
   18.9370   11.3900    0.8742 N   0  0  0  0  0  0  0  0  0  0  0  0
   21.4951   10.6617    2.7516 C   0  0  0  0  0  0  0  0  0  0  0  0
   22.5836   10.3922    3.2474 O   0  0  0  0  0  0  0  0  0  0  0  0
   20.1620   10.0313    3.2163 C   0  0  1  0  0  0  0  0  0  0  0  0
   19.0768   11.1202    3.3384 C   0  0  0  0  0  0  0  0  0  0  0  0
   18.1703   11.2990    2.1150 C   0  0  0  0  0  0  0  0  0  0  0  0
   19.7661    9.0115    2.2716 O   0  0  0  0  0  0  0  0  0  0  0  0
  1  2  1  1  0  0  0
  1  3  1  0  0  0  0
  1  8  1  0  0  0  0
  3  4  1  0  0  0  0
  3 32  1  1  0  0  0
  4  5  1  0  0  0  0
  4 33  1  6  0  0  0
  5  6  1  1  0  0  0
  5  7  1  0  0  0  0
  7  8  1  0  0  0  0
  7  9  1  6  0  0  0
  9 10  1  0  0  0  0
 11 12  1  6  0  0  0
 11 13  1  0  0  0  0
 11 19  1  0  0  0  0
 12 35  1  0  0  0  0
 13 14  1  0  0  0  0
 14 15  1  6  0  0  0
 14 16  1  0  0  0  0
 16  2  1  1  0  0  0
 16 17  1  0  0  0  0
 17 18  1  6  0  0  0
 17 19  1  0  0  0  0
 19 20  1  1  0  0  0
 21 20  1  1  0  0  0
 21 22  1  0  0  0  0
 21 29  1  0  0  0  0
 22 23  1  6  0  0  0
 22 24  1  0  0  0  0
 24 25  1  6  0  0  0
 24 26  1  0  0  0  0
 26 27  1  1  0  0  0
 26 28  1  0  0  0  0
 28 29  1  0  0  0  0
 28 30  1  1  0  0  0
 30 31  1  0  0  0  0
 34 39  1  0  0  0  0
 35 36  2  0  0  0  0
 37 35  1  6  0  0  0
 37 38  1  0  0  0  0
 37 40  1  0  0  0  0
 38 39  1  0  0  0  0
M  END
>  <CHROM.1>
107.77117312,-72.94885517,-174.03688096,-124.61089830,171.82718679,-83.07560137
51.34895765,-45.17101447,94.97049880,-48.28346610,22.98859358,11.29267461
-0.14269734,-1.51577977,-0.21986905,2.29456146

>  <Name>
2g5q_lig

>  <RI>
224

>  <Rbt.Current_Directory>
/home/itssahil/PROJECTS/Mol_Feturizer/New_Systems/rnas/2g5q

>  <Rbt.Executable>
rbdock ($Id: //depot/dev/client3/rdock/2013.1/src/exe/rbdock.cxx#4 $)

>  <Rbt.Library>
libRbt.so (2013.1, Build901 2013/11/27)

>  <Rbt.Parameter_File>
/export/apps/rDock/src/rDock_2013.1_src/data/scripts/dock_solv.prm

>  <Rbt.Receptor>
prm/blind_docking_100.prm

>  <SCORE>
30.2648

>  <SCORE.INTER>
-3.44509

>  <SCORE.INTER.CONST>
1

>  <SCORE.INTER.POLAR>
-0.497075

>  <SCORE.INTER.ROT>
10

>  <SCORE.INTER.SOLV>
19.8728

>  <SCORE.INTER.VDW>
-17.5307

>  <SCORE.INTER.norm>
-0.0861272

>  <SCORE.INTRA>
9.7038

>  <SCORE.INTRA.DIHEDRAL>
-0.687609

>  <SCORE.INTRA.DIHEDRAL.0>
22.5778

>  <SCORE.INTRA.POLAR>
0

>  <SCORE.INTRA.POLAR.0>
0

>  <SCORE.INTRA.REPUL>
0

>  <SCORE.INTRA.REPUL.0>
0

>  <SCORE.INTRA.SOLV>
14.1818

>  <SCORE.INTRA.SOLV.lig_0>
-102.332

>  <SCORE.INTRA.VDW>
2.95672

>  <SCORE.INTRA.VDW.0>
-5.08747

>  <SCORE.INTRA.norm>
0.242595

>  <SCORE.RESTR>
24.0061

>  <SCORE.RESTR.CAVITY>
24.0061

>  <SCORE.RESTR.norm>
0.600153

>  <SCORE.SYSTEM>
0

>  <SCORE.SYSTEM.CONST>
0

>  <SCORE.SYSTEM.DIHEDRAL>
0

>  <SCORE.SYSTEM.SOLV>
0

>  <SCORE.SYSTEM.norm>
0

>  <SCORE.heavy>
40

>  <SCORE.norm>
0.756621

>  <RMSD>
35.663

$$$$
